MODEL 1
REMARK VINA RESULT:      -8.1      0.000      0.000
REMARK  Name = 
REMARK  7 active torsions:
REMARK  status: ('A' for Active; 'I' for Inactive)
REMARK    1  A    between atoms: C_1  and  N_2
REMARK    2  A    between atoms: N_2  and  C_3
REMARK    3  A    between atoms: C_3  and  C_4
REMARK    4  A    between atoms: C_4  and  N_5
REMARK    5  A    between atoms: C_6  and  C_8
REMARK    6  A    between atoms: C_14  and  C_15
REMARK    7  A    between atoms: C_20  and  C_21
REMARK                            x       y       z     vdW  Elec       q    Type
REMARK                         _______ _______ _______ _____ _____    ______ ____
ROOT
ATOM      1  C   UNL     1       6.185   4.689  14.841  0.00  0.00    +0.000 A 
ATOM      2  C   UNL     1       5.024   4.099  15.392  0.00  0.00    +0.000 A 
ATOM      3  C   UNL     1       4.575   4.568  16.616  0.00  0.00    +0.000 A 
ATOM      4  C   UNL     1       5.230   5.566  17.301  0.00  0.00    +0.000 A 
ATOM      5  N   UNL     1       4.551   5.874  18.438  0.00  0.00    +0.000 N 
ATOM      6  C   UNL     1       3.494   5.037  18.487  0.00  0.00    +0.000 A 
ATOM      7  C   UNL     1       2.501   4.952  19.480  0.00  0.00    +0.000 A 
ATOM      8  C   UNL     1       2.486   5.814  20.714  0.00  0.00    +0.000 C 
ATOM      9  C   UNL     1       1.481   3.996  19.292  0.00  0.00    +0.000 A 
ATOM     10  C   UNL     1       1.467   3.167  18.152  0.00  0.00    +0.000 A 
ATOM     11  C   UNL     1       2.473   3.273  17.174  0.00  0.00    +0.000 A 
ATOM     12  C   UNL     1       3.475   4.220  17.375  0.00  0.00    +0.000 A 
ATOM     13  C   UNL     1       6.412   6.137  16.775  0.00  0.00    +0.000 A 
ATOM     14  N   UNL     1       6.832   5.682  15.545  0.00  0.00    +0.000 NA
ATOM     15  H   UNL     1       4.759   6.613  19.136  0.00  0.00    +0.000 HD
ENDROOT
BRANCH  13  16
ATOM     16  C   UNL     1       7.191   7.202  17.499  0.00  0.00    +0.000 A 
ATOM     17  C   UNL     1       7.100   8.554  17.093  0.00  0.00    +0.000 A 
ATOM     18  C   UNL     1       7.848   9.554  17.712  0.00  0.00    +0.000 A 
ATOM     19  C   UNL     1       8.693   9.239  18.769  0.00  0.00    +0.000 A 
ATOM     20 CL   UNL     1       9.647  10.499  19.530  0.00  0.00    +0.000 Cl
ATOM     21  C   UNL     1       8.773   7.921  19.223  0.00  0.00    +0.000 A 
ATOM     22  C   UNL     1       8.027   6.903  18.608  0.00  0.00    +0.000 A 
ATOM     23 CL   UNL     1       8.231   5.273  19.242  0.00  0.00    +0.000 Cl
ENDBRANCH  13  16
BRANCH   1  25
ATOM     24  N   UNL     1       6.224   3.062  12.926  0.00  0.00    +0.000 N 
ATOM     25  C   UNL     1       6.686   4.209  13.516  0.00  0.00    +0.000 C 
ATOM     26  O   UNL     1       7.524   4.887  12.937  0.00  0.00    +0.000 OA
ATOM     27  H   UNL     1       5.515   2.489  13.409  0.00  0.00    +0.000 HD
BRANCH  24  28
ATOM     28  C   UNL     1       6.656   2.643  11.592  0.00  0.00    +0.000 C 
BRANCH  28  29
ATOM     29  C   UNL     1       5.885   1.419  11.077  0.00  0.00    +0.000 C 
BRANCH  29  31
ATOM     30  C   UNL     1       5.889  -1.012  11.243  0.00  0.00    +0.000 C 
ATOM     31  N   UNL     1       6.691   0.211  11.315  0.00  0.00    +0.000 NA
ATOM     32  H   UNL     1       7.450   0.144  10.595  0.00  0.00    +0.000 HD
ENDBRANCH  29  31
ENDBRANCH  28  29
ENDBRANCH  24  28
ENDBRANCH   1  25
TORSDOF 5
ENDMDL
MODEL 2
REMARK VINA RESULT:      -7.9      2.481      6.000
REMARK  Name = 
REMARK  7 active torsions:
REMARK  status: ('A' for Active; 'I' for Inactive)
REMARK    1  A    between atoms: C_1  and  N_2
REMARK    2  A    between atoms: N_2  and  C_3
REMARK    3  A    between atoms: C_3  and  C_4
REMARK    4  A    between atoms: C_4  and  N_5
REMARK    5  A    between atoms: C_6  and  C_8
REMARK    6  A    between atoms: C_14  and  C_15
REMARK    7  A    between atoms: C_20  and  C_21
REMARK                            x       y       z     vdW  Elec       q    Type
REMARK                         _______ _______ _______ _____ _____    ______ ____
ROOT
ATOM      1  C   UNL     1       4.678   4.202  17.690  0.00  0.00    +0.000 A 
ATOM      2  C   UNL     1       4.777   3.742  16.356  0.00  0.00    +0.000 A 
ATOM      3  C   UNL     1       5.693   4.364  15.522  0.00  0.00    +0.000 A 
ATOM      4  C   UNL     1       6.482   5.407  15.951  0.00  0.00    +0.000 A 
ATOM      5  N   UNL     1       7.327   5.791  14.958  0.00  0.00    +0.000 N 
ATOM      6  C   UNL     1       7.036   5.017  13.891  0.00  0.00    +0.000 A 
ATOM      7  C   UNL     1       7.626   5.044  12.615  0.00  0.00    +0.000 A 
ATOM      8  C   UNL     1       8.713   6.009  12.222  0.00  0.00    +0.000 C 
ATOM      9  C   UNL     1       7.152   4.113  11.666  0.00  0.00    +0.000 A 
ATOM     10  C   UNL     1       6.131   3.199  11.996  0.00  0.00    +0.000 A 
ATOM     11  C   UNL     1       5.559   3.195  13.281  0.00  0.00    +0.000 A 
ATOM     12  C   UNL     1       6.035   4.122  14.206  0.00  0.00    +0.000 A 
ATOM     13  C   UNL     1       6.365   5.895  17.273  0.00  0.00    +0.000 A 
ATOM     14  N   UNL     1       5.471   5.252  18.099  0.00  0.00    +0.000 NA
ATOM     15  H   UNL     1       8.074   6.511  14.985  0.00  0.00    +0.000 HD
ENDROOT
BRANCH  13  16
ATOM     16  C   UNL     1       7.172   7.058  17.783  0.00  0.00    +0.000 A 
ATOM     17  C   UNL     1       7.022   8.341  17.204  0.00  0.00    +0.000 A 
ATOM     18  C   UNL     1       7.792   9.425  17.622  0.00  0.00    +0.000 A 
ATOM     19  C   UNL     1       8.720   9.267  18.645  0.00  0.00    +0.000 A 
ATOM     20 CL   UNL     1       9.701  10.630  19.151  0.00  0.00    +0.000 Cl
ATOM     21  C   UNL     1       8.861   8.026  19.267  0.00  0.00    +0.000 A 
ATOM     22  C   UNL     1       8.094   6.924  18.856  0.00  0.00    +0.000 A 
ATOM     23 CL   UNL     1       8.379   5.399  19.689  0.00  0.00    +0.000 Cl
ENDBRANCH  13  16
BRANCH   1  25
ATOM     24  N   UNL     1       2.822   2.583  18.192  0.00  0.00    +0.000 N 
ATOM     25  C   UNL     1       3.705   3.542  18.615  0.00  0.00    +0.000 C 
ATOM     26  O   UNL     1       3.722   3.865  19.795  0.00  0.00    +0.000 OA
ATOM     27  H   UNL     1       2.806   2.305  17.199  0.00  0.00    +0.000 HD
BRANCH  24  28
ATOM     28  C   UNL     1       1.931   1.882  19.118  0.00  0.00    +0.000 C 
BRANCH  28  29
ATOM     29  C   UNL     1       0.588   2.602  19.308  0.00  0.00    +0.000 C 
BRANCH  29  31
ATOM     30  C   UNL     1       1.381   2.655  21.611  0.00  0.00    +0.000 C 
ATOM     31  N   UNL     1       0.624   3.356  20.571  0.00  0.00    +0.000 NA
ATOM     32  H   UNL     1       1.074   4.288  20.415  0.00  0.00    +0.000 HD
ENDBRANCH  29  31
ENDBRANCH  28  29
ENDBRANCH  24  28
ENDBRANCH   1  25
TORSDOF 5
ENDMDL
MODEL 3
REMARK VINA RESULT:      -7.7      9.907     11.480
REMARK  Name = 
REMARK  7 active torsions:
REMARK  status: ('A' for Active; 'I' for Inactive)
REMARK    1  A    between atoms: C_1  and  N_2
REMARK    2  A    between atoms: N_2  and  C_3
REMARK    3  A    between atoms: C_3  and  C_4
REMARK    4  A    between atoms: C_4  and  N_5
REMARK    5  A    between atoms: C_6  and  C_8
REMARK    6  A    between atoms: C_14  and  C_15
REMARK    7  A    between atoms: C_20  and  C_21
REMARK                            x       y       z     vdW  Elec       q    Type
REMARK                         _______ _______ _______ _____ _____    ______ ____
ROOT
ATOM      1  C   UNL     1      -3.322  10.845  16.007  0.00  0.00    +0.000 A 
ATOM      2  C   UNL     1      -4.541  10.886  16.724  0.00  0.00    +0.000 A 
ATOM      3  C   UNL     1      -4.525  11.426  18.001  0.00  0.00    +0.000 A 
ATOM      4  C   UNL     1      -3.370  11.899  18.580  0.00  0.00    +0.000 A 
ATOM      5  N   UNL     1      -3.643  12.423  19.804  0.00  0.00    +0.000 N 
ATOM      6  C   UNL     1      -4.964  12.237  20.010  0.00  0.00    +0.000 A 
ATOM      7  C   UNL     1      -5.722  12.593  21.140  0.00  0.00    +0.000 A 
ATOM      8  C   UNL     1      -5.136  13.249  22.361  0.00  0.00    +0.000 C 
ATOM      9  C   UNL     1      -7.103  12.303  21.107  0.00  0.00    +0.000 A 
ATOM     10  C   UNL     1      -7.685  11.682  19.983  0.00  0.00    +0.000 A 
ATOM     11  C   UNL     1      -6.902  11.337  18.867  0.00  0.00    +0.000 A 
ATOM     12  C   UNL     1      -5.540  11.627  18.915  0.00  0.00    +0.000 A 
ATOM     13  C   UNL     1      -2.140  11.830  17.883  0.00  0.00    +0.000 A 
ATOM     14  N   UNL     1      -2.175  11.318  16.606  0.00  0.00    +0.000 NA
ATOM     15  H   UNL     1      -2.998  12.901  20.463  0.00  0.00    +0.000 HD
ENDROOT
BRANCH  13  16
ATOM     16  C   UNL     1      -0.841  12.296  18.482  0.00  0.00    +0.000 A 
ATOM     17  C   UNL     1      -0.345  13.590  18.194  0.00  0.00    +0.000 A 
ATOM     18  C   UNL     1       0.879  14.030  18.694  0.00  0.00    +0.000 A 
ATOM     19  C   UNL     1       1.636  13.201  19.513  0.00  0.00    +0.000 A 
ATOM     20 CL   UNL     1       3.186  13.753  20.121  0.00  0.00    +0.000 Cl
ATOM     21  C   UNL     1       1.155  11.935  19.853  0.00  0.00    +0.000 A 
ATOM     22  C   UNL     1      -0.076  11.477  19.356  0.00  0.00    +0.000 A 
ATOM     23 CL   UNL     1      -0.569   9.852  19.822  0.00  0.00    +0.000 Cl
ENDBRANCH  13  16
BRANCH   1  25
ATOM     24  N   UNL     1      -4.437  10.224  13.842  0.00  0.00    +0.000 N 
ATOM     25  C   UNL     1      -3.313  10.277  14.623  0.00  0.00    +0.000 C 
ATOM     26  O   UNL     1      -2.250   9.867  14.176  0.00  0.00    +0.000 OA
ATOM     27  H   UNL     1      -5.334  10.571  14.213  0.00  0.00    +0.000 HD
BRANCH  24  28
ATOM     28  C   UNL     1      -4.403   9.745  12.459  0.00  0.00    +0.000 C 
BRANCH  28  29
ATOM     29  C   UNL     1      -5.771   9.246  11.971  0.00  0.00    +0.000 C 
BRANCH  29  31
ATOM     30  C   UNL     1      -7.666  10.516  11.118  0.00  0.00    +0.000 C 
ATOM     31  N   UNL     1      -6.263  10.151  10.920  0.00  0.00    +0.000 NA
ATOM     32  H   UNL     1      -5.696  11.031  10.916  0.00  0.00    +0.000 HD
ENDBRANCH  29  31
ENDBRANCH  28  29
ENDBRANCH  24  28
ENDBRANCH   1  25
TORSDOF 5
ENDMDL
MODEL 4
REMARK VINA RESULT:      -7.6      2.347      6.214
REMARK  Name = 
REMARK  7 active torsions:
REMARK  status: ('A' for Active; 'I' for Inactive)
REMARK    1  A    between atoms: C_1  and  N_2
REMARK    2  A    between atoms: N_2  and  C_3
REMARK    3  A    between atoms: C_3  and  C_4
REMARK    4  A    between atoms: C_4  and  N_5
REMARK    5  A    between atoms: C_6  and  C_8
REMARK    6  A    between atoms: C_14  and  C_15
REMARK    7  A    between atoms: C_20  and  C_21
REMARK                            x       y       z     vdW  Elec       q    Type
REMARK                         _______ _______ _______ _____ _____    ______ ____
ROOT
ATOM      1  C   UNL     1       4.574   4.111  17.614  0.00  0.00    +0.000 A 
ATOM      2  C   UNL     1       4.682   3.665  16.276  0.00  0.00    +0.000 A 
ATOM      3  C   UNL     1       5.609   4.289  15.457  0.00  0.00    +0.000 A 
ATOM      4  C   UNL     1       6.400   5.323  15.904  0.00  0.00    +0.000 A 
ATOM      5  N   UNL     1       7.257   5.712  14.923  0.00  0.00    +0.000 N 
ATOM      6  C   UNL     1       6.970   4.951  13.845  0.00  0.00    +0.000 A 
ATOM      7  C   UNL     1       7.572   4.988  12.575  0.00  0.00    +0.000 A 
ATOM      8  C   UNL     1       8.668   5.950  12.202  0.00  0.00    +0.000 C 
ATOM      9  C   UNL     1       7.101   4.070  11.612  0.00  0.00    +0.000 A 
ATOM     10  C   UNL     1       6.071   3.159  11.923  0.00  0.00    +0.000 A 
ATOM     11  C   UNL     1       5.487   3.145  13.202  0.00  0.00    +0.000 A 
ATOM     12  C   UNL     1       5.960   4.059  14.141  0.00  0.00    +0.000 A 
ATOM     13  C   UNL     1       6.274   5.798  17.230  0.00  0.00    +0.000 A 
ATOM     14  N   UNL     1       5.369   5.152  18.042  0.00  0.00    +0.000 NA
ATOM     15  H   UNL     1       8.008   6.427  14.964  0.00  0.00    +0.000 HD
ENDROOT
BRANCH  13  16
ATOM     16  C   UNL     1       7.085   6.950  17.760  0.00  0.00    +0.000 A 
ATOM     17  C   UNL     1       6.918   8.248  17.220  0.00  0.00    +0.000 A 
ATOM     18  C   UNL     1       7.690   9.324  17.656  0.00  0.00    +0.000 A 
ATOM     19  C   UNL     1       8.635   9.142  18.658  0.00  0.00    +0.000 A 
ATOM     20 CL   UNL     1       9.618  10.496  19.187  0.00  0.00    +0.000 Cl
ATOM     21  C   UNL     1       8.793   7.884  19.242  0.00  0.00    +0.000 A 
ATOM     22  C   UNL     1       8.025   6.791  18.813  0.00  0.00    +0.000 A 
ATOM     23 CL   UNL     1       8.331   5.244  19.597  0.00  0.00    +0.000 Cl
ENDBRANCH  13  16
BRANCH   1  25
ATOM     24  N   UNL     1       3.829   3.258  19.858  0.00  0.00    +0.000 N 
ATOM     25  C   UNL     1       3.587   3.448  18.523  0.00  0.00    +0.000 C 
ATOM     26  O   UNL     1       2.520   3.084  18.047  0.00  0.00    +0.000 OA
ATOM     27  H   UNL     1       4.726   3.565  20.264  0.00  0.00    +0.000 HD
BRANCH  24  28
ATOM     28  C   UNL     1       2.826   2.685  20.758  0.00  0.00    +0.000 C 
BRANCH  28  29
ATOM     29  C   UNL     1       1.963   3.755  21.441  0.00  0.00    +0.000 C 
BRANCH  29  31
ATOM     30  C   UNL     1       1.674   6.008  20.561  0.00  0.00    +0.000 C 
ATOM     31  N   UNL     1       2.581   5.074  21.230  0.00  0.00    +0.000 NA
ATOM     32  H   UNL     1       2.853   5.489  22.152  0.00  0.00    +0.000 HD
ENDBRANCH  29  31
ENDBRANCH  28  29
ENDBRANCH  24  28
ENDBRANCH   1  25
TORSDOF 5
ENDMDL
MODEL 5
REMARK VINA RESULT:      -7.5      8.393     11.283
REMARK  Name = 
REMARK  7 active torsions:
REMARK  status: ('A' for Active; 'I' for Inactive)
REMARK    1  A    between atoms: C_1  and  N_2
REMARK    2  A    between atoms: N_2  and  C_3
REMARK    3  A    between atoms: C_3  and  C_4
REMARK    4  A    between atoms: C_4  and  N_5
REMARK    5  A    between atoms: C_6  and  C_8
REMARK    6  A    between atoms: C_14  and  C_15
REMARK    7  A    between atoms: C_20  and  C_21
REMARK                            x       y       z     vdW  Elec       q    Type
REMARK                         _______ _______ _______ _____ _____    ______ ____
ROOT
ATOM      1  C   UNL     1       0.942  10.430  18.486  0.00  0.00    +0.000 A 
ATOM      2  C   UNL     1       1.701  11.622  18.544  0.00  0.00    +0.000 A 
ATOM      3  C   UNL     1       1.017  12.827  18.574  0.00  0.00    +0.000 A 
ATOM      4  C   UNL     1      -0.358  12.887  18.533  0.00  0.00    +0.000 A 
ATOM      5  N   UNL     1      -0.770  14.179  18.634  0.00  0.00    +0.000 N 
ATOM      6  C   UNL     1       0.349  14.931  18.692  0.00  0.00    +0.000 A 
ATOM      7  C   UNL     1       0.447  16.331  18.784  0.00  0.00    +0.000 A 
ATOM      8  C   UNL     1      -0.746  17.247  18.809  0.00  0.00    +0.000 C 
ATOM      9  C   UNL     1       1.744  16.883  18.846  0.00  0.00    +0.000 A 
ATOM     10  C   UNL     1       2.886  16.056  18.818  0.00  0.00    +0.000 A 
ATOM     11  C   UNL     1       2.757  14.658  18.726  0.00  0.00    +0.000 A 
ATOM     12  C   UNL     1       1.470  14.128  18.661  0.00  0.00    +0.000 A 
ATOM     13  C   UNL     1      -1.123  11.702  18.440  0.00  0.00    +0.000 A 
ATOM     14  N   UNL     1      -0.433  10.511  18.439  0.00  0.00    +0.000 NA
ATOM     15  H   UNL     1      -1.739  14.547  18.684  0.00  0.00    +0.000 HD
ENDROOT
BRANCH  13  16
ATOM     16  C   UNL     1      -2.626  11.711  18.352  0.00  0.00    +0.000 A 
ATOM     17  C   UNL     1      -3.402  12.162  19.446  0.00  0.00    +0.000 A 
ATOM     18  C   UNL     1      -4.795  12.135  19.413  0.00  0.00    +0.000 A 
ATOM     19  C   UNL     1      -5.456  11.677  18.279  0.00  0.00    +0.000 A 
ATOM     20 CL   UNL     1      -7.209  11.625  18.252  0.00  0.00    +0.000 Cl
ATOM     21  C   UNL     1      -4.720  11.266  17.166  0.00  0.00    +0.000 A 
ATOM     22  C   UNL     1      -3.317  11.286  17.186  0.00  0.00    +0.000 A 
ATOM     23 CL   UNL     1      -2.491  10.714  15.739  0.00  0.00    +0.000 Cl
ENDBRANCH  13  16
BRANCH   1  25
ATOM     24  N   UNL     1       1.780   8.326  19.576  0.00  0.00    +0.000 N 
ATOM     25  C   UNL     1       1.656   9.115  18.464  0.00  0.00    +0.000 C 
ATOM     26  O   UNL     1       2.123   8.732  17.399  0.00  0.00    +0.000 OA
ATOM     27  H   UNL     1       1.385   8.643  20.474  0.00  0.00    +0.000 HD
BRANCH  24  28
ATOM     28  C   UNL     1       2.406   7.003  19.528  0.00  0.00    +0.000 C 
BRANCH  28  29
ATOM     29  C   UNL     1       1.733   5.995  20.471  0.00  0.00    +0.000 C 
BRANCH  29  31
ATOM     30  C   UNL     1       2.071   3.784  21.435  0.00  0.00    +0.000 C 
ATOM     31  N   UNL     1       2.710   4.959  20.839  0.00  0.00    +0.000 NA
ATOM     32  H   UNL     1       3.234   4.647  19.988  0.00  0.00    +0.000 HD
ENDBRANCH  29  31
ENDBRANCH  28  29
ENDBRANCH  24  28
ENDBRANCH   1  25
TORSDOF 5
ENDMDL
MODEL 6
REMARK VINA RESULT:      -7.5      3.074      8.024
REMARK  Name = 
REMARK  7 active torsions:
REMARK  status: ('A' for Active; 'I' for Inactive)
REMARK    1  A    between atoms: C_1  and  N_2
REMARK    2  A    between atoms: N_2  and  C_3
REMARK    3  A    between atoms: C_3  and  C_4
REMARK    4  A    between atoms: C_4  and  N_5
REMARK    5  A    between atoms: C_6  and  C_8
REMARK    6  A    between atoms: C_14  and  C_15
REMARK    7  A    between atoms: C_20  and  C_21
REMARK                            x       y       z     vdW  Elec       q    Type
REMARK                         _______ _______ _______ _____ _____    ______ ____
ROOT
ATOM      1  C   UNL     1       7.136   6.357  17.352  0.00  0.00    +0.000 A 
ATOM      2  C   UNL     1       7.592   6.133  16.032  0.00  0.00    +0.000 A 
ATOM      3  C   UNL     1       6.831   5.313  15.213  0.00  0.00    +0.000 A 
ATOM      4  C   UNL     1       5.673   4.714  15.653  0.00  0.00    +0.000 A 
ATOM      5  N   UNL     1       5.096   4.015  14.639  0.00  0.00    +0.000 N 
ATOM      6  C   UNL     1       5.918   4.141  13.576  0.00  0.00    +0.000 A 
ATOM      7  C   UNL     1       5.766   3.585  12.293  0.00  0.00    +0.000 A 
ATOM      8  C   UNL     1       4.612   2.700  11.903  0.00  0.00    +0.000 C 
ATOM      9  C   UNL     1       6.764   3.880  11.340  0.00  0.00    +0.000 A 
ATOM     10  C   UNL     1       7.862   4.699  11.672  0.00  0.00    +0.000 A 
ATOM     11  C   UNL     1       7.989   5.242  12.963  0.00  0.00    +0.000 A 
ATOM     12  C   UNL     1       6.997   4.939  13.895  0.00  0.00    +0.000 A 
ATOM     13  C   UNL     1       5.228   4.905  16.982  0.00  0.00    +0.000 A 
ATOM     14  N   UNL     1       5.978   5.743  17.777  0.00  0.00    +0.000 NA
ATOM     15  H   UNL     1       4.195   3.500  14.638  0.00  0.00    +0.000 HD
ENDROOT
BRANCH  13  16
ATOM     16  C   UNL     1       3.992   4.243  17.528  0.00  0.00    +0.000 A 
ATOM     17  C   UNL     1       3.921   2.832  17.624  0.00  0.00    +0.000 A 
ATOM     18  C   UNL     1       2.771   2.189  18.078  0.00  0.00    +0.000 A 
ATOM     19  C   UNL     1       1.665   2.934  18.470  0.00  0.00    +0.000 A 
ATOM     20 CL   UNL     1       0.213   2.117  19.020  0.00  0.00    +0.000 Cl
ATOM     21  C   UNL     1       1.718   4.328  18.430  0.00  0.00    +0.000 A 
ATOM     22  C   UNL     1       2.869   4.990  17.973  0.00  0.00    +0.000 A 
ATOM     23 CL   UNL     1       2.813   6.749  17.933  0.00  0.00    +0.000 Cl
ENDBRANCH  13  16
BRANCH   1  25
ATOM     24  N   UNL     1       8.144   8.572  17.982  0.00  0.00    +0.000 N 
ATOM     25  C   UNL     1       7.933   7.246  18.254  0.00  0.00    +0.000 C 
ATOM     26  O   UNL     1       8.391   6.762  19.281  0.00  0.00    +0.000 OA
ATOM     27  H   UNL     1       7.758   8.984  17.120  0.00  0.00    +0.000 HD
BRANCH  24  28
ATOM     28  C   UNL     1       8.853   9.455  18.910  0.00  0.00    +0.000 C 
BRANCH  28  29
ATOM     29  C   UNL     1       9.224  10.803  18.278  0.00  0.00    +0.000 C 
BRANCH  29  31
ATOM     30  C   UNL     1       9.401  11.178  20.678  0.00  0.00    +0.000 C 
ATOM     31  N   UNL     1       9.451  11.788  19.348  0.00  0.00    +0.000 NA
ATOM     32  H   UNL     1      10.392  12.231  19.229  0.00  0.00    +0.000 HD
ENDBRANCH  29  31
ENDBRANCH  28  29
ENDBRANCH  24  28
ENDBRANCH   1  25
TORSDOF 5
ENDMDL
MODEL 7
REMARK VINA RESULT:      -7.3      0.927      1.255
REMARK  Name = 
REMARK  7 active torsions:
REMARK  status: ('A' for Active; 'I' for Inactive)
REMARK    1  A    between atoms: C_1  and  N_2
REMARK    2  A    between atoms: N_2  and  C_3
REMARK    3  A    between atoms: C_3  and  C_4
REMARK    4  A    between atoms: C_4  and  N_5
REMARK    5  A    between atoms: C_6  and  C_8
REMARK    6  A    between atoms: C_14  and  C_15
REMARK    7  A    between atoms: C_20  and  C_21
REMARK                            x       y       z     vdW  Elec       q    Type
REMARK                         _______ _______ _______ _____ _____    ______ ____
ROOT
ATOM      1  C   UNL     1       5.964   4.618  15.009  0.00  0.00    +0.000 A 
ATOM      2  C   UNL     1       4.800   4.068  15.596  0.00  0.00    +0.000 A 
ATOM      3  C   UNL     1       4.388   4.577  16.817  0.00  0.00    +0.000 A 
ATOM      4  C   UNL     1       5.080   5.575  17.465  0.00  0.00    +0.000 A 
ATOM      5  N   UNL     1       4.432   5.926  18.607  0.00  0.00    +0.000 N 
ATOM      6  C   UNL     1       3.356   5.115  18.697  0.00  0.00    +0.000 A 
ATOM      7  C   UNL     1       2.383   5.078  19.712  0.00  0.00    +0.000 A 
ATOM      8  C   UNL     1       2.413   5.969  20.925  0.00  0.00    +0.000 C 
ATOM      9  C   UNL     1       1.338   4.142  19.568  0.00  0.00    +0.000 A 
ATOM     10  C   UNL     1       1.281   3.286  18.449  0.00  0.00    +0.000 A 
ATOM     11  C   UNL     1       2.268   3.346  17.449  0.00  0.00    +0.000 A 
ATOM     12  C   UNL     1       3.296   4.273  17.607  0.00  0.00    +0.000 A 
ATOM     13  C   UNL     1       6.264   6.105  16.901  0.00  0.00    +0.000 A 
ATOM     14  N   UNL     1       6.648   5.611  15.675  0.00  0.00    +0.000 NA
ATOM     15  H   UNL     1       4.671   6.676  19.283  0.00  0.00    +0.000 HD
ENDROOT
BRANCH  13  16
ATOM     16  C   UNL     1       7.082   7.168  17.584  0.00  0.00    +0.000 A 
ATOM     17  C   UNL     1       6.981   8.519  17.175  0.00  0.00    +0.000 A 
ATOM     18  C   UNL     1       7.763   9.517  17.754  0.00  0.00    +0.000 A 
ATOM     19  C   UNL     1       8.654   9.201  18.773  0.00  0.00    +0.000 A 
ATOM     20 CL   UNL     1       9.650  10.458  19.483  0.00  0.00    +0.000 Cl
ATOM     21  C   UNL     1       8.745   7.885  19.230  0.00  0.00    +0.000 A 
ATOM     22  C   UNL     1       7.966   6.869  18.655  0.00  0.00    +0.000 A 
ATOM     23 CL   UNL     1       8.187   5.240  19.288  0.00  0.00    +0.000 Cl
ENDBRANCH  13  16
BRANCH   1  25
ATOM     24  N   UNL     1       5.994   2.898  13.175  0.00  0.00    +0.000 N 
ATOM     25  C   UNL     1       6.426   4.094  13.685  0.00  0.00    +0.000 C 
ATOM     26  O   UNL     1       7.203   4.779  13.035  0.00  0.00    +0.000 OA
ATOM     27  H   UNL     1       5.337   2.319  13.719  0.00  0.00    +0.000 HD
BRANCH  24  28
ATOM     28  C   UNL     1       6.384   2.432  11.844  0.00  0.00    +0.000 C 
BRANCH  28  29
ATOM     29  C   UNL     1       5.179   2.192  10.924  0.00  0.00    +0.000 C 
BRANCH  29  31
ATOM     30  C   UNL     1       3.170   3.325  10.139  0.00  0.00    +0.000 C 
ATOM     31  N   UNL     1       4.139   3.187  11.229  0.00  0.00    +0.000 NA
ATOM     32  H   UNL     1       3.618   2.903  12.092  0.00  0.00    +0.000 HD
ENDBRANCH  29  31
ENDBRANCH  28  29
ENDBRANCH  24  28
ENDBRANCH   1  25
TORSDOF 5
ENDMDL
MODEL 8
REMARK VINA RESULT:      -7.3      7.918     10.123
REMARK  Name = 
REMARK  7 active torsions:
REMARK  status: ('A' for Active; 'I' for Inactive)
REMARK    1  A    between atoms: C_1  and  N_2
REMARK    2  A    between atoms: N_2  and  C_3
REMARK    3  A    between atoms: C_3  and  C_4
REMARK    4  A    between atoms: C_4  and  N_5
REMARK    5  A    between atoms: C_6  and  C_8
REMARK    6  A    between atoms: C_14  and  C_15
REMARK    7  A    between atoms: C_20  and  C_21
REMARK                            x       y       z     vdW  Elec       q    Type
REMARK                         _______ _______ _______ _____ _____    ______ ____
ROOT
ATOM      1  C   UNL     1      -1.707  10.928  17.269  0.00  0.00    +0.000 A 
ATOM      2  C   UNL     1      -1.513  12.233  17.777  0.00  0.00    +0.000 A 
ATOM      3  C   UNL     1      -0.403  12.462  18.575  0.00  0.00    +0.000 A 
ATOM      4  C   UNL     1       0.489  11.462  18.889  0.00  0.00    +0.000 A 
ATOM      5  N   UNL     1       1.510  11.965  19.632  0.00  0.00    +0.000 N 
ATOM      6  C   UNL     1       1.233  13.272  19.821  0.00  0.00    +0.000 A 
ATOM      7  C   UNL     1       1.982  14.221  20.541  0.00  0.00    +0.000 A 
ATOM      8  C   UNL     1       3.259  13.893  21.267  0.00  0.00    +0.000 C 
ATOM      9  C   UNL     1       1.485  15.540  20.578  0.00  0.00    +0.000 A 
ATOM     10  C   UNL     1       0.288  15.883  19.916  0.00  0.00    +0.000 A 
ATOM     11  C   UNL     1      -0.440  14.913  19.203  0.00  0.00    +0.000 A 
ATOM     12  C   UNL     1       0.061  13.613  19.178  0.00  0.00    +0.000 A 
ATOM     13  C   UNL     1       0.284  10.145  18.414  0.00  0.00    +0.000 A 
ATOM     14  N   UNL     1      -0.807   9.938  17.600  0.00  0.00    +0.000 NA
ATOM     15  H   UNL     1       2.359  11.479  19.979  0.00  0.00    +0.000 HD
ENDROOT
BRANCH  13  16
ATOM     16  C   UNL     1       1.204   9.005  18.759  0.00  0.00    +0.000 A 
ATOM     17  C   UNL     1       2.111   8.504  17.795  0.00  0.00    +0.000 A 
ATOM     18  C   UNL     1       2.940   7.417  18.069  0.00  0.00    +0.000 A 
ATOM     19  C   UNL     1       2.904   6.812  19.319  0.00  0.00    +0.000 A 
ATOM     20 CL   UNL     1       3.935   5.431  19.651  0.00  0.00    +0.000 Cl
ATOM     21  C   UNL     1       2.053   7.310  20.307  0.00  0.00    +0.000 A 
ATOM     22  C   UNL     1       1.211   8.403  20.045  0.00  0.00    +0.000 A 
ATOM     23 CL   UNL     1       0.155   8.927  21.353  0.00  0.00    +0.000 Cl
ENDBRANCH  13  16
BRANCH   1  25
ATOM     24  N   UNL     1      -2.793  10.544  15.035  0.00  0.00    +0.000 N 
ATOM     25  C   UNL     1      -2.892  10.656  16.396  0.00  0.00    +0.000 C 
ATOM     26  O   UNL     1      -3.981  10.510  16.935  0.00  0.00    +0.000 OA
ATOM     27  H   UNL     1      -1.877  10.664  14.578  0.00  0.00    +0.000 HD
BRANCH  24  28
ATOM     28  C   UNL     1      -3.941  10.195  14.196  0.00  0.00    +0.000 C 
BRANCH  28  29
ATOM     29  C   UNL     1      -3.526   9.592  12.847  0.00  0.00    +0.000 C 
BRANCH  29  31
ATOM     30  C   UNL     1      -5.579   9.463  11.541  0.00  0.00    +0.000 C 
ATOM     31  N   UNL     1      -4.338  10.202  11.781  0.00  0.00    +0.000 NA
ATOM     32  H   UNL     1      -4.590  11.183  12.045  0.00  0.00    +0.000 HD
ENDBRANCH  29  31
ENDBRANCH  28  29
ENDBRANCH  24  28
ENDBRANCH   1  25
TORSDOF 5
ENDMDL
MODEL 9
REMARK VINA RESULT:      -7.3      8.403     11.244
REMARK  Name = 
REMARK  7 active torsions:
REMARK  status: ('A' for Active; 'I' for Inactive)
REMARK    1  A    between atoms: C_1  and  N_2
REMARK    2  A    between atoms: N_2  and  C_3
REMARK    3  A    between atoms: C_3  and  C_4
REMARK    4  A    between atoms: C_4  and  N_5
REMARK    5  A    between atoms: C_6  and  C_8
REMARK    6  A    between atoms: C_14  and  C_15
REMARK    7  A    between atoms: C_20  and  C_21
REMARK                            x       y       z     vdW  Elec       q    Type
REMARK                         _______ _______ _______ _____ _____    ______ ____
ROOT
ATOM      1  C   UNL     1       1.000  10.473  18.475  0.00  0.00    +0.000 A 
ATOM      2  C   UNL     1       1.756  11.666  18.540  0.00  0.00    +0.000 A 
ATOM      3  C   UNL     1       1.068  12.869  18.569  0.00  0.00    +0.000 A 
ATOM      4  C   UNL     1      -0.306  12.927  18.522  0.00  0.00    +0.000 A 
ATOM      5  N   UNL     1      -0.722  14.217  18.623  0.00  0.00    +0.000 N 
ATOM      6  C   UNL     1       0.395  14.972  18.689  0.00  0.00    +0.000 A 
ATOM      7  C   UNL     1       0.490  16.372  18.785  0.00  0.00    +0.000 A 
ATOM      8  C   UNL     1      -0.706  17.285  18.806  0.00  0.00    +0.000 C 
ATOM      9  C   UNL     1       1.785  16.927  18.855  0.00  0.00    +0.000 A 
ATOM     10  C   UNL     1       2.928  16.102  18.830  0.00  0.00    +0.000 A 
ATOM     11  C   UNL     1       2.804  14.705  18.734  0.00  0.00    +0.000 A 
ATOM     12  C   UNL     1       1.518  14.171  18.662  0.00  0.00    +0.000 A 
ATOM     13  C   UNL     1      -1.069  11.740  18.422  0.00  0.00    +0.000 A 
ATOM     14  N   UNL     1      -0.375  10.550  18.422  0.00  0.00    +0.000 NA
ATOM     15  H   UNL     1      -1.692  14.583  18.670  0.00  0.00    +0.000 HD
ENDROOT
BRANCH  13  16
ATOM     16  C   UNL     1      -2.571  11.745  18.327  0.00  0.00    +0.000 A 
ATOM     17  C   UNL     1      -3.211  11.371  17.121  0.00  0.00    +0.000 A 
ATOM     18  C   UNL     1      -4.598  11.415  16.988  0.00  0.00    +0.000 A 
ATOM     19  C   UNL     1      -5.388  11.812  18.059  0.00  0.00    +0.000 A 
ATOM     20 CL   UNL     1      -7.132  11.885  17.878  0.00  0.00    +0.000 Cl
ATOM     21  C   UNL     1      -4.791  12.145  19.276  0.00  0.00    +0.000 A 
ATOM     22  C   UNL     1      -3.395  12.108  19.425  0.00  0.00    +0.000 A 
ATOM     23 CL   UNL     1      -2.748  12.580  20.993  0.00  0.00    +0.000 Cl
ENDBRANCH  13  16
BRANCH   1  25
ATOM     24  N   UNL     1       1.754   8.323  19.537  0.00  0.00    +0.000 N 
ATOM     25  C   UNL     1       1.716   9.159  18.453  0.00  0.00    +0.000 C 
ATOM     26  O   UNL     1       2.268   8.822  17.414  0.00  0.00    +0.000 OA
ATOM     27  H   UNL     1       1.288   8.601  20.414  0.00  0.00    +0.000 HD
BRANCH  24  28
ATOM     28  C   UNL     1       2.385   7.003  19.482  0.00  0.00    +0.000 C 
BRANCH  28  29
ATOM     29  C   UNL     1       1.787   6.018  20.497  0.00  0.00    +0.000 C 
BRANCH  29  31
ATOM     30  C   UNL     1       3.679   4.745  19.641  0.00  0.00    +0.000 C 
ATOM     31  N   UNL     1       2.769   4.956  20.768  0.00  0.00    +0.000 NA
ATOM     32  H   UNL     1       3.343   5.210  21.606  0.00  0.00    +0.000 HD
ENDBRANCH  29  31
ENDBRANCH  28  29
ENDBRANCH  24  28
ENDBRANCH   1  25
TORSDOF 5
ENDMDL
