MODEL 1
REMARK VINA RESULT:      -8.4      0.000      0.000
REMARK  Name = 
REMARK  9 active torsions:
REMARK  status: ('A' for Active; 'I' for Inactive)
REMARK    1  A    between atoms: C_1  and  O_2
REMARK    2  A    between atoms: O_2  and  C_3
REMARK    3  A    between atoms: C_6  and  C_7
REMARK    4  A    between atoms: C_7  and  C_9
REMARK    5  A    between atoms: C_10  and  C_11
REMARK    6  A    between atoms: N_13  and  C_14
REMARK    7  A    between atoms: C_21  and  C_22
REMARK    8  A    between atoms: C_29  and  O_30
REMARK    9  A    between atoms: O_30  and  C_31
REMARK                            x       y       z     vdW  Elec       q    Type
REMARK                         _______ _______ _______ _____ _____    ______ ____
ROOT
ATOM      1  C   UNL     1       3.511   6.914  17.972  0.00  0.00    +0.000 A 
ATOM      2  C   UNL     1       2.986   8.110  18.394  0.00  0.00    +0.000 A 
ATOM      3  N   UNL     1       2.076   7.816  19.384  0.00  0.00    +0.000 N 
ATOM      4  N   UNL     1       2.011   6.481  19.617  0.00  0.00    +0.000 NA
ATOM      5  C   UNL     1       2.846   5.914  18.732  0.00  0.00    +0.000 A 
ENDROOT
BRANCH   5   6
ATOM      6  C   UNL     1       3.004   4.458  18.671  0.00  0.00    +0.000 A 
ATOM      7  C   UNL     1       2.347   3.706  17.685  0.00  0.00    +0.000 A 
ATOM      8  C   UNL     1       2.511   2.321  17.614  0.00  0.00    +0.000 A 
ATOM      9  C   UNL     1       3.327   1.671  18.536  0.00  0.00    +0.000 A 
ATOM     10  C   UNL     1       3.968   2.407  19.531  0.00  0.00    +0.000 A 
ATOM     11 CL   UNL     1       4.972   1.598  20.672  0.00  0.00    +0.000 Cl
ATOM     12  C   UNL     1       3.812   3.790  19.606  0.00  0.00    +0.000 A 
ENDBRANCH   5   6
BRANCH   3  13
ATOM     13  C   UNL     1       1.284   8.733  20.135  0.00  0.00    +0.000 A 
ATOM     14  C   UNL     1       1.054   8.542  21.503  0.00  0.00    +0.000 A 
ATOM     15  C   UNL     1       0.266   9.452  22.214  0.00  0.00    +0.000 A 
ATOM     16  C   UNL     1      -0.295  10.552  21.567  0.00  0.00    +0.000 A 
ATOM     17  C   UNL     1      -0.067  10.752  20.207  0.00  0.00    +0.000 A 
ATOM     18  C   UNL     1       0.723   9.850  19.490  0.00  0.00    +0.000 A 
ENDBRANCH   3  13
BRANCH   1  20
ATOM     19  C   UNL     1       5.678   6.082  17.296  0.00  0.00    +0.000 C 
ATOM     20  C   UNL     1       4.569   6.787  17.025  0.00  0.00    +0.000 C 
BRANCH  19  21
ATOM     21  C   UNL     1       6.768   5.912  16.288  0.00  0.00    +0.000 C 
ATOM     22  O   UNL     1       7.855   6.452  16.451  0.00  0.00    +0.000 OA
BRANCH  21  26
ATOM     23  C   UNL     1       5.796   3.471  12.850  0.00  0.00    +0.000 A 
ATOM     24  C   UNL     1       4.992   3.457  13.984  0.00  0.00    +0.000 A 
ATOM     25  C   UNL     1       5.328   4.223  15.101  0.00  0.00    +0.000 A 
ATOM     26  C   UNL     1       6.459   5.057  15.089  0.00  0.00    +0.000 A 
ATOM     27  C   UNL     1       7.282   5.072  13.943  0.00  0.00    +0.000 A 
ATOM     28  C   UNL     1       6.945   4.265  12.840  0.00  0.00    +0.000 A 
BRANCH  23  30
ATOM     29  C   UNL     1       4.170   3.096  11.151  0.00  0.00    +0.000 C 
ATOM     30  O   UNL     1       5.351   2.682  11.827  0.00  0.00    +0.000 OA
ENDBRANCH  23  30
BRANCH  27  31
ATOM     31  O   UNL     1       8.367   5.913  13.947  0.00  0.00    +0.000 OA
ATOM     32  C   UNL     1       9.177   5.971  12.778  0.00  0.00    +0.000 C 
ENDBRANCH  27  31
ENDBRANCH  21  26
ENDBRANCH  19  21
ENDBRANCH   1  20
TORSDOF 7
ENDMDL
MODEL 2
REMARK VINA RESULT:      -8.0      5.263     11.077
REMARK  Name = 
REMARK  9 active torsions:
REMARK  status: ('A' for Active; 'I' for Inactive)
REMARK    1  A    between atoms: C_1  and  O_2
REMARK    2  A    between atoms: O_2  and  C_3
REMARK    3  A    between atoms: C_6  and  C_7
REMARK    4  A    between atoms: C_7  and  C_9
REMARK    5  A    between atoms: C_10  and  C_11
REMARK    6  A    between atoms: N_13  and  C_14
REMARK    7  A    between atoms: C_21  and  C_22
REMARK    8  A    between atoms: C_29  and  O_30
REMARK    9  A    between atoms: O_30  and  C_31
REMARK                            x       y       z     vdW  Elec       q    Type
REMARK                         _______ _______ _______ _____ _____    ______ ____
ROOT
ATOM      1  C   UNL     1       1.366   8.581  20.190  0.00  0.00    +0.000 A 
ATOM      2  C   UNL     1       2.112   7.449  19.971  0.00  0.00    +0.000 A 
ATOM      3  N   UNL     1       2.393   7.414  18.624  0.00  0.00    +0.000 N 
ATOM      4  N   UNL     1       1.866   8.486  17.979  0.00  0.00    +0.000 NA
ATOM      5  C   UNL     1       1.197   9.182  18.913  0.00  0.00    +0.000 A 
ENDROOT
BRANCH   5   6
ATOM      6  C   UNL     1       0.463  10.401  18.562  0.00  0.00    +0.000 A 
ATOM      7  C   UNL     1       1.058  11.664  18.711  0.00  0.00    +0.000 A 
ATOM      8  C   UNL     1       0.367  12.825  18.359  0.00  0.00    +0.000 A 
ATOM      9  C   UNL     1      -0.932  12.737  17.865  0.00  0.00    +0.000 A 
ATOM     10  C   UNL     1      -1.538  11.488  17.732  0.00  0.00    +0.000 A 
ATOM     11 CL   UNL     1      -3.145  11.385  17.124  0.00  0.00    +0.000 Cl
ATOM     12  C   UNL     1      -0.852  10.325  18.077  0.00  0.00    +0.000 A 
ENDBRANCH   5   6
BRANCH   3  13
ATOM     13  C   UNL     1       3.152   6.435  17.921  0.00  0.00    +0.000 A 
ATOM     14  C   UNL     1       2.781   5.084  17.930  0.00  0.00    +0.000 A 
ATOM     15  C   UNL     1       3.548   4.142  17.240  0.00  0.00    +0.000 A 
ATOM     16  C   UNL     1       4.687   4.540  16.539  0.00  0.00    +0.000 A 
ATOM     17  C   UNL     1       5.060   5.882  16.520  0.00  0.00    +0.000 A 
ATOM     18  C   UNL     1       4.295   6.831  17.203  0.00  0.00    +0.000 A 
ENDBRANCH   3  13
BRANCH   1  20
ATOM     19  C   UNL     1       0.055  10.024  21.619  0.00  0.00    +0.000 C 
ATOM     20  C   UNL     1       0.956   9.041  21.475  0.00  0.00    +0.000 C 
BRANCH  19  21
ATOM     21  C   UNL     1      -0.407  10.476  22.966  0.00  0.00    +0.000 C 
ATOM     22  O   UNL     1      -0.069   9.871  23.975  0.00  0.00    +0.000 OA
BRANCH  21  26
ATOM     23  C   UNL     1      -2.981  13.949  23.172  0.00  0.00    +0.000 A 
ATOM     24  C   UNL     1      -3.422  12.707  23.617  0.00  0.00    +0.000 A 
ATOM     25  C   UNL     1      -2.598  11.585  23.518  0.00  0.00    +0.000 A 
ATOM     26  C   UNL     1      -1.292  11.693  23.010  0.00  0.00    +0.000 A 
ATOM     27  C   UNL     1      -0.840  12.949  22.553  0.00  0.00    +0.000 A 
ATOM     28  C   UNL     1      -1.700  14.061  22.628  0.00  0.00    +0.000 A 
BRANCH  23  30
ATOM     29  C   UNL     1      -3.927  15.603  24.601  0.00  0.00    +0.000 C 
ATOM     30  O   UNL     1      -3.883  14.964  23.331  0.00  0.00    +0.000 OA
ENDBRANCH  23  30
BRANCH  27  31
ATOM     31  O   UNL     1       0.447  13.033  22.084  0.00  0.00    +0.000 OA
ATOM     32  C   UNL     1       0.941  14.311  21.698  0.00  0.00    +0.000 C 
ENDBRANCH  27  31
ENDBRANCH  21  26
ENDBRANCH  19  21
ENDBRANCH   1  20
TORSDOF 7
ENDMDL
MODEL 3
REMARK VINA RESULT:      -8.0      2.016      3.017
REMARK  Name = 
REMARK  9 active torsions:
REMARK  status: ('A' for Active; 'I' for Inactive)
REMARK    1  A    between atoms: C_1  and  O_2
REMARK    2  A    between atoms: O_2  and  C_3
REMARK    3  A    between atoms: C_6  and  C_7
REMARK    4  A    between atoms: C_7  and  C_9
REMARK    5  A    between atoms: C_10  and  C_11
REMARK    6  A    between atoms: N_13  and  C_14
REMARK    7  A    between atoms: C_21  and  C_22
REMARK    8  A    between atoms: C_29  and  O_30
REMARK    9  A    between atoms: O_30  and  C_31
REMARK                            x       y       z     vdW  Elec       q    Type
REMARK                         _______ _______ _______ _____ _____    ______ ____
ROOT
ATOM      1  C   UNL     1       3.220   7.188  18.138  0.00  0.00    +0.000 A 
ATOM      2  C   UNL     1       2.958   8.504  17.850  0.00  0.00    +0.000 A 
ATOM      3  N   UNL     1       1.866   8.865  18.608  0.00  0.00    +0.000 N 
ATOM      4  N   UNL     1       1.433   7.833  19.376  0.00  0.00    +0.000 NA
ATOM      5  C   UNL     1       2.219   6.790  19.066  0.00  0.00    +0.000 A 
ENDROOT
BRANCH   5   6
ATOM      6  C   UNL     1       2.012   5.480  19.687  0.00  0.00    +0.000 A 
ATOM      7  C   UNL     1       2.438   5.235  21.003  0.00  0.00    +0.000 A 
ATOM      8  C   UNL     1       2.225   3.992  21.604  0.00  0.00    +0.000 A 
ATOM      9  C   UNL     1       1.593   2.976  20.891  0.00  0.00    +0.000 A 
ATOM     10  C   UNL     1       1.185   3.204  19.577  0.00  0.00    +0.000 A 
ATOM     11 CL   UNL     1       0.408   1.944  18.700  0.00  0.00    +0.000 Cl
ATOM     12  C   UNL     1       1.391   4.443  18.973  0.00  0.00    +0.000 A 
ENDBRANCH   5   6
BRANCH   3  13
ATOM     13  C   UNL     1       1.229  10.138  18.660  0.00  0.00    +0.000 A 
ATOM     14  C   UNL     1       1.955  11.322  18.473  0.00  0.00    +0.000 A 
ATOM     15  C   UNL     1       1.307  12.558  18.539  0.00  0.00    +0.000 A 
ATOM     16  C   UNL     1      -0.063  12.622  18.789  0.00  0.00    +0.000 A 
ATOM     17  C   UNL     1      -0.793  11.450  18.971  0.00  0.00    +0.000 A 
ATOM     18  C   UNL     1      -0.155  10.209  18.903  0.00  0.00    +0.000 A 
ENDBRANCH   3  13
BRANCH   1  20
ATOM     19  C   UNL     1       5.292   5.982  18.453  0.00  0.00    +0.000 C 
ATOM     20  C   UNL     1       4.340   6.461  17.638  0.00  0.00    +0.000 C 
BRANCH  19  21
ATOM     21  C   UNL     1       6.442   5.183  17.934  0.00  0.00    +0.000 C 
ATOM     22  O   UNL     1       7.373   4.882  18.671  0.00  0.00    +0.000 OA
BRANCH  21  26
ATOM     23  C   UNL     1       6.386   4.023  13.765  0.00  0.00    +0.000 A 
ATOM     24  C   UNL     1       7.220   5.044  14.210  0.00  0.00    +0.000 A 
ATOM     25  C   UNL     1       7.210   5.434  15.550  0.00  0.00    +0.000 A 
ATOM     26  C   UNL     1       6.392   4.776  16.485  0.00  0.00    +0.000 A 
ATOM     27  C   UNL     1       5.541   3.744  16.040  0.00  0.00    +0.000 A 
ATOM     28  C   UNL     1       5.540   3.390  14.677  0.00  0.00    +0.000 A 
BRANCH  23  30
ATOM     29  C   UNL     1       5.522   2.872  11.867  0.00  0.00    +0.000 C 
ATOM     30  O   UNL     1       6.499   3.737  12.434  0.00  0.00    +0.000 OA
ENDBRANCH  23  30
BRANCH  27  31
ATOM     31  O   UNL     1       4.770   3.102  16.976  0.00  0.00    +0.000 OA
ATOM     32  C   UNL     1       3.367   3.020  16.753  0.00  0.00    +0.000 C 
ENDBRANCH  27  31
ENDBRANCH  21  26
ENDBRANCH  19  21
ENDBRANCH   1  20
TORSDOF 7
ENDMDL
MODEL 4
REMARK VINA RESULT:      -7.9      1.485      1.956
REMARK  Name = 
REMARK  9 active torsions:
REMARK  status: ('A' for Active; 'I' for Inactive)
REMARK    1  A    between atoms: C_1  and  O_2
REMARK    2  A    between atoms: O_2  and  C_3
REMARK    3  A    between atoms: C_6  and  C_7
REMARK    4  A    between atoms: C_7  and  C_9
REMARK    5  A    between atoms: C_10  and  C_11
REMARK    6  A    between atoms: N_13  and  C_14
REMARK    7  A    between atoms: C_21  and  C_22
REMARK    8  A    between atoms: C_29  and  O_30
REMARK    9  A    between atoms: O_30  and  C_31
REMARK                            x       y       z     vdW  Elec       q    Type
REMARK                         _______ _______ _______ _____ _____    ______ ____
ROOT
ATOM      1  C   UNL     1       3.507   6.946  17.867  0.00  0.00    +0.000 A 
ATOM      2  C   UNL     1       3.227   8.267  17.621  0.00  0.00    +0.000 A 
ATOM      3  N   UNL     1       2.116   8.583  18.371  0.00  0.00    +0.000 N 
ATOM      4  N   UNL     1       1.687   7.518  19.094  0.00  0.00    +0.000 NA
ATOM      5  C   UNL     1       2.497   6.500  18.763  0.00  0.00    +0.000 A 
ENDROOT
BRANCH   5   6
ATOM      6  C   UNL     1       2.302   5.165  19.335  0.00  0.00    +0.000 A 
ATOM      7  C   UNL     1       1.550   4.990  20.507  0.00  0.00    +0.000 A 
ATOM      8  C   UNL     1       1.347   3.717  21.044  0.00  0.00    +0.000 A 
ATOM      9  C   UNL     1       1.904   2.604  20.419  0.00  0.00    +0.000 A 
ATOM     10  C   UNL     1       2.669   2.770  19.264  0.00  0.00    +0.000 A 
ATOM     11 CL   UNL     1       3.358   1.392  18.498  0.00  0.00    +0.000 Cl
ATOM     12  C   UNL     1       2.872   4.038  18.722  0.00  0.00    +0.000 A 
ENDBRANCH   5   6
BRANCH   3  13
ATOM     13  C   UNL     1       1.456   9.843  18.456  0.00  0.00    +0.000 A 
ATOM     14  C   UNL     1       2.171  11.045  18.368  0.00  0.00    +0.000 A 
ATOM     15  C   UNL     1       1.500  12.267  18.463  0.00  0.00    +0.000 A 
ATOM     16  C   UNL     1       0.118  12.298  18.645  0.00  0.00    +0.000 A 
ATOM     17  C   UNL     1      -0.601  11.108  18.728  0.00  0.00    +0.000 A 
ATOM     18  C   UNL     1       0.061   9.882  18.629  0.00  0.00    +0.000 A 
ENDBRANCH   3  13
BRANCH   1  20
ATOM     19  C   UNL     1       5.219   6.595  16.197  0.00  0.00    +0.000 C 
ATOM     20  C   UNL     1       4.647   6.256  17.363  0.00  0.00    +0.000 C 
BRANCH  19  21
ATOM     21  C   UNL     1       6.441   5.901  15.689  0.00  0.00    +0.000 C 
ATOM     22  O   UNL     1       7.529   6.090  16.219  0.00  0.00    +0.000 OA
BRANCH  21  26
ATOM     23  C   UNL     1       5.841   3.264  12.311  0.00  0.00    +0.000 A 
ATOM     24  C   UNL     1       4.876   3.378  13.306  0.00  0.00    +0.000 A 
ATOM     25  C   UNL     1       5.090   4.207  14.409  0.00  0.00    +0.000 A 
ATOM     26  C   UNL     1       6.262   4.976  14.515  0.00  0.00    +0.000 A 
ATOM     27  C   UNL     1       7.246   4.861  13.511  0.00  0.00    +0.000 A 
ATOM     28  C   UNL     1       7.026   3.993  12.425  0.00  0.00    +0.000 A 
BRANCH  23  30
ATOM     29  C   UNL     1       6.147   1.158  11.242  0.00  0.00    +0.000 C 
ATOM     30  O   UNL     1       5.504   2.426  11.286  0.00  0.00    +0.000 OA
ENDBRANCH  23  30
BRANCH  27  31
ATOM     31  O   UNL     1       8.369   5.641  13.627  0.00  0.00    +0.000 OA
ATOM     32  C   UNL     1       8.893   6.244  12.449  0.00  0.00    +0.000 C 
ENDBRANCH  27  31
ENDBRANCH  21  26
ENDBRANCH  19  21
ENDBRANCH   1  20
TORSDOF 7
ENDMDL
MODEL 5
REMARK VINA RESULT:      -7.8      3.403      8.593
REMARK  Name = 
REMARK  9 active torsions:
REMARK  status: ('A' for Active; 'I' for Inactive)
REMARK    1  A    between atoms: C_1  and  O_2
REMARK    2  A    between atoms: O_2  and  C_3
REMARK    3  A    between atoms: C_6  and  C_7
REMARK    4  A    between atoms: C_7  and  C_9
REMARK    5  A    between atoms: C_10  and  C_11
REMARK    6  A    between atoms: N_13  and  C_14
REMARK    7  A    between atoms: C_21  and  C_22
REMARK    8  A    between atoms: C_29  and  O_30
REMARK    9  A    between atoms: O_30  and  C_31
REMARK                            x       y       z     vdW  Elec       q    Type
REMARK                         _______ _______ _______ _____ _____    ______ ____
ROOT
ATOM      1  C   UNL     1       4.376   6.591  16.743  0.00  0.00    +0.000 A 
ATOM      2  C   UNL     1       5.117   6.521  15.590  0.00  0.00    +0.000 A 
ATOM      3  N   UNL     1       5.210   5.188  15.259  0.00  0.00    +0.000 N 
ATOM      4  N   UNL     1       4.545   4.409  16.149  0.00  0.00    +0.000 NA
ATOM      5  C   UNL     1       4.070   5.246  17.085  0.00  0.00    +0.000 A 
ENDROOT
BRANCH   5   6
ATOM      6  C   UNL     1       3.320   4.740  18.238  0.00  0.00    +0.000 A 
ATOM      7  C   UNL     1       3.593   5.207  19.533  0.00  0.00    +0.000 A 
ATOM      8  C   UNL     1       2.867   4.740  20.630  0.00  0.00    +0.000 A 
ATOM      9  C   UNL     1       1.865   3.790  20.445  0.00  0.00    +0.000 A 
ATOM     10  C   UNL     1       1.600   3.305  19.165  0.00  0.00    +0.000 A 
ATOM     11 CL   UNL     1       0.364   2.129  18.943  0.00  0.00    +0.000 Cl
ATOM     12  C   UNL     1       2.319   3.771  18.065  0.00  0.00    +0.000 A 
ENDBRANCH   5   6
BRANCH   3  13
ATOM     13  C   UNL     1       5.873   4.617  14.134  0.00  0.00    +0.000 A 
ATOM     14  C   UNL     1       5.262   3.623  13.359  0.00  0.00    +0.000 A 
ATOM     15  C   UNL     1       5.939   3.074  12.266  0.00  0.00    +0.000 A 
ATOM     16  C   UNL     1       7.222   3.512  11.941  0.00  0.00    +0.000 A 
ATOM     17  C   UNL     1       7.834   4.504  12.703  0.00  0.00    +0.000 A 
ATOM     18  C   UNL     1       7.163   5.062  13.794  0.00  0.00    +0.000 A 
ENDBRANCH   3  13
BRANCH   1  20
ATOM     19  C   UNL     1       2.706   8.267  17.243  0.00  0.00    +0.000 C 
ATOM     20  C   UNL     1       3.961   7.806  17.362  0.00  0.00    +0.000 C 
BRANCH  19  21
ATOM     21  C   UNL     1       2.259   9.517  17.927  0.00  0.00    +0.000 C 
ATOM     22  O   UNL     1       2.580  10.615  17.490  0.00  0.00    +0.000 OA
BRANCH  21  26
ATOM     23  C   UNL     1      -0.114   9.041  21.515  0.00  0.00    +0.000 A 
ATOM     24  C   UNL     1       1.054   8.308  21.330  0.00  0.00    +0.000 A 
ATOM     25  C   UNL     1       1.798   8.444  20.157  0.00  0.00    +0.000 A 
ATOM     26  C   UNL     1       1.408   9.353  19.158  0.00  0.00    +0.000 A 
ATOM     27  C   UNL     1       0.222  10.095  19.337  0.00  0.00    +0.000 A 
ATOM     28  C   UNL     1      -0.533   9.918  20.513  0.00  0.00    +0.000 A 
BRANCH  23  30
ATOM     29  C   UNL     1      -1.040   9.955  23.510  0.00  0.00    +0.000 C 
ATOM     30  O   UNL     1      -0.742   8.819  22.708  0.00  0.00    +0.000 OA
ENDBRANCH  23  30
BRANCH  27  31
ATOM     31  O   UNL     1      -0.123  10.994  18.359  0.00  0.00    +0.000 OA
ATOM     32  C   UNL     1      -0.697  12.234  18.756  0.00  0.00    +0.000 C 
ENDBRANCH  27  31
ENDBRANCH  21  26
ENDBRANCH  19  21
ENDBRANCH   1  20
TORSDOF 7
ENDMDL
MODEL 6
REMARK VINA RESULT:      -7.8      1.998      2.593
REMARK  Name = 
REMARK  9 active torsions:
REMARK  status: ('A' for Active; 'I' for Inactive)
REMARK    1  A    between atoms: C_1  and  O_2
REMARK    2  A    between atoms: O_2  and  C_3
REMARK    3  A    between atoms: C_6  and  C_7
REMARK    4  A    between atoms: C_7  and  C_9
REMARK    5  A    between atoms: C_10  and  C_11
REMARK    6  A    between atoms: N_13  and  C_14
REMARK    7  A    between atoms: C_21  and  C_22
REMARK    8  A    between atoms: C_29  and  O_30
REMARK    9  A    between atoms: O_30  and  C_31
REMARK                            x       y       z     vdW  Elec       q    Type
REMARK                         _______ _______ _______ _____ _____    ______ ____
ROOT
ATOM      1  C   UNL     1       3.149   7.162  18.223  0.00  0.00    +0.000 A 
ATOM      2  C   UNL     1       2.864   8.471  17.928  0.00  0.00    +0.000 A 
ATOM      3  N   UNL     1       1.731   8.801  18.637  0.00  0.00    +0.000 N 
ATOM      4  N   UNL     1       1.292   7.755  19.383  0.00  0.00    +0.000 NA
ATOM      5  C   UNL     1       2.119   6.735  19.105  0.00  0.00    +0.000 A 
ENDROOT
BRANCH   5   6
ATOM      6  C   UNL     1       1.919   5.417  19.715  0.00  0.00    +0.000 A 
ATOM      7  C   UNL     1       2.271   5.186  21.054  0.00  0.00    +0.000 A 
ATOM      8  C   UNL     1       2.065   3.936  21.642  0.00  0.00    +0.000 A 
ATOM      9  C   UNL     1       1.514   2.899  20.892  0.00  0.00    +0.000 A 
ATOM     10  C   UNL     1       1.179   3.114  19.556  0.00  0.00    +0.000 A 
ATOM     11 CL   UNL     1       0.502   1.829  18.634  0.00  0.00    +0.000 Cl
ATOM     12  C   UNL     1       1.379   4.361  18.964  0.00  0.00    +0.000 A 
ENDBRANCH   5   6
BRANCH   3  13
ATOM     13  C   UNL     1       1.059  10.057  18.664  0.00  0.00    +0.000 A 
ATOM     14  C   UNL     1       1.768  11.262  18.578  0.00  0.00    +0.000 A 
ATOM     15  C   UNL     1       1.085  12.480  18.617  0.00  0.00    +0.000 A 
ATOM     16  C   UNL     1      -0.304  12.505  18.739  0.00  0.00    +0.000 A 
ATOM     17  C   UNL     1      -1.017  11.311  18.819  0.00  0.00    +0.000 A 
ATOM     18  C   UNL     1      -0.343  10.088  18.777  0.00  0.00    +0.000 A 
ENDBRANCH   3  13
BRANCH   1  20
ATOM     19  C   UNL     1       4.988   5.632  18.573  0.00  0.00    +0.000 C 
ATOM     20  C   UNL     1       4.308   6.466  17.771  0.00  0.00    +0.000 C 
BRANCH  19  21
ATOM     21  C   UNL     1       6.177   4.869  18.086  0.00  0.00    +0.000 C 
ATOM     22  O   UNL     1       7.023   4.468  18.875  0.00  0.00    +0.000 OA
BRANCH  21  26
ATOM     23  C   UNL     1       6.363   4.160  13.822  0.00  0.00    +0.000 A 
ATOM     24  C   UNL     1       5.509   3.418  14.631  0.00  0.00    +0.000 A 
ATOM     25  C   UNL     1       5.477   3.631  16.010  0.00  0.00    +0.000 A 
ATOM     26  C   UNL     1       6.272   4.627  16.604  0.00  0.00    +0.000 A 
ATOM     27  C   UNL     1       7.144   5.379  15.789  0.00  0.00    +0.000 A 
ATOM     28  C   UNL     1       7.187   5.124  14.405  0.00  0.00    +0.000 A 
BRANCH  23  30
ATOM     29  C   UNL     1       5.051   3.365  12.000  0.00  0.00    +0.000 C 
ATOM     30  O   UNL     1       6.292   3.856  12.491  0.00  0.00    +0.000 OA
ENDBRANCH  23  30
BRANCH  27  31
ATOM     31  O   UNL     1       7.891   6.361  16.390  0.00  0.00    +0.000 OA
ATOM     32  C   UNL     1       7.233   7.557  16.790  0.00  0.00    +0.000 C 
ENDBRANCH  27  31
ENDBRANCH  21  26
ENDBRANCH  19  21
ENDBRANCH   1  20
TORSDOF 7
ENDMDL
MODEL 7
REMARK VINA RESULT:      -7.8      5.237     10.886
REMARK  Name = 
REMARK  9 active torsions:
REMARK  status: ('A' for Active; 'I' for Inactive)
REMARK    1  A    between atoms: C_1  and  O_2
REMARK    2  A    between atoms: O_2  and  C_3
REMARK    3  A    between atoms: C_6  and  C_7
REMARK    4  A    between atoms: C_7  and  C_9
REMARK    5  A    between atoms: C_10  and  C_11
REMARK    6  A    between atoms: N_13  and  C_14
REMARK    7  A    between atoms: C_21  and  C_22
REMARK    8  A    between atoms: C_29  and  O_30
REMARK    9  A    between atoms: O_30  and  C_31
REMARK                            x       y       z     vdW  Elec       q    Type
REMARK                         _______ _______ _______ _____ _____    ______ ____
ROOT
ATOM      1  C   UNL     1       1.393   8.696  20.030  0.00  0.00    +0.000 A 
ATOM      2  C   UNL     1       2.254   7.636  19.892  0.00  0.00    +0.000 A 
ATOM      3  N   UNL     1       2.330   7.360  18.546  0.00  0.00    +0.000 N 
ATOM      4  N   UNL     1       1.562   8.211  17.820  0.00  0.00    +0.000 NA
ATOM      5  C   UNL     1       0.948   9.002  18.715  0.00  0.00    +0.000 A 
ENDROOT
BRANCH   5   6
ATOM      6  C   UNL     1       0.001  10.033  18.283  0.00  0.00    +0.000 A 
ATOM      7  C   UNL     1      -1.157   9.688  17.566  0.00  0.00    +0.000 A 
ATOM      8  C   UNL     1      -2.070  10.667  17.170  0.00  0.00    +0.000 A 
ATOM      9  C   UNL     1      -1.831  12.004  17.476  0.00  0.00    +0.000 A 
ATOM     10  C   UNL     1      -0.675  12.358  18.170  0.00  0.00    +0.000 A 
ATOM     11 CL   UNL     1      -0.382  14.013  18.543  0.00  0.00    +0.000 Cl
ATOM     12  C   UNL     1       0.239  11.386  18.572  0.00  0.00    +0.000 A 
ENDBRANCH   5   6
BRANCH   3  13
ATOM     13  C   UNL     1       3.109   6.349  17.910  0.00  0.00    +0.000 A 
ATOM     14  C   UNL     1       4.300   6.663  17.242  0.00  0.00    +0.000 A 
ATOM     15  C   UNL     1       5.040   5.654  16.620  0.00  0.00    +0.000 A 
ATOM     16  C   UNL     1       4.599   4.332  16.660  0.00  0.00    +0.000 A 
ATOM     17  C   UNL     1       3.420   4.011  17.327  0.00  0.00    +0.000 A 
ATOM     18  C   UNL     1       2.676   5.012  17.956  0.00  0.00    +0.000 A 
ENDBRANCH   3  13
BRANCH   1  20
ATOM     19  C   UNL     1      -0.131   9.674  21.632  0.00  0.00    +0.000 C 
ATOM     20  C   UNL     1       1.120   9.359  21.261  0.00  0.00    +0.000 C 
BRANCH  19  21
ATOM     21  C   UNL     1      -0.421  10.329  22.943  0.00  0.00    +0.000 C 
ATOM     22  O   UNL     1      -0.011   9.838  23.987  0.00  0.00    +0.000 OA
BRANCH  21  26
ATOM     23  C   UNL     1      -2.770  13.963  22.919  0.00  0.00    +0.000 A 
ATOM     24  C   UNL     1      -3.279  12.788  23.464  0.00  0.00    +0.000 A 
ATOM     25  C   UNL     1      -2.529  11.613  23.440  0.00  0.00    +0.000 A 
ATOM     26  C   UNL     1      -1.228  11.599  22.906  0.00  0.00    +0.000 A 
ATOM     27  C   UNL     1      -0.708  12.786  22.349  0.00  0.00    +0.000 A 
ATOM     28  C   UNL     1      -1.495  13.953  22.351  0.00  0.00    +0.000 A 
BRANCH  23  30
ATOM     29  C   UNL     1      -4.985  14.823  22.750  0.00  0.00    +0.000 C 
ATOM     30  O   UNL     1      -3.604  15.041  23.014  0.00  0.00    +0.000 OA
ENDBRANCH  23  30
BRANCH  27  31
ATOM     31  O   UNL     1       0.573  12.753  21.857  0.00  0.00    +0.000 OA
ATOM     32  C   UNL     1       1.215  13.989  21.567  0.00  0.00    +0.000 C 
ENDBRANCH  27  31
ENDBRANCH  21  26
ENDBRANCH  19  21
ENDBRANCH   1  20
TORSDOF 7
ENDMDL
MODEL 8
REMARK VINA RESULT:      -7.8      4.444      7.621
REMARK  Name = 
REMARK  9 active torsions:
REMARK  status: ('A' for Active; 'I' for Inactive)
REMARK    1  A    between atoms: C_1  and  O_2
REMARK    2  A    between atoms: O_2  and  C_3
REMARK    3  A    between atoms: C_6  and  C_7
REMARK    4  A    between atoms: C_7  and  C_9
REMARK    5  A    between atoms: C_10  and  C_11
REMARK    6  A    between atoms: N_13  and  C_14
REMARK    7  A    between atoms: C_21  and  C_22
REMARK    8  A    between atoms: C_29  and  O_30
REMARK    9  A    between atoms: O_30  and  C_31
REMARK                            x       y       z     vdW  Elec       q    Type
REMARK                         _______ _______ _______ _____ _____    ______ ____
ROOT
ATOM      1  C   UNL     1       0.860  10.527  18.516  0.00  0.00    +0.000 A 
ATOM      2  C   UNL     1      -0.417  10.152  18.178  0.00  0.00    +0.000 A 
ATOM      3  N   UNL     1      -1.193  11.287  18.238  0.00  0.00    +0.000 N 
ATOM      4  N   UNL     1      -0.457  12.372  18.588  0.00  0.00    +0.000 NA
ATOM      5  C   UNL     1       0.787  11.917  18.806  0.00  0.00    +0.000 A 
ENDROOT
BRANCH   5   6
ATOM      6  C   UNL     1       1.854  12.821  19.242  0.00  0.00    +0.000 A 
ATOM      7  C   UNL     1       2.082  13.057  20.607  0.00  0.00    +0.000 A 
ATOM      8  C   UNL     1       3.111  13.904  21.024  0.00  0.00    +0.000 A 
ATOM      9  C   UNL     1       3.917  14.534  20.080  0.00  0.00    +0.000 A 
ATOM     10  C   UNL     1       3.686  14.321  18.721  0.00  0.00    +0.000 A 
ATOM     11 CL   UNL     1       4.683  15.105  17.558  0.00  0.00    +0.000 Cl
ATOM     12  C   UNL     1       2.663  13.473  18.298  0.00  0.00    +0.000 A 
ENDBRANCH   5   6
BRANCH   3  13
ATOM     13  C   UNL     1      -2.585  11.402  17.958  0.00  0.00    +0.000 A 
ATOM     14  C   UNL     1      -3.490  11.833  18.937  0.00  0.00    +0.000 A 
ATOM     15  C   UNL     1      -4.851  11.928  18.639  0.00  0.00    +0.000 A 
ATOM     16  C   UNL     1      -5.318  11.595  17.368  0.00  0.00    +0.000 A 
ATOM     17  C   UNL     1      -4.425  11.171  16.387  0.00  0.00    +0.000 A 
ATOM     18  C   UNL     1      -3.061  11.078  16.675  0.00  0.00    +0.000 A 
ENDBRANCH   3  13
BRANCH   1  20
ATOM     19  C   UNL     1       1.894   8.389  18.065  0.00  0.00    +0.000 C 
ATOM     20  C   UNL     1       1.992   9.663  18.475  0.00  0.00    +0.000 C 
BRANCH  19  21
ATOM     21  C   UNL     1       3.088   7.496  17.980  0.00  0.00    +0.000 C 
ATOM     22  O   UNL     1       4.091   7.855  17.376  0.00  0.00    +0.000 OA
BRANCH  21  26
ATOM     23  C   UNL     1       2.721   3.664  19.956  0.00  0.00    +0.000 A 
ATOM     24  C   UNL     1       1.984   4.762  20.388  0.00  0.00    +0.000 A 
ATOM     25  C   UNL     1       2.130   6.002  19.766  0.00  0.00    +0.000 A 
ATOM     26  C   UNL     1       2.990   6.159  18.664  0.00  0.00    +0.000 A 
ATOM     27  C   UNL     1       3.744   5.050  18.225  0.00  0.00    +0.000 A 
ATOM     28  C   UNL     1       3.608   3.816  18.889  0.00  0.00    +0.000 A 
BRANCH  23  30
ATOM     29  C   UNL     1       1.640   2.599  21.792  0.00  0.00    +0.000 C 
ATOM     30  O   UNL     1       2.478   2.509  20.646  0.00  0.00    +0.000 OA
ENDBRANCH  23  30
BRANCH  27  31
ATOM     31  O   UNL     1       4.557   5.223  17.133  0.00  0.00    +0.000 OA
ATOM     32  C   UNL     1       4.797   4.103  16.289  0.00  0.00    +0.000 C 
ENDBRANCH  27  31
ENDBRANCH  21  26
ENDBRANCH  19  21
ENDBRANCH   1  20
TORSDOF 7
ENDMDL
MODEL 9
REMARK VINA RESULT:      -7.7      4.566      7.847
REMARK  Name = 
REMARK  9 active torsions:
REMARK  status: ('A' for Active; 'I' for Inactive)
REMARK    1  A    between atoms: C_1  and  O_2
REMARK    2  A    between atoms: O_2  and  C_3
REMARK    3  A    between atoms: C_6  and  C_7
REMARK    4  A    between atoms: C_7  and  C_9
REMARK    5  A    between atoms: C_10  and  C_11
REMARK    6  A    between atoms: N_13  and  C_14
REMARK    7  A    between atoms: C_21  and  C_22
REMARK    8  A    between atoms: C_29  and  O_30
REMARK    9  A    between atoms: O_30  and  C_31
REMARK                            x       y       z     vdW  Elec       q    Type
REMARK                         _______ _______ _______ _____ _____    ______ ____
ROOT
ATOM      1  C   UNL     1       0.276  10.708  18.407  0.00  0.00    +0.000 A 
ATOM      2  C   UNL     1      -1.044  10.371  18.247  0.00  0.00    +0.000 A 
ATOM      3  N   UNL     1      -1.782  11.485  18.579  0.00  0.00    +0.000 N 
ATOM      4  N   UNL     1      -0.981  12.522  18.931  0.00  0.00    +0.000 NA
ATOM      5  C   UNL     1       0.275  12.050  18.876  0.00  0.00    +0.000 A 
ENDROOT
BRANCH   5   6
ATOM      6  C   UNL     1       1.415  12.899  19.233  0.00  0.00    +0.000 A 
ATOM      7  C   UNL     1       1.878  12.958  20.557  0.00  0.00    +0.000 A 
ATOM      8  C   UNL     1       2.976  13.752  20.895  0.00  0.00    +0.000 A 
ATOM      9  C   UNL     1       3.616  14.506  19.914  0.00  0.00    +0.000 A 
ATOM     10  C   UNL     1       3.151  14.468  18.601  0.00  0.00    +0.000 A 
ATOM     11 CL   UNL     1       3.943  15.404  17.393  0.00  0.00    +0.000 Cl
ATOM     12  C   UNL     1       2.058  13.675  18.255  0.00  0.00    +0.000 A 
ENDBRANCH   5   6
BRANCH   3  13
ATOM     13  C   UNL     1      -3.200  11.625  18.557  0.00  0.00    +0.000 A 
ATOM     14  C   UNL     1      -3.963  11.120  17.497  0.00  0.00    +0.000 A 
ATOM     15  C   UNL     1      -5.351  11.280  17.496  0.00  0.00    +0.000 A 
ATOM     16  C   UNL     1      -5.984  11.940  18.548  0.00  0.00    +0.000 A 
ATOM     17  C   UNL     1      -5.233  12.440  19.609  0.00  0.00    +0.000 A 
ATOM     18  C   UNL     1      -3.845  12.282  19.621  0.00  0.00    +0.000 A 
ENDBRANCH   3  13
BRANCH   1  20
ATOM     19  C   UNL     1       1.577   8.689  18.683  0.00  0.00    +0.000 C 
ATOM     20  C   UNL     1       1.372   9.863  18.066  0.00  0.00    +0.000 C 
BRANCH  19  21
ATOM     21  C   UNL     1       2.699   7.783  18.296  0.00  0.00    +0.000 C 
ATOM     22  O   UNL     1       3.545   8.150  17.490  0.00  0.00    +0.000 OA
BRANCH  21  26
ATOM     23  C   UNL     1       2.707   3.884  20.172  0.00  0.00    +0.000 A 
ATOM     24  C   UNL     1       2.085   4.968  20.783  0.00  0.00    +0.000 A 
ATOM     25  C   UNL     1       2.113   6.229  20.187  0.00  0.00    +0.000 A 
ATOM     26  C   UNL     1       2.731   6.422  18.939  0.00  0.00    +0.000 A 
ATOM     27  C   UNL     1       3.367   5.328  18.317  0.00  0.00    +0.000 A 
ATOM     28  C   UNL     1       3.358   4.072  18.952  0.00  0.00    +0.000 A 
BRANCH  23  30
ATOM     29  C   UNL     1       1.476   2.552  21.716  0.00  0.00    +0.000 C 
ATOM     30  O   UNL     1       2.599   2.706  20.858  0.00  0.00    +0.000 OA
ENDBRANCH  23  30
BRANCH  27  31
ATOM     31  O   UNL     1       3.941   5.538  17.088  0.00  0.00    +0.000 OA
ATOM     32  C   UNL     1       5.161   4.866  16.792  0.00  0.00    +0.000 C 
ENDBRANCH  27  31
ENDBRANCH  21  26
ENDBRANCH  19  21
ENDBRANCH   1  20
TORSDOF 7
ENDMDL
