MODEL 1
REMARK VINA RESULT:      -7.9      0.000      0.000
REMARK  Name = 
REMARK  5 active torsions:
REMARK  status: ('A' for Active; 'I' for Inactive)
REMARK    1  A    between atoms: C_1  and  C_2
REMARK    2  A    between atoms: C_4  and  C_5
REMARK    3  A    between atoms: C_6  and  C_7
REMARK    4  A    between atoms: C_12  and  C_14
REMARK    5  A    between atoms: C_22  and  C_23
REMARK                            x       y       z     vdW  Elec       q    Type
REMARK                         _______ _______ _______ _____ _____    ______ ____
ROOT
ATOM      1  C   UNL     1       0.426  10.379  19.889  0.00  0.00    +0.000 A 
ATOM      2  C   UNL     1       1.183  11.046  18.935  0.00  0.00    +0.000 A 
ATOM      3  S   UNL     1       2.144   9.932  18.040  0.00  0.00    +0.000 S 
ATOM      4  C   UNL     1       1.624   8.702  19.092  0.00  0.00    +0.000 A 
ATOM      5  N   UNL     1       2.296   7.518  18.967  0.00  0.00    +0.000 N 
ATOM      6  C   UNL     1       2.295   6.590  19.981  0.00  0.00    +0.000 C 
ATOM      7  O   UNL     1       1.734   6.700  21.068  0.00  0.00    +0.000 OA
ATOM      8  N   UNL     1       0.668   9.016  19.922  0.00  0.00    +0.000 NA
ATOM      9  H   UNL     1       2.942   7.450  18.193  0.00  0.00    +0.000 HD
ENDROOT
BRANCH   1  15
ATOM     10  C   UNL     1      -3.395  12.574  23.706  0.00  0.00    +0.000 C 
ATOM     11  C   UNL     1      -2.394  12.060  22.717  0.00  0.00    +0.000 A 
ATOM     12  C   UNL     1      -2.423  12.450  21.381  0.00  0.00    +0.000 A 
ATOM     13  C   UNL     1      -1.515  11.927  20.434  0.00  0.00    +0.000 A 
ATOM     14  C   UNL     1      -1.695  12.410  19.017  0.00  0.00    +0.000 C 
ATOM     15  C   UNL     1      -0.515  10.999  20.841  0.00  0.00    +0.000 A 
ATOM     16  C   UNL     1      -0.471  10.630  22.218  0.00  0.00    +0.000 A 
ATOM     17  C   UNL     1       0.512   9.657  22.828  0.00  0.00    +0.000 C 
ATOM     18  C   UNL     1      -1.421  11.150  23.121  0.00  0.00    +0.000 A 
ENDBRANCH   1  15
BRANCH   6  19
ATOM     19  C   UNL     1       3.050   5.330  19.740  0.00  0.00    +0.000 A 
ATOM     20  C   UNL     1       4.391   5.496  19.353  0.00  0.00    +0.000 A 
ATOM     21  C   UNL     1       5.167   4.376  19.122  0.00  0.00    +0.000 A 
ATOM     22  N   UNL     1       4.704   3.118  19.244  0.00  0.00    +0.000 NA
ATOM     23  C   UNL     1       3.404   2.977  19.596  0.00  0.00    +0.000 A 
ATOM     24  C   UNL     1       2.538   4.037  19.850  0.00  0.00    +0.000 A 
ATOM     25 CL   UNL     1       0.902   3.654  20.238  0.00  0.00    +0.000 Cl
ENDBRANCH   6  19
TORSDOF 2
ENDMDL
MODEL 2
REMARK VINA RESULT:      -7.9      0.111      1.797
REMARK  Name = 
REMARK  5 active torsions:
REMARK  status: ('A' for Active; 'I' for Inactive)
REMARK    1  A    between atoms: C_1  and  C_2
REMARK    2  A    between atoms: C_4  and  C_5
REMARK    3  A    between atoms: C_6  and  C_7
REMARK    4  A    between atoms: C_12  and  C_14
REMARK    5  A    between atoms: C_22  and  C_23
REMARK                            x       y       z     vdW  Elec       q    Type
REMARK                         _______ _______ _______ _____ _____    ______ ____
ROOT
ATOM      1  C   UNL     1       0.364  10.327  19.927  0.00  0.00    +0.000 A 
ATOM      2  C   UNL     1       1.121  11.024  18.995  0.00  0.00    +0.000 A 
ATOM      3  S   UNL     1       2.114   9.943  18.095  0.00  0.00    +0.000 S 
ATOM      4  C   UNL     1       1.602   8.685  19.119  0.00  0.00    +0.000 A 
ATOM      5  N   UNL     1       2.297   7.516  18.983  0.00  0.00    +0.000 N 
ATOM      6  C   UNL     1       2.299   6.571  19.982  0.00  0.00    +0.000 C 
ATOM      7  O   UNL     1       1.721   6.653  21.062  0.00  0.00    +0.000 OA
ATOM      8  N   UNL     1       0.629   8.969  19.940  0.00  0.00    +0.000 NA
ATOM      9  H   UNL     1       2.954   7.473  18.218  0.00  0.00    +0.000 HD
ENDROOT
BRANCH   1  15
ATOM     10  C   UNL     1      -3.345  12.898  23.619  0.00  0.00    +0.000 C 
ATOM     11  C   UNL     1      -2.414  12.190  22.682  0.00  0.00    +0.000 A 
ATOM     12  C   UNL     1      -1.507  11.238  23.137  0.00  0.00    +0.000 A 
ATOM     13  C   UNL     1      -0.591  10.607  22.266  0.00  0.00    +0.000 A 
ATOM     14  C   UNL     1       0.360   9.630  22.910  0.00  0.00    +0.000 C 
ATOM     15  C   UNL     1      -0.601  10.914  20.876  0.00  0.00    +0.000 A 
ATOM     16  C   UNL     1      -1.558  11.865  20.412  0.00  0.00    +0.000 A 
ATOM     17  C   UNL     1      -1.710  12.318  18.978  0.00  0.00    +0.000 C 
ATOM     18  C   UNL     1      -2.428  12.497  21.325  0.00  0.00    +0.000 A 
ENDBRANCH   1  15
BRANCH   6  19
ATOM     19  C   UNL     1       3.080   5.328  19.730  0.00  0.00    +0.000 A 
ATOM     20  C   UNL     1       4.416   5.525  19.341  0.00  0.00    +0.000 A 
ATOM     21  C   UNL     1       5.215   4.424  19.100  0.00  0.00    +0.000 A 
ATOM     22  N   UNL     1       4.778   3.155  19.214  0.00  0.00    +0.000 NA
ATOM     23  C   UNL     1       3.482   2.985  19.569  0.00  0.00    +0.000 A 
ATOM     24  C   UNL     1       2.595   4.024  19.832  0.00  0.00    +0.000 A 
ATOM     25 CL   UNL     1       0.968   3.605  20.221  0.00  0.00    +0.000 Cl
ENDBRANCH   6  19
TORSDOF 2
ENDMDL
MODEL 3
REMARK VINA RESULT:      -7.8      2.954      8.632
REMARK  Name = 
REMARK  5 active torsions:
REMARK  status: ('A' for Active; 'I' for Inactive)
REMARK    1  A    between atoms: C_1  and  C_2
REMARK    2  A    between atoms: C_4  and  C_5
REMARK    3  A    between atoms: C_6  and  C_7
REMARK    4  A    between atoms: C_12  and  C_14
REMARK    5  A    between atoms: C_22  and  C_23
REMARK                            x       y       z     vdW  Elec       q    Type
REMARK                         _______ _______ _______ _____ _____    ______ ____
ROOT
ATOM      1  C   UNL     1       3.568   4.665  19.134  0.00  0.00    +0.000 A 
ATOM      2  C   UNL     1       3.487   3.811  20.226  0.00  0.00    +0.000 A 
ATOM      3  S   UNL     1       2.290   4.360  21.335  0.00  0.00    +0.000 S 
ATOM      4  C   UNL     1       2.108   5.757  20.383  0.00  0.00    +0.000 A 
ATOM      5  N   UNL     1       1.355   6.745  20.953  0.00  0.00    +0.000 N 
ATOM      6  C   UNL     1       1.453   8.048  20.526  0.00  0.00    +0.000 C 
ATOM      7  O   UNL     1       2.189   8.471  19.639  0.00  0.00    +0.000 OA
ATOM      8  N   UNL     1       2.721   5.757  19.232  0.00  0.00    +0.000 NA
ATOM      9  H   UNL     1       0.885   6.509  21.816  0.00  0.00    +0.000 HD
ENDROOT
BRANCH   1  15
ATOM     10  C   UNL     1       7.185   4.368  14.572  0.00  0.00    +0.000 C 
ATOM     11  C   UNL     1       6.253   4.391  15.745  0.00  0.00    +0.000 A 
ATOM     12  C   UNL     1       4.958   3.889  15.656  0.00  0.00    +0.000 A 
ATOM     13  C   UNL     1       4.058   3.956  16.743  0.00  0.00    +0.000 A 
ATOM     14  C   UNL     1       2.676   3.411  16.486  0.00  0.00    +0.000 C 
ATOM     15  C   UNL     1       4.477   4.520  17.982  0.00  0.00    +0.000 A 
ATOM     16  C   UNL     1       5.817   5.001  18.075  0.00  0.00    +0.000 A 
ATOM     17  C   UNL     1       6.431   5.634  19.302  0.00  0.00    +0.000 C 
ATOM     18  C   UNL     1       6.668   4.946  16.952  0.00  0.00    +0.000 A 
ENDBRANCH   1  15
BRANCH   6  19
ATOM     19  C   UNL     1       0.581   9.046  21.207  0.00  0.00    +0.000 A 
ATOM     20  C   UNL     1       0.528   8.943  22.607  0.00  0.00    +0.000 A 
ATOM     21  C   UNL     1      -0.247   9.839  23.318  0.00  0.00    +0.000 A 
ATOM     22  N   UNL     1      -0.968  10.816  22.737  0.00  0.00    +0.000 NA
ATOM     23  C   UNL     1      -0.922  10.886  21.385  0.00  0.00    +0.000 A 
ATOM     24  C   UNL     1      -0.176  10.034  20.577  0.00  0.00    +0.000 A 
ATOM     25 CL   UNL     1      -0.287  10.252  18.870  0.00  0.00    +0.000 Cl
ENDBRANCH   6  19
TORSDOF 2
ENDMDL
MODEL 4
REMARK VINA RESULT:      -7.7      3.181      8.828
REMARK  Name = 
REMARK  5 active torsions:
REMARK  status: ('A' for Active; 'I' for Inactive)
REMARK    1  A    between atoms: C_1  and  C_2
REMARK    2  A    between atoms: C_4  and  C_5
REMARK    3  A    between atoms: C_6  and  C_7
REMARK    4  A    between atoms: C_12  and  C_14
REMARK    5  A    between atoms: C_22  and  C_23
REMARK                            x       y       z     vdW  Elec       q    Type
REMARK                         _______ _______ _______ _____ _____    ______ ____
ROOT
ATOM      1  C   UNL     1       3.491   5.923  18.336  0.00  0.00    +0.000 A 
ATOM      2  C   UNL     1       3.540   5.553  19.674  0.00  0.00    +0.000 A 
ATOM      3  S   UNL     1       2.429   6.486  20.600  0.00  0.00    +0.000 S 
ATOM      4  C   UNL     1       2.110   7.411  19.209  0.00  0.00    +0.000 A 
ATOM      5  N   UNL     1       1.374   8.542  19.429  0.00  0.00    +0.000 N 
ATOM      6  C   UNL     1       1.384   9.581  18.529  0.00  0.00    +0.000 C 
ATOM      7  O   UNL     1       2.022   9.631  17.481  0.00  0.00    +0.000 OA
ATOM      8  N   UNL     1       2.617   6.969  18.092  0.00  0.00    +0.000 NA
ATOM      9  H   UNL     1       0.994   8.655  20.357  0.00  0.00    +0.000 HD
ENDROOT
BRANCH   1  15
ATOM     10  C   UNL     1       6.612   3.864  13.864  0.00  0.00    +0.000 C 
ATOM     11  C   UNL     1       5.825   4.351  15.042  0.00  0.00    +0.000 A 
ATOM     12  C   UNL     1       4.755   3.623  15.554  0.00  0.00    +0.000 A 
ATOM     13  C   UNL     1       3.976   4.102  16.631  0.00  0.00    +0.000 A 
ATOM     14  C   UNL     1       2.823   3.225  17.049  0.00  0.00    +0.000 C 
ATOM     15  C   UNL     1       4.298   5.346  17.244  0.00  0.00    +0.000 A 
ATOM     16  C   UNL     1       5.417   6.070  16.736  0.00  0.00    +0.000 A 
ATOM     17  C   UNL     1       5.899   7.405  17.255  0.00  0.00    +0.000 C 
ATOM     18  C   UNL     1       6.143   5.569  15.635  0.00  0.00    +0.000 A 
ENDBRANCH   1  15
BRANCH   6  19
ATOM     19  C   UNL     1       0.541  10.764  18.858  0.00  0.00    +0.000 A 
ATOM     20  C   UNL     1       1.112  11.679  19.759  0.00  0.00    +0.000 A 
ATOM     21  C   UNL     1       0.402  12.811  20.108  0.00  0.00    +0.000 A 
ATOM     22  N   UNL     1      -0.826  13.089  19.630  0.00  0.00    +0.000 NA
ATOM     23  C   UNL     1      -1.370  12.185  18.780  0.00  0.00    +0.000 A 
ATOM     24  C   UNL     1      -0.741  11.015  18.367  0.00  0.00    +0.000 A 
ATOM     25 CL   UNL     1      -1.618   9.965  17.319  0.00  0.00    +0.000 Cl
ENDBRANCH   6  19
TORSDOF 2
ENDMDL
MODEL 5
REMARK VINA RESULT:      -7.7      3.075      8.557
REMARK  Name = 
REMARK  5 active torsions:
REMARK  status: ('A' for Active; 'I' for Inactive)
REMARK    1  A    between atoms: C_1  and  C_2
REMARK    2  A    between atoms: C_4  and  C_5
REMARK    3  A    between atoms: C_6  and  C_7
REMARK    4  A    between atoms: C_12  and  C_14
REMARK    5  A    between atoms: C_22  and  C_23
REMARK                            x       y       z     vdW  Elec       q    Type
REMARK                         _______ _______ _______ _____ _____    ______ ____
ROOT
ATOM      1  C   UNL     1       3.254   5.007  18.794  0.00  0.00    +0.000 A 
ATOM      2  C   UNL     1       3.317   4.170  19.901  0.00  0.00    +0.000 A 
ATOM      3  S   UNL     1       2.237   4.709  21.128  0.00  0.00    +0.000 S 
ATOM      4  C   UNL     1       1.912   6.083  20.181  0.00  0.00    +0.000 A 
ATOM      5  N   UNL     1       1.200   7.062  20.817  0.00  0.00    +0.000 N 
ATOM      6  C   UNL     1       1.214   8.359  20.362  0.00  0.00    +0.000 C 
ATOM      7  O   UNL     1       1.836   8.784  19.392  0.00  0.00    +0.000 OA
ATOM      8  N   UNL     1       2.394   6.078  18.969  0.00  0.00    +0.000 NA
ATOM      9  H   UNL     1       0.836   6.829  21.730  0.00  0.00    +0.000 HD
ENDROOT
BRANCH   1  15
ATOM     10  C   UNL     1       6.518   4.287  14.018  0.00  0.00    +0.000 C 
ATOM     11  C   UNL     1       5.644   4.500  15.216  0.00  0.00    +0.000 A 
ATOM     12  C   UNL     1       5.399   5.774  15.721  0.00  0.00    +0.000 A 
ATOM     13  C   UNL     1       4.619   5.976  16.882  0.00  0.00    +0.000 A 
ATOM     14  C   UNL     1       4.476   7.407  17.335  0.00  0.00    +0.000 C 
ATOM     15  C   UNL     1       4.033   4.864  17.550  0.00  0.00    +0.000 A 
ATOM     16  C   UNL     1       4.261   3.565  17.005  0.00  0.00    +0.000 A 
ATOM     17  C   UNL     1       3.726   2.274  17.581  0.00  0.00    +0.000 C 
ATOM     18  C   UNL     1       5.076   3.408  15.866  0.00  0.00    +0.000 A 
ENDBRANCH   1  15
BRANCH   6  19
ATOM     19  C   UNL     1       0.396   9.346  21.120  0.00  0.00    +0.000 A 
ATOM     20  C   UNL     1       0.329   9.133  22.508  0.00  0.00    +0.000 A 
ATOM     21  C   UNL     1      -0.398  10.011  23.288  0.00  0.00    +0.000 A 
ATOM     22  N   UNL     1      -1.059  11.072  22.787  0.00  0.00    +0.000 NA
ATOM     23  C   UNL     1      -1.001  11.249  21.445  0.00  0.00    +0.000 A 
ATOM     24  C   UNL     1      -0.300  10.424  20.572  0.00  0.00    +0.000 A 
ATOM     25 CL   UNL     1      -0.388  10.786  18.888  0.00  0.00    +0.000 Cl
ENDBRANCH   6  19
TORSDOF 2
ENDMDL
MODEL 6
REMARK VINA RESULT:      -7.6      1.421      2.287
REMARK  Name = 
REMARK  5 active torsions:
REMARK  status: ('A' for Active; 'I' for Inactive)
REMARK    1  A    between atoms: C_1  and  C_2
REMARK    2  A    between atoms: C_4  and  C_5
REMARK    3  A    between atoms: C_6  and  C_7
REMARK    4  A    between atoms: C_12  and  C_14
REMARK    5  A    between atoms: C_22  and  C_23
REMARK                            x       y       z     vdW  Elec       q    Type
REMARK                         _______ _______ _______ _____ _____    ______ ____
ROOT
ATOM      1  C   UNL     1       0.633  10.776  19.659  0.00  0.00    +0.000 A 
ATOM      2  C   UNL     1       1.387  11.723  18.978  0.00  0.00    +0.000 A 
ATOM      3  S   UNL     1       2.387  10.966  17.800  0.00  0.00    +0.000 S 
ATOM      4  C   UNL     1       1.883   9.457  18.402  0.00  0.00    +0.000 A 
ATOM      5  N   UNL     1       2.586   8.386  17.926  0.00  0.00    +0.000 N 
ATOM      6  C   UNL     1       2.593   7.187  18.597  0.00  0.00    +0.000 C 
ATOM      7  O   UNL     1       2.014   6.939  19.652  0.00  0.00    +0.000 OA
ATOM      8  N   UNL     1       0.908   9.477  19.268  0.00  0.00    +0.000 NA
ATOM      9  H   UNL     1       3.243   8.576  17.183  0.00  0.00    +0.000 HD
ENDROOT
BRANCH   1  15
ATOM     10  C   UNL     1      -3.126  12.119  23.908  0.00  0.00    +0.000 C 
ATOM     11  C   UNL     1      -2.176  11.723  22.819  0.00  0.00    +0.000 A 
ATOM     12  C   UNL     1      -1.138  10.825  23.049  0.00  0.00    +0.000 A 
ATOM     13  C   UNL     1      -0.207  10.489  22.041  0.00  0.00    +0.000 A 
ATOM     14  C   UNL     1       0.888   9.536  22.449  0.00  0.00    +0.000 C 
ATOM     15  C   UNL     1      -0.336  11.048  20.737  0.00  0.00    +0.000 A 
ATOM     16  C   UNL     1      -1.423  11.941  20.501  0.00  0.00    +0.000 A 
ATOM     17  C   UNL     1      -1.712  12.632  19.188  0.00  0.00    +0.000 C 
ATOM     18  C   UNL     1      -2.306  12.275  21.549  0.00  0.00    +0.000 A 
ENDBRANCH   1  15
BRANCH   6  19
ATOM     19  C   UNL     1       3.382   6.080  17.989  0.00  0.00    +0.000 A 
ATOM     20  C   UNL     1       4.707   6.402  17.648  0.00  0.00    +0.000 A 
ATOM     21  C   UNL     1       5.513   5.428  17.090  0.00  0.00    +0.000 A 
ATOM     22  N   UNL     1       5.094   4.172  16.847  0.00  0.00    +0.000 NA
ATOM     23  C   UNL     1       3.808   3.886  17.161  0.00  0.00    +0.000 A 
ATOM     24  C   UNL     1       2.915   4.792  17.724  0.00  0.00    +0.000 A 
ATOM     25 CL   UNL     1       1.302   4.253  18.006  0.00  0.00    +0.000 Cl
ENDBRANCH   6  19
TORSDOF 2
ENDMDL
MODEL 7
REMARK VINA RESULT:      -7.6      3.395      8.956
REMARK  Name = 
REMARK  5 active torsions:
REMARK  status: ('A' for Active; 'I' for Inactive)
REMARK    1  A    between atoms: C_1  and  C_2
REMARK    2  A    between atoms: C_4  and  C_5
REMARK    3  A    between atoms: C_6  and  C_7
REMARK    4  A    between atoms: C_12  and  C_14
REMARK    5  A    between atoms: C_22  and  C_23
REMARK                            x       y       z     vdW  Elec       q    Type
REMARK                         _______ _______ _______ _____ _____    ______ ____
ROOT
ATOM      1  C   UNL     1       3.468   5.958  18.308  0.00  0.00    +0.000 A 
ATOM      2  C   UNL     1       3.495   5.589  19.646  0.00  0.00    +0.000 A 
ATOM      3  S   UNL     1       2.394   6.545  20.559  0.00  0.00    +0.000 S 
ATOM      4  C   UNL     1       2.109   7.475  19.165  0.00  0.00    +0.000 A 
ATOM      5  N   UNL     1       1.396   8.622  19.375  0.00  0.00    +0.000 N 
ATOM      6  C   UNL     1       1.437   9.660  18.475  0.00  0.00    +0.000 C 
ATOM      7  O   UNL     1       2.087   9.695  17.434  0.00  0.00    +0.000 OA
ATOM      8  N   UNL     1       2.619   7.021  18.053  0.00  0.00    +0.000 NA
ATOM      9  H   UNL     1       1.007   8.744  20.300  0.00  0.00    +0.000 HD
ENDROOT
BRANCH   1  15
ATOM     10  C   UNL     1       6.590   3.828  13.869  0.00  0.00    +0.000 C 
ATOM     11  C   UNL     1       5.803   4.333  15.040  0.00  0.00    +0.000 A 
ATOM     12  C   UNL     1       4.724   3.619  15.554  0.00  0.00    +0.000 A 
ATOM     13  C   UNL     1       3.944   4.116  16.622  0.00  0.00    +0.000 A 
ATOM     14  C   UNL     1       2.782   3.254  17.044  0.00  0.00    +0.000 C 
ATOM     15  C   UNL     1       4.274   5.363  17.225  0.00  0.00    +0.000 A 
ATOM     16  C   UNL     1       5.403   6.071  16.714  0.00  0.00    +0.000 A 
ATOM     17  C   UNL     1       5.895   7.407  17.223  0.00  0.00    +0.000 C 
ATOM     18  C   UNL     1       6.128   5.554  15.622  0.00  0.00    +0.000 A 
ENDBRANCH   1  15
BRANCH   6  19
ATOM     19  C   UNL     1       0.616  10.860  18.794  0.00  0.00    +0.000 A 
ATOM     20  C   UNL     1      -0.714  10.598  19.167  0.00  0.00    +0.000 A 
ATOM     21  C   UNL     1      -1.542  11.655  19.492  0.00  0.00    +0.000 A 
ATOM     22  N   UNL     1      -1.143  12.940  19.468  0.00  0.00    +0.000 NA
ATOM     23  C   UNL     1       0.135  13.176  19.086  0.00  0.00    +0.000 A 
ATOM     24  C   UNL     1       1.048  12.185  18.737  0.00  0.00    +0.000 A 
ATOM     25 CL   UNL     1       2.617  12.689  18.228  0.00  0.00    +0.000 Cl
ENDBRANCH   6  19
TORSDOF 2
ENDMDL
MODEL 8
REMARK VINA RESULT:      -7.3      1.167      1.462
REMARK  Name = 
REMARK  5 active torsions:
REMARK  status: ('A' for Active; 'I' for Inactive)
REMARK    1  A    between atoms: C_1  and  C_2
REMARK    2  A    between atoms: C_4  and  C_5
REMARK    3  A    between atoms: C_6  and  C_7
REMARK    4  A    between atoms: C_12  and  C_14
REMARK    5  A    between atoms: C_22  and  C_23
REMARK                            x       y       z     vdW  Elec       q    Type
REMARK                         _______ _______ _______ _____ _____    ______ ____
ROOT
ATOM      1  C   UNL     1       0.394  10.492  19.920  0.00  0.00    +0.000 A 
ATOM      2  C   UNL     1       1.158  11.209  19.008  0.00  0.00    +0.000 A 
ATOM      3  S   UNL     1       2.120  10.145  18.056  0.00  0.00    +0.000 S 
ATOM      4  C   UNL     1       1.591   8.859  19.034  0.00  0.00    +0.000 A 
ATOM      5  N   UNL     1       2.260   7.682  18.846  0.00  0.00    +0.000 N 
ATOM      6  C   UNL     1       2.252   6.698  19.805  0.00  0.00    +0.000 C 
ATOM      7  O   UNL     1       1.685   6.748  20.894  0.00  0.00    +0.000 OA
ATOM      8  N   UNL     1       0.632   9.129  19.876  0.00  0.00    +0.000 NA
ATOM      9  H   UNL     1       2.909   7.656  18.072  0.00  0.00    +0.000 HD
ENDROOT
BRANCH   1  15
ATOM     10  C   UNL     1      -3.435  12.479  23.840  0.00  0.00    +0.000 C 
ATOM     11  C   UNL     1      -2.433  12.018  22.827  0.00  0.00    +0.000 A 
ATOM     12  C   UNL     1      -2.468  12.469  21.510  0.00  0.00    +0.000 A 
ATOM     13  C   UNL     1      -1.559  11.997  20.538  0.00  0.00    +0.000 A 
ATOM     14  C   UNL     1      -1.746  12.542  19.145  0.00  0.00    +0.000 C 
ATOM     15  C   UNL     1      -0.550  11.060  20.900  0.00  0.00    +0.000 A 
ATOM     16  C   UNL     1      -0.499  10.630  22.260  0.00  0.00    +0.000 A 
ATOM     17  C   UNL     1       0.494   9.638  22.822  0.00  0.00    +0.000 C 
ATOM     18  C   UNL     1      -1.452  11.100  23.187  0.00  0.00    +0.000 A 
ENDBRANCH   1  15
BRANCH   6  19
ATOM     19  C   UNL     1       3.004   5.451  19.496  0.00  0.00    +0.000 A 
ATOM     20  C   UNL     1       2.641   4.325  20.256  0.00  0.00    +0.000 A 
ATOM     21  C   UNL     1       3.281   3.123  20.023  0.00  0.00    +0.000 A 
ATOM     22  N   UNL     1       4.249   2.967  19.100  0.00  0.00    +0.000 NA
ATOM     23  C   UNL     1       4.601   4.068  18.393  0.00  0.00    +0.000 A 
ATOM     24  C   UNL     1       4.021   5.323  18.550  0.00  0.00    +0.000 A 
ATOM     25 CL   UNL     1       4.641   6.614  17.590  0.00  0.00    +0.000 Cl
ENDBRANCH   6  19
TORSDOF 2
ENDMDL
MODEL 9
REMARK VINA RESULT:      -7.3      1.233      2.343
REMARK  Name = 
REMARK  5 active torsions:
REMARK  status: ('A' for Active; 'I' for Inactive)
REMARK    1  A    between atoms: C_1  and  C_2
REMARK    2  A    between atoms: C_4  and  C_5
REMARK    3  A    between atoms: C_6  and  C_7
REMARK    4  A    between atoms: C_12  and  C_14
REMARK    5  A    between atoms: C_22  and  C_23
REMARK                            x       y       z     vdW  Elec       q    Type
REMARK                         _______ _______ _______ _____ _____    ______ ____
ROOT
ATOM      1  C   UNL     1       0.297  10.554  19.993  0.00  0.00    +0.000 A 
ATOM      2  C   UNL     1       1.055  11.341  19.136  0.00  0.00    +0.000 A 
ATOM      3  S   UNL     1       2.065  10.358  18.148  0.00  0.00    +0.000 S 
ATOM      4  C   UNL     1       1.557   9.006  19.045  0.00  0.00    +0.000 A 
ATOM      5  N   UNL     1       2.264   7.861  18.807  0.00  0.00    +0.000 N 
ATOM      6  C   UNL     1       2.268   6.827  19.712  0.00  0.00    +0.000 C 
ATOM      7  O   UNL     1       1.681   6.801  20.790  0.00  0.00    +0.000 OA
ATOM      8  N   UNL     1       0.576   9.202  19.882  0.00  0.00    +0.000 NA
ATOM      9  H   UNL     1       2.927   7.895  18.045  0.00  0.00    +0.000 HD
ENDROOT
BRANCH   1  15
ATOM     10  C   UNL     1      -3.471  12.737  23.869  0.00  0.00    +0.000 C 
ATOM     11  C   UNL     1      -2.523  12.127  22.882  0.00  0.00    +0.000 A 
ATOM     12  C   UNL     1      -1.576  11.184  23.269  0.00  0.00    +0.000 A 
ATOM     13  C   UNL     1      -0.645  10.646  22.352  0.00  0.00    +0.000 A 
ATOM     14  C   UNL     1       0.349   9.667  22.925  0.00  0.00    +0.000 C 
ATOM     15  C   UNL     1      -0.680  11.041  20.985  0.00  0.00    +0.000 A 
ATOM     16  C   UNL     1      -1.677  11.982  20.590  0.00  0.00    +0.000 A 
ATOM     17  C   UNL     1      -1.860  12.519  19.189  0.00  0.00    +0.000 C 
ATOM     18  C   UNL     1      -2.562  12.520  21.548  0.00  0.00    +0.000 A 
ENDBRANCH   1  15
BRANCH   6  19
ATOM     19  C   UNL     1       3.062   5.619  19.351  0.00  0.00    +0.000 A 
ATOM     20  C   UNL     1       2.799   4.474  20.121  0.00  0.00    +0.000 A 
ATOM     21  C   UNL     1       3.483   3.306  19.844  0.00  0.00    +0.000 A 
ATOM     22  N   UNL     1       4.403   3.203  18.866  0.00  0.00    +0.000 NA
ATOM     23  C   UNL     1       4.660   4.324  18.149  0.00  0.00    +0.000 A 
ATOM     24  C   UNL     1       4.029   5.548  18.348  0.00  0.00    +0.000 A 
ATOM     25 CL   UNL     1       4.529   6.872  17.364  0.00  0.00    +0.000 Cl
ENDBRANCH   6  19
TORSDOF 2
ENDMDL
