MODEL 1
REMARK VINA RESULT:      -6.9      0.000      0.000
REMARK  Name = 
REMARK  3 active torsions:
REMARK  status: ('A' for Active; 'I' for Inactive)
REMARK    1  A    between atoms: N_2  and  N_4
REMARK    2  A    between atoms: C_9  and  C_10
REMARK    3  A    between atoms: C_10  and  C_11
REMARK                            x       y       z     vdW  Elec       q    Type
REMARK                         _______ _______ _______ _____ _____    ______ ____
ROOT
ATOM      1  N   UNL     1       7.652   5.745  17.044  0.00  0.00    +0.000 NA
ATOM      2  C   UNL     1       6.805   5.224  16.214  0.00  0.00    +0.000 C 
ATOM      3  N   UNL     1       6.864   5.506  14.867  0.00  0.00    +0.000 N 
ATOM      4  C   UNL     1       6.128   4.550  14.066  0.00  0.00    +0.000 C 
ATOM      5  C   UNL     1       5.760   3.471  15.083  0.00  0.00    +0.000 C 
ATOM      6  C   UNL     1       5.689   4.205  16.442  0.00  0.00    +0.000 C 
ATOM      7  H   UNL     1       7.728   5.895  14.503  0.00  0.00    +0.000 HD
ENDROOT
BRANCH   1   9
ATOM      8  O   UNL     1       6.948   6.018  19.158  0.00  0.00    +0.000 OA
ATOM      9  N   UNL     1       7.632   5.387  18.338  0.00  0.00    +0.000 N 
ATOM     10  O   UNL     1       8.353   4.438  18.671  0.00  0.00    +0.000 OA
ENDBRANCH   1   9
BRANCH   6  11
ATOM     11  C   UNL     1       4.338   4.919  16.658  0.00  0.00    +0.000 C 
BRANCH  11  12
ATOM     12  C   UNL     1       3.515   4.316  17.769  0.00  0.00    +0.000 A 
ATOM     13  C   UNL     1       2.121   4.237  17.689  0.00  0.00    +0.000 A 
ATOM     14  C   UNL     1       1.395   3.740  18.768  0.00  0.00    +0.000 A 
ATOM     15  C   UNL     1       2.097   3.322  19.885  0.00  0.00    +0.000 A 
ATOM     16 CL   UNL     1       1.276   2.732  21.270  0.00  0.00    +0.000 Cl
ATOM     17  N   UNL     1       3.439   3.354  19.997  0.00  0.00    +0.000 NA
ATOM     18  C   UNL     1       4.117   3.841  18.934  0.00  0.00    +0.000 A 
ENDBRANCH  11  12
ENDBRANCH   6  11
TORSDOF 3
ENDMDL
MODEL 2
REMARK VINA RESULT:      -6.8      0.780      1.372
REMARK  Name = 
REMARK  3 active torsions:
REMARK  status: ('A' for Active; 'I' for Inactive)
REMARK    1  A    between atoms: N_2  and  N_4
REMARK    2  A    between atoms: C_9  and  C_10
REMARK    3  A    between atoms: C_10  and  C_11
REMARK                            x       y       z     vdW  Elec       q    Type
REMARK                         _______ _______ _______ _____ _____    ______ ____
ROOT
ATOM      1  N   UNL     1       7.635   5.951  17.444  0.00  0.00    +0.000 NA
ATOM      2  C   UNL     1       6.952   5.373  16.508  0.00  0.00    +0.000 C 
ATOM      3  N   UNL     1       7.134   5.707  15.184  0.00  0.00    +0.000 N 
ATOM      4  C   UNL     1       6.607   4.707  14.279  0.00  0.00    +0.000 C 
ATOM      5  C   UNL     1       6.247   3.558  15.221  0.00  0.00    +0.000 C 
ATOM      6  C   UNL     1       5.938   4.231  16.578  0.00  0.00    +0.000 C 
ATOM      7  H   UNL     1       7.986   6.200  14.934  0.00  0.00    +0.000 HD
ENDROOT
BRANCH   1   9
ATOM      8  O   UNL     1       8.376   4.839  19.248  0.00  0.00    +0.000 OA
ATOM      9  N   UNL     1       7.506   5.547  18.718  0.00  0.00    +0.000 N 
ATOM     10  O   UNL     1       6.472   5.877  19.312  0.00  0.00    +0.000 OA
ENDBRANCH   1   9
BRANCH   6  11
ATOM     11  C   UNL     1       4.500   4.787  16.649  0.00  0.00    +0.000 C 
BRANCH  11  12
ATOM     12  C   UNL     1       3.727   4.295  17.847  0.00  0.00    +0.000 A 
ATOM     13  C   UNL     1       4.197   3.245  18.642  0.00  0.00    +0.000 A 
ATOM     14  C   UNL     1       3.417   2.775  19.695  0.00  0.00    +0.000 A 
ATOM     15  C   UNL     1       2.198   3.387  19.924  0.00  0.00    +0.000 A 
ATOM     16 CL   UNL     1       1.162   2.843  21.178  0.00  0.00    +0.000 Cl
ATOM     17  N   UNL     1       1.717   4.418  19.202  0.00  0.00    +0.000 NA
ATOM     18  C   UNL     1       2.496   4.853  18.188  0.00  0.00    +0.000 A 
ENDBRANCH  11  12
ENDBRANCH   6  11
TORSDOF 3
ENDMDL
MODEL 3
REMARK VINA RESULT:      -6.8      0.836      1.089
REMARK  Name = 
REMARK  3 active torsions:
REMARK  status: ('A' for Active; 'I' for Inactive)
REMARK    1  A    between atoms: N_2  and  N_4
REMARK    2  A    between atoms: C_9  and  C_10
REMARK    3  A    between atoms: C_10  and  C_11
REMARK                            x       y       z     vdW  Elec       q    Type
REMARK                         _______ _______ _______ _____ _____    ______ ____
ROOT
ATOM      1  N   UNL     1       7.648   6.007  17.586  0.00  0.00    +0.000 NA
ATOM      2  C   UNL     1       6.977   5.447  16.631  0.00  0.00    +0.000 C 
ATOM      3  N   UNL     1       7.241   5.739  15.311  0.00  0.00    +0.000 N 
ATOM      4  C   UNL     1       6.699   4.750  14.403  0.00  0.00    +0.000 C 
ATOM      5  C   UNL     1       6.229   3.646  15.349  0.00  0.00    +0.000 C 
ATOM      6  C   UNL     1       5.897   4.367  16.676  0.00  0.00    +0.000 C 
ATOM      7  H   UNL     1       8.130   6.177  15.092  0.00  0.00    +0.000 HD
ENDROOT
BRANCH   1   9
ATOM      8  O   UNL     1       8.333   5.091  19.518  0.00  0.00    +0.000 OA
ATOM      9  N   UNL     1       7.436   5.641  18.861  0.00  0.00    +0.000 N 
ATOM     10  O   UNL     1       6.306   5.838  19.324  0.00  0.00    +0.000 OA
ENDBRANCH   1   9
BRANCH   6  11
ATOM     11  C   UNL     1       4.491   5.005  16.666  0.00  0.00    +0.000 C 
BRANCH  11  12
ATOM     12  C   UNL     1       3.594   4.490  17.763  0.00  0.00    +0.000 A 
ATOM     13  C   UNL     1       2.818   5.354  18.542  0.00  0.00    +0.000 A 
ATOM     14  C   UNL     1       2.059   4.843  19.591  0.00  0.00    +0.000 A 
ATOM     15  C   UNL     1       2.092   3.478  19.811  0.00  0.00    +0.000 A 
ATOM     16 CL   UNL     1       1.215   2.773  21.106  0.00  0.00    +0.000 Cl
ATOM     17  N   UNL     1       2.803   2.604  19.071  0.00  0.00    +0.000 NA
ATOM     18  C   UNL     1       3.529   3.129  18.059  0.00  0.00    +0.000 A 
ENDBRANCH  11  12
ENDBRANCH   6  11
TORSDOF 3
ENDMDL
MODEL 4
REMARK VINA RESULT:      -6.8      1.324      1.408
REMARK  Name = 
REMARK  3 active torsions:
REMARK  status: ('A' for Active; 'I' for Inactive)
REMARK    1  A    between atoms: N_2  and  N_4
REMARK    2  A    between atoms: C_9  and  C_10
REMARK    3  A    between atoms: C_10  and  C_11
REMARK                            x       y       z     vdW  Elec       q    Type
REMARK                         _______ _______ _______ _____ _____    ______ ____
ROOT
ATOM      1  N   UNL     1       5.611   6.223  17.896  0.00  0.00    +0.000 NA
ATOM      2  C   UNL     1       5.497   5.521  16.814  0.00  0.00    +0.000 C 
ATOM      3  N   UNL     1       5.645   6.098  15.572  0.00  0.00    +0.000 N 
ATOM      4  C   UNL     1       5.887   5.124  14.530  0.00  0.00    +0.000 C 
ATOM      5  C   UNL     1       6.095   3.832  15.319  0.00  0.00    +0.000 C 
ATOM      6  C   UNL     1       5.283   4.020  16.622  0.00  0.00    +0.000 C 
ATOM      7  H   UNL     1       6.107   7.001  15.522  0.00  0.00    +0.000 HD
ENDROOT
BRANCH   1   9
ATOM      8  O   UNL     1       4.490   5.587  19.734  0.00  0.00    +0.000 OA
ATOM      9  N   UNL     1       5.553   5.623  19.096  0.00  0.00    +0.000 N 
ATOM     10  O   UNL     1       6.607   5.155  19.543  0.00  0.00    +0.000 OA
ENDBRANCH   1   9
BRANCH   6  11
ATOM     11  C   UNL     1       3.784   3.706  16.435  0.00  0.00    +0.000 C 
BRANCH  11  12
ATOM     12  C   UNL     1       3.068   3.417  17.730  0.00  0.00    +0.000 A 
ATOM     13  C   UNL     1       1.851   4.027  18.048  0.00  0.00    +0.000 A 
ATOM     14  C   UNL     1       1.261   3.787  19.285  0.00  0.00    +0.000 A 
ATOM     15  C   UNL     1       1.906   2.928  20.156  0.00  0.00    +0.000 A 
ATOM     16 CL   UNL     1       1.265   2.609  21.715  0.00  0.00    +0.000 Cl
ATOM     17  N   UNL     1       3.065   2.297  19.884  0.00  0.00    +0.000 NA
ATOM     18  C   UNL     1       3.613   2.549  18.675  0.00  0.00    +0.000 A 
ENDBRANCH  11  12
ENDBRANCH   6  11
TORSDOF 3
ENDMDL
MODEL 5
REMARK VINA RESULT:      -6.7      2.083      2.772
REMARK  Name = 
REMARK  3 active torsions:
REMARK  status: ('A' for Active; 'I' for Inactive)
REMARK    1  A    between atoms: N_2  and  N_4
REMARK    2  A    between atoms: C_9  and  C_10
REMARK    3  A    between atoms: C_10  and  C_11
REMARK                            x       y       z     vdW  Elec       q    Type
REMARK                         _______ _______ _______ _____ _____    ______ ____
ROOT
ATOM      1  N   UNL     1       7.541   4.392  15.970  0.00  0.00    +0.000 NA
ATOM      2  C   UNL     1       6.623   4.527  16.873  0.00  0.00    +0.000 C 
ATOM      3  N   UNL     1       6.913   4.372  18.211  0.00  0.00    +0.000 N 
ATOM      4  C   UNL     1       5.898   4.943  19.070  0.00  0.00    +0.000 C 
ATOM      5  C   UNL     1       5.004   5.693  18.083  0.00  0.00    +0.000 C 
ATOM      6  C   UNL     1       5.155   4.933  16.745  0.00  0.00    +0.000 C 
ATOM      7  H   UNL     1       7.887   4.425  18.493  0.00  0.00    +0.000 HD
ENDROOT
BRANCH   1   9
ATOM      8  O   UNL     1       6.502   3.882  14.046  0.00  0.00    +0.000 OA
ATOM      9  N   UNL     1       7.256   4.636  14.680  0.00  0.00    +0.000 N 
ATOM     10  O   UNL     1       7.810   5.610  14.156  0.00  0.00    +0.000 OA
ENDBRANCH   1   9
BRANCH   6  11
ATOM     11  C   UNL     1       4.252   3.684  16.670  0.00  0.00    +0.000 C 
BRANCH  11  12
ATOM     12  C   UNL     1       3.408   3.482  17.903  0.00  0.00    +0.000 A 
ATOM     13  C   UNL     1       2.281   4.269  18.158  0.00  0.00    +0.000 A 
ATOM     14  C   UNL     1       1.573   4.097  19.344  0.00  0.00    +0.000 A 
ATOM     15  C   UNL     1       2.012   3.127  20.227  0.00  0.00    +0.000 A 
ATOM     16 CL   UNL     1       1.218   2.877  21.727  0.00  0.00    +0.000 Cl
ATOM     17  N   UNL     1       3.075   2.328  20.013  0.00  0.00    +0.000 NA
ATOM     18  C   UNL     1       3.742   2.517  18.853  0.00  0.00    +0.000 A 
ENDBRANCH  11  12
ENDBRANCH   6  11
TORSDOF 3
ENDMDL
MODEL 6
REMARK VINA RESULT:      -6.6      2.386      3.042
REMARK  Name = 
REMARK  3 active torsions:
REMARK  status: ('A' for Active; 'I' for Inactive)
REMARK    1  A    between atoms: N_2  and  N_4
REMARK    2  A    between atoms: C_9  and  C_10
REMARK    3  A    between atoms: C_10  and  C_11
REMARK                            x       y       z     vdW  Elec       q    Type
REMARK                         _______ _______ _______ _____ _____    ______ ____
ROOT
ATOM      1  N   UNL     1       7.521   5.154  14.279  0.00  0.00    +0.000 NA
ATOM      2  C   UNL     1       6.825   5.450  15.330  0.00  0.00    +0.000 C 
ATOM      3  N   UNL     1       7.346   6.245  16.328  0.00  0.00    +0.000 N 
ATOM      4  C   UNL     1       6.325   6.791  17.195  0.00  0.00    +0.000 C 
ATOM      5  C   UNL     1       5.032   6.408  16.476  0.00  0.00    +0.000 C 
ATOM      6  C   UNL     1       5.376   5.123  15.688  0.00  0.00    +0.000 C 
ATOM      7  H   UNL     1       8.160   6.810  16.105  0.00  0.00    +0.000 HD
ENDROOT
BRANCH   1   9
ATOM      8  O   UNL     1       6.143   3.553  13.518  0.00  0.00    +0.000 OA
ATOM      9  N   UNL     1       6.962   4.453  13.279  0.00  0.00    +0.000 N 
ATOM     10  O   UNL     1       7.333   4.719  12.129  0.00  0.00    +0.000 OA
ENDBRANCH   1   9
BRANCH   6  11
ATOM     11  C   UNL     1       5.306   3.854  16.564  0.00  0.00    +0.000 C 
BRANCH  11  12
ATOM     12  C   UNL     1       4.132   3.846  17.511  0.00  0.00    +0.000 A 
ATOM     13  C   UNL     1       2.817   3.749  17.048  0.00  0.00    +0.000 A 
ATOM     14  C   UNL     1       1.760   3.818  17.951  0.00  0.00    +0.000 A 
ATOM     15  C   UNL     1       2.062   3.966  19.293  0.00  0.00    +0.000 A 
ATOM     16 CL   UNL     1       0.818   4.096  20.466  0.00  0.00    +0.000 Cl
ATOM     17  N   UNL     1       3.313   4.037  19.788  0.00  0.00    +0.000 NA
ATOM     18  C   UNL     1       4.318   3.966  18.888  0.00  0.00    +0.000 A 
ENDBRANCH  11  12
ENDBRANCH   6  11
TORSDOF 3
ENDMDL
MODEL 7
REMARK VINA RESULT:      -6.6      3.260      3.933
REMARK  Name = 
REMARK  3 active torsions:
REMARK  status: ('A' for Active; 'I' for Inactive)
REMARK    1  A    between atoms: N_2  and  N_4
REMARK    2  A    between atoms: C_9  and  C_10
REMARK    3  A    between atoms: C_10  and  C_11
REMARK                            x       y       z     vdW  Elec       q    Type
REMARK                         _______ _______ _______ _____ _____    ______ ____
ROOT
ATOM      1  N   UNL     1       7.479   4.217  15.726  0.00  0.00    +0.000 NA
ATOM      2  C   UNL     1       7.097   4.779  16.829  0.00  0.00    +0.000 C 
ATOM      3  N   UNL     1       7.705   4.477  18.028  0.00  0.00    +0.000 N 
ATOM      4  C   UNL     1       7.439   5.466  19.051  0.00  0.00    +0.000 C 
ATOM      5  C   UNL     1       6.741   6.579  18.270  0.00  0.00    +0.000 C 
ATOM      6  C   UNL     1       6.055   5.868  17.081  0.00  0.00    +0.000 C 
ATOM      7  H   UNL     1       8.616   4.030  17.997  0.00  0.00    +0.000 HD
ENDROOT
BRANCH   1   9
ATOM      8  O   UNL     1       7.442   5.504  13.887  0.00  0.00    +0.000 OA
ATOM      9  N   UNL     1       6.934   4.592  14.557  0.00  0.00    +0.000 N 
ATOM     10  O   UNL     1       5.894   4.019  14.211  0.00  0.00    +0.000 OA
ENDBRANCH   1   9
BRANCH   6  11
ATOM     11  C   UNL     1       4.699   5.242  17.469  0.00  0.00    +0.000 C 
BRANCH  11  12
ATOM     12  C   UNL     1       3.723   6.239  18.041  0.00  0.00    +0.000 A 
ATOM     13  C   UNL     1       3.376   7.405  17.352  0.00  0.00    +0.000 A 
ATOM     14  C   UNL     1       2.528   8.333  17.949  0.00  0.00    +0.000 A 
ATOM     15  C   UNL     1       2.042   8.049  19.213  0.00  0.00    +0.000 A 
ATOM     16 CL   UNL     1       1.020   9.157  20.033  0.00  0.00    +0.000 Cl
ATOM     17  N   UNL     1       2.326   6.928  19.903  0.00  0.00    +0.000 NA
ATOM     18  C   UNL     1       3.151   6.045  19.298  0.00  0.00    +0.000 A 
ENDBRANCH  11  12
ENDBRANCH   6  11
TORSDOF 3
ENDMDL
MODEL 8
REMARK VINA RESULT:      -6.6      1.716      1.983
REMARK  Name = 
REMARK  3 active torsions:
REMARK  status: ('A' for Active; 'I' for Inactive)
REMARK    1  A    between atoms: N_2  and  N_4
REMARK    2  A    between atoms: C_9  and  C_10
REMARK    3  A    between atoms: C_10  and  C_11
REMARK                            x       y       z     vdW  Elec       q    Type
REMARK                         _______ _______ _______ _____ _____    ______ ____
ROOT
ATOM      1  N   UNL     1       7.934   7.407  16.753  0.00  0.00    +0.000 NA
ATOM      2  C   UNL     1       7.156   6.373  16.749  0.00  0.00    +0.000 C 
ATOM      3  N   UNL     1       7.118   5.514  15.672  0.00  0.00    +0.000 N 
ATOM      4  C   UNL     1       6.522   4.236  15.999  0.00  0.00    +0.000 C 
ATOM      5  C   UNL     1       6.376   4.312  17.518  0.00  0.00    +0.000 C 
ATOM      6  C   UNL     1       6.233   5.819  17.834  0.00  0.00    +0.000 C 
ATOM      7  H   UNL     1       7.892   5.546  15.015  0.00  0.00    +0.000 HD
ENDROOT
BRANCH   1   9
ATOM      8  O   UNL     1       7.646   9.361  17.821  0.00  0.00    +0.000 OA
ATOM      9  N   UNL     1       8.021   8.179  17.848  0.00  0.00    +0.000 N 
ATOM     10  O   UNL     1       8.526   7.670  18.857  0.00  0.00    +0.000 OA
ENDBRANCH   1   9
BRANCH   6  11
ATOM     11  C   UNL     1       4.791   6.332  17.634  0.00  0.00    +0.000 C 
BRANCH  11  12
ATOM     12  C   UNL     1       3.752   5.471  18.309  0.00  0.00    +0.000 A 
ATOM     13  C   UNL     1       2.799   4.760  17.574  0.00  0.00    +0.000 A 
ATOM     14  C   UNL     1       1.814   4.037  18.240  0.00  0.00    +0.000 A 
ATOM     15  C   UNL     1       1.830   4.039  19.624  0.00  0.00    +0.000 A 
ATOM     16 CL   UNL     1       0.630   3.203  20.520  0.00  0.00    +0.000 Cl
ATOM     17  N   UNL     1       2.744   4.686  20.373  0.00  0.00    +0.000 NA
ATOM     18  C   UNL     1       3.688   5.379  19.699  0.00  0.00    +0.000 A 
ENDBRANCH  11  12
ENDBRANCH   6  11
TORSDOF 3
ENDMDL
MODEL 9
REMARK VINA RESULT:      -6.5      3.399      4.145
REMARK  Name = 
REMARK  3 active torsions:
REMARK  status: ('A' for Active; 'I' for Inactive)
REMARK    1  A    between atoms: N_2  and  N_4
REMARK    2  A    between atoms: C_9  and  C_10
REMARK    3  A    between atoms: C_10  and  C_11
REMARK                            x       y       z     vdW  Elec       q    Type
REMARK                         _______ _______ _______ _____ _____    ______ ____
ROOT
ATOM      1  N   UNL     1       6.536   4.407  18.307  0.00  0.00    +0.000 NA
ATOM      2  C   UNL     1       5.256   4.216  18.313  0.00  0.00    +0.000 C 
ATOM      3  N   UNL     1       4.704   3.079  17.764  0.00  0.00    +0.000 N 
ATOM      4  C   UNL     1       3.347   2.847  18.211  0.00  0.00    +0.000 C 
ATOM      5  C   UNL     1       3.173   3.892  19.313  0.00  0.00    +0.000 C 
ATOM      6  C   UNL     1       4.130   5.045  18.930  0.00  0.00    +0.000 C 
ATOM      7  H   UNL     1       5.316   2.284  17.609  0.00  0.00    +0.000 HD
ENDROOT
BRANCH   1   9
ATOM      8  O   UNL     1       7.374   5.424  20.125  0.00  0.00    +0.000 OA
ATOM      9  N   UNL     1       7.059   5.478  18.926  0.00  0.00    +0.000 N 
ATOM     10  O   UNL     1       7.168   6.516  18.261  0.00  0.00    +0.000 OA
ENDBRANCH   1   9
BRANCH   6  11
ATOM     11  C   UNL     1       3.519   5.997  17.881  0.00  0.00    +0.000 C 
BRANCH  11  12
ATOM     12  C   UNL     1       2.675   7.090  18.486  0.00  0.00    +0.000 A 
ATOM     13  C   UNL     1       2.297   8.217  17.751  0.00  0.00    +0.000 A 
ATOM     14  C   UNL     1       1.579   9.237  18.370  0.00  0.00    +0.000 A 
ATOM     15  C   UNL     1       1.250   9.081  19.705  0.00  0.00    +0.000 A 
ATOM     16 CL   UNL     1       0.400  10.306  20.551  0.00  0.00    +0.000 Cl
ATOM     17  N   UNL     1       1.569   8.002  20.446  0.00  0.00    +0.000 NA
ATOM     18  C   UNL     1       2.265   7.029  19.818  0.00  0.00    +0.000 A 
ENDBRANCH  11  12
ENDBRANCH   6  11
TORSDOF 3
ENDMDL
