MODEL 1
REMARK VINA RESULT:      -6.3      0.000      0.000
REMARK  Name = 
REMARK  6 active torsions:
REMARK  status: ('A' for Active; 'I' for Inactive)
REMARK    1  A    between atoms: C_1  and  O_2
REMARK    2  A    between atoms: O_2  and  C_3
REMARK    3  A    between atoms: C_3  and  C_5
REMARK    4  A    between atoms: C_5  and  S_6
REMARK    5  A    between atoms: S_6  and  C_7
REMARK    6  A    between atoms: C_12  and  C_13
REMARK                            x       y       z     vdW  Elec       q    Type
REMARK                         _______ _______ _______ _____ _____    ______ ____
ROOT
ATOM      1  C   UNL     1       3.869   4.616  17.679  0.00  0.00    +0.000 A 
ATOM      2  N   UNL     1       4.183   3.397  17.194  0.00  0.00    +0.000 NA
ATOM      3  C   UNL     1       3.743   2.325  17.868  0.00  0.00    +0.000 A 
ATOM      4  N   UNL     1       3.015   2.308  18.986  0.00  0.00    +0.000 NA
ATOM      5  C   UNL     1       2.693   3.534  19.467  0.00  0.00    +0.000 A 
ATOM      6  C   UNL     1       1.935   3.774  20.667  0.00  0.00    +0.000 A 
ATOM      7  C   UNL     1       1.413   2.715  21.577  0.00  0.00    +0.000 C 
ATOM      8  C   UNL     1       1.757   5.127  20.881  0.00  0.00    +0.000 A 
ATOM      9  S   UNL     1       2.506   6.087  19.690  0.00  0.00    +0.000 S 
ATOM     10  C   UNL     1       3.093   4.711  18.837  0.00  0.00    +0.000 A 
ENDROOT
BRANCH   1  11
ATOM     11  S   UNL     1       4.514   6.064  16.893  0.00  0.00    +0.000 S 
BRANCH  11  12
ATOM     12  C   UNL     1       5.847   5.359  15.870  0.00  0.00    +0.000 C 
BRANCH  12  13
ATOM     13  C   UNL     1       7.183   5.468  16.586  0.00  0.00    +0.000 C 
ATOM     14  O   UNL     1       7.800   4.560  17.130  0.00  0.00    +0.000 OA
BRANCH  13  16
ATOM     15  C   UNL     1       7.778   7.360  17.820  0.00  0.00    +0.000 C 
ATOM     16  O   UNL     1       7.626   6.760  16.532  0.00  0.00    +0.000 OA
ENDBRANCH  13  16
ENDBRANCH  12  13
ENDBRANCH  11  12
ENDBRANCH   1  11
TORSDOF 4
ENDMDL
MODEL 2
REMARK VINA RESULT:      -6.3      0.817      1.366
REMARK  Name = 
REMARK  6 active torsions:
REMARK  status: ('A' for Active; 'I' for Inactive)
REMARK    1  A    between atoms: C_1  and  O_2
REMARK    2  A    between atoms: O_2  and  C_3
REMARK    3  A    between atoms: C_3  and  C_5
REMARK    4  A    between atoms: C_5  and  S_6
REMARK    5  A    between atoms: S_6  and  C_7
REMARK    6  A    between atoms: C_12  and  C_13
REMARK                            x       y       z     vdW  Elec       q    Type
REMARK                         _______ _______ _______ _____ _____    ______ ____
ROOT
ATOM      1  C   UNL     1       3.929   4.949  17.608  0.00  0.00    +0.000 A 
ATOM      2  N   UNL     1       4.223   3.753  17.054  0.00  0.00    +0.000 NA
ATOM      3  C   UNL     1       3.724   2.655  17.639  0.00  0.00    +0.000 A 
ATOM      4  N   UNL     1       2.953   2.591  18.727  0.00  0.00    +0.000 NA
ATOM      5  C   UNL     1       2.651   3.794  19.276  0.00  0.00    +0.000 A 
ATOM      6  C   UNL     1       1.856   3.981  20.461  0.00  0.00    +0.000 A 
ATOM      7  C   UNL     1       1.266   2.884  21.280  0.00  0.00    +0.000 C 
ATOM      8  C   UNL     1       1.713   5.322  20.757  0.00  0.00    +0.000 A 
ATOM      9  S   UNL     1       2.537   6.331  19.661  0.00  0.00    +0.000 S 
ATOM     10  C   UNL     1       3.112   4.995  18.740  0.00  0.00    +0.000 A 
ENDROOT
BRANCH   1  11
ATOM     11  S   UNL     1       4.649   6.422  16.943  0.00  0.00    +0.000 S 
BRANCH  11  12
ATOM     12  C   UNL     1       6.383   6.251  17.476  0.00  0.00    +0.000 C 
BRANCH  12  13
ATOM     13  C   UNL     1       7.143   5.332  16.534  0.00  0.00    +0.000 C 
ATOM     14  O   UNL     1       7.932   4.449  16.849  0.00  0.00    +0.000 OA
BRANCH  13  16
ATOM     15  C   UNL     1       6.687   4.468  14.411  0.00  0.00    +0.000 C 
ATOM     16  O   UNL     1       6.810   5.625  15.242  0.00  0.00    +0.000 OA
ENDBRANCH  13  16
ENDBRANCH  12  13
ENDBRANCH  11  12
ENDBRANCH   1  11
TORSDOF 4
ENDMDL
MODEL 3
REMARK VINA RESULT:      -6.1      0.929      1.038
REMARK  Name = 
REMARK  6 active torsions:
REMARK  status: ('A' for Active; 'I' for Inactive)
REMARK    1  A    between atoms: C_1  and  O_2
REMARK    2  A    between atoms: O_2  and  C_3
REMARK    3  A    between atoms: C_3  and  C_5
REMARK    4  A    between atoms: C_5  and  S_6
REMARK    5  A    between atoms: S_6  and  C_7
REMARK    6  A    between atoms: C_12  and  C_13
REMARK                            x       y       z     vdW  Elec       q    Type
REMARK                         _______ _______ _______ _____ _____    ______ ____
ROOT
ATOM      1  C   UNL     1       3.936   4.244  17.725  0.00  0.00    +0.000 A 
ATOM      2  N   UNL     1       4.125   2.986  17.274  0.00  0.00    +0.000 NA
ATOM      3  C   UNL     1       3.570   1.984  17.970  0.00  0.00    +0.000 A 
ATOM      4  N   UNL     1       2.835   2.072  19.081  0.00  0.00    +0.000 NA
ATOM      5  C   UNL     1       2.639   3.338  19.527  0.00  0.00    +0.000 A 
ATOM      6  C   UNL     1       1.901   3.687  20.712  0.00  0.00    +0.000 A 
ATOM      7  C   UNL     1       1.264   2.712  21.644  0.00  0.00    +0.000 C 
ATOM      8  C   UNL     1       1.864   5.056  20.890  0.00  0.00    +0.000 A 
ATOM      9  S   UNL     1       2.718   5.901  19.683  0.00  0.00    +0.000 S 
ATOM     10  C   UNL     1       3.164   4.450  18.871  0.00  0.00    +0.000 A 
ENDROOT
BRANCH   1  11
ATOM     11  S   UNL     1       4.734   5.595  16.909  0.00  0.00    +0.000 S 
BRANCH  11  12
ATOM     12  C   UNL     1       6.119   5.937  18.042  0.00  0.00    +0.000 C 
BRANCH  12  13
ATOM     13  C   UNL     1       7.288   6.547  17.288  0.00  0.00    +0.000 C 
ATOM     14  O   UNL     1       7.570   6.374  16.107  0.00  0.00    +0.000 OA
BRANCH  13  16
ATOM     15  C   UNL     1       7.946   8.736  17.773  0.00  0.00    +0.000 C 
ATOM     16  O   UNL     1       8.005   7.352  18.128  0.00  0.00    +0.000 OA
ENDBRANCH  13  16
ENDBRANCH  12  13
ENDBRANCH  11  12
ENDBRANCH   1  11
TORSDOF 4
ENDMDL
MODEL 4
REMARK VINA RESULT:      -6.1      0.859      1.239
REMARK  Name = 
REMARK  6 active torsions:
REMARK  status: ('A' for Active; 'I' for Inactive)
REMARK    1  A    between atoms: C_1  and  O_2
REMARK    2  A    between atoms: O_2  and  C_3
REMARK    3  A    between atoms: C_3  and  C_5
REMARK    4  A    between atoms: C_5  and  S_6
REMARK    5  A    between atoms: S_6  and  C_7
REMARK    6  A    between atoms: C_12  and  C_13
REMARK                            x       y       z     vdW  Elec       q    Type
REMARK                         _______ _______ _______ _____ _____    ______ ____
ROOT
ATOM      1  C   UNL     1       4.002   4.959  17.477  0.00  0.00    +0.000 A 
ATOM      2  N   UNL     1       4.324   3.736  17.006  0.00  0.00    +0.000 NA
ATOM      3  C   UNL     1       3.860   2.669  17.671  0.00  0.00    +0.000 A 
ATOM      4  N   UNL     1       3.099   2.661  18.768  0.00  0.00    +0.000 NA
ATOM      5  C   UNL     1       2.769   3.891  19.234  0.00  0.00    +0.000 A 
ATOM      6  C   UNL     1       1.979   4.139  20.410  0.00  0.00    +0.000 A 
ATOM      7  C   UNL     1       1.426   3.087  21.310  0.00  0.00    +0.000 C 
ATOM      8  C   UNL     1       1.802   5.493  20.613  0.00  0.00    +0.000 A 
ATOM      9  S   UNL     1       2.589   6.445  19.441  0.00  0.00    +0.000 S 
ATOM     10  C   UNL     1       3.193   5.063  18.611  0.00  0.00    +0.000 A 
ENDROOT
BRANCH   1  11
ATOM     11  S   UNL     1       4.677   6.400  16.703  0.00  0.00    +0.000 S 
BRANCH  11  12
ATOM     12  C   UNL     1       6.430   6.285  17.186  0.00  0.00    +0.000 C 
BRANCH  12  13
ATOM     13  C   UNL     1       7.207   5.454  16.179  0.00  0.00    +0.000 C 
ATOM     14  O   UNL     1       7.250   5.622  14.966  0.00  0.00    +0.000 OA
BRANCH  13  16
ATOM     15  C   UNL     1       7.846   4.592  18.255  0.00  0.00    +0.000 C 
ATOM     16  O   UNL     1       7.885   4.463  16.832  0.00  0.00    +0.000 OA
ENDBRANCH  13  16
ENDBRANCH  12  13
ENDBRANCH  11  12
ENDBRANCH   1  11
TORSDOF 4
ENDMDL
MODEL 5
REMARK VINA RESULT:      -6.0      1.986      2.393
REMARK  Name = 
REMARK  6 active torsions:
REMARK  status: ('A' for Active; 'I' for Inactive)
REMARK    1  A    between atoms: C_1  and  O_2
REMARK    2  A    between atoms: O_2  and  C_3
REMARK    3  A    between atoms: C_3  and  C_5
REMARK    4  A    between atoms: C_5  and  S_6
REMARK    5  A    between atoms: S_6  and  C_7
REMARK    6  A    between atoms: C_12  and  C_13
REMARK                            x       y       z     vdW  Elec       q    Type
REMARK                         _______ _______ _______ _____ _____    ______ ____
ROOT
ATOM      1  C   UNL     1       4.370   5.028  17.248  0.00  0.00    +0.000 A 
ATOM      2  N   UNL     1       4.121   6.345  17.414  0.00  0.00    +0.000 NA
ATOM      3  C   UNL     1       3.143   6.692  18.263  0.00  0.00    +0.000 A 
ATOM      4  N   UNL     1       2.364   5.882  18.983  0.00  0.00    +0.000 NA
ATOM      5  C   UNL     1       2.621   4.561  18.821  0.00  0.00    +0.000 A 
ATOM      6  C   UNL     1       1.904   3.497  19.472  0.00  0.00    +0.000 A 
ATOM      7  C   UNL     1       0.752   3.682  20.400  0.00  0.00    +0.000 C 
ATOM      8  C   UNL     1       2.413   2.263  19.117  0.00  0.00    +0.000 A 
ATOM      9  S   UNL     1       3.700   2.375  18.008  0.00  0.00    +0.000 S 
ATOM     10  C   UNL     1       3.622   4.095  17.970  0.00  0.00    +0.000 A 
ENDROOT
BRANCH   1  11
ATOM     11  S   UNL     1       5.574   4.509  16.060  0.00  0.00    +0.000 S 
BRANCH  11  12
ATOM     12  C   UNL     1       6.940   5.667  16.398  0.00  0.00    +0.000 C 
BRANCH  12  13
ATOM     13  C   UNL     1       7.511   5.428  17.786  0.00  0.00    +0.000 C 
ATOM     14  O   UNL     1       7.682   4.344  18.332  0.00  0.00    +0.000 OA
BRANCH  13  16
ATOM     15  C   UNL     1       7.584   7.747  17.509  0.00  0.00    +0.000 C 
ATOM     16  O   UNL     1       7.828   6.625  18.362  0.00  0.00    +0.000 OA
ENDBRANCH  13  16
ENDBRANCH  12  13
ENDBRANCH  11  12
ENDBRANCH   1  11
TORSDOF 4
ENDMDL
MODEL 6
REMARK VINA RESULT:      -6.0      1.994      2.648
REMARK  Name = 
REMARK  6 active torsions:
REMARK  status: ('A' for Active; 'I' for Inactive)
REMARK    1  A    between atoms: C_1  and  O_2
REMARK    2  A    between atoms: O_2  and  C_3
REMARK    3  A    between atoms: C_3  and  C_5
REMARK    4  A    between atoms: C_5  and  S_6
REMARK    5  A    between atoms: S_6  and  C_7
REMARK    6  A    between atoms: C_12  and  C_13
REMARK                            x       y       z     vdW  Elec       q    Type
REMARK                         _______ _______ _______ _____ _____    ______ ____
ROOT
ATOM      1  C   UNL     1       3.682   6.033  18.360  0.00  0.00    +0.000 A 
ATOM      2  N   UNL     1       2.993   7.092  18.836  0.00  0.00    +0.000 NA
ATOM      3  C   UNL     1       2.174   6.887  19.877  0.00  0.00    +0.000 A 
ATOM      4  N   UNL     1       1.947   5.741  20.521  0.00  0.00    +0.000 NA
ATOM      5  C   UNL     1       2.647   4.680  20.047  0.00  0.00    +0.000 A 
ATOM      6  C   UNL     1       2.556   3.339  20.562  0.00  0.00    +0.000 A 
ATOM      7  C   UNL     1       1.661   2.905  21.672  0.00  0.00    +0.000 C 
ATOM      8  C   UNL     1       3.405   2.488  19.882  0.00  0.00    +0.000 A 
ATOM      9  S   UNL     1       4.267   3.268  18.639  0.00  0.00    +0.000 S 
ATOM     10  C   UNL     1       3.531   4.789  18.976  0.00  0.00    +0.000 A 
ENDROOT
BRANCH   1  11
ATOM     11  S   UNL     1       4.693   6.223  16.921  0.00  0.00    +0.000 S 
BRANCH  11  12
ATOM     12  C   UNL     1       6.363   6.239  17.650  0.00  0.00    +0.000 C 
BRANCH  12  13
ATOM     13  C   UNL     1       7.306   5.361  16.844  0.00  0.00    +0.000 C 
ATOM     14  O   UNL     1       7.933   4.390  17.253  0.00  0.00    +0.000 OA
BRANCH  13  16
ATOM     15  C   UNL     1       7.045   4.796  14.592  0.00  0.00    +0.000 C 
ATOM     16  O   UNL     1       7.356   5.807  15.554  0.00  0.00    +0.000 OA
ENDBRANCH  13  16
ENDBRANCH  12  13
ENDBRANCH  11  12
ENDBRANCH   1  11
TORSDOF 4
ENDMDL
MODEL 7
REMARK VINA RESULT:      -6.0      1.301      1.970
REMARK  Name = 
REMARK  6 active torsions:
REMARK  status: ('A' for Active; 'I' for Inactive)
REMARK    1  A    between atoms: C_1  and  O_2
REMARK    2  A    between atoms: O_2  and  C_3
REMARK    3  A    between atoms: C_3  and  C_5
REMARK    4  A    between atoms: C_5  and  S_6
REMARK    5  A    between atoms: S_6  and  C_7
REMARK    6  A    between atoms: C_12  and  C_13
REMARK                            x       y       z     vdW  Elec       q    Type
REMARK                         _______ _______ _______ _____ _____    ______ ____
ROOT
ATOM      1  C   UNL     1       4.111   4.600  17.676  0.00  0.00    +0.000 A 
ATOM      2  N   UNL     1       4.322   3.366  17.169  0.00  0.00    +0.000 NA
ATOM      3  C   UNL     1       3.724   2.332  17.777  0.00  0.00    +0.000 A 
ATOM      4  N   UNL     1       2.926   2.366  18.846  0.00  0.00    +0.000 NA
ATOM      5  C   UNL     1       2.709   3.606  19.349  0.00  0.00    +0.000 A 
ATOM      6  C   UNL     1       1.905   3.895  20.506  0.00  0.00    +0.000 A 
ATOM      7  C   UNL     1       1.211   2.877  21.345  0.00  0.00    +0.000 C 
ATOM      8  C   UNL     1       1.862   5.253  20.755  0.00  0.00    +0.000 A 
ATOM      9  S   UNL     1       2.788   6.157  19.648  0.00  0.00    +0.000 S 
ATOM     10  C   UNL     1       3.276   4.748  18.786  0.00  0.00    +0.000 A 
ENDROOT
BRANCH   1  11
ATOM     11  S   UNL     1       4.961   5.988  16.982  0.00  0.00    +0.000 S 
BRANCH  11  12
ATOM     12  C   UNL     1       5.173   5.456  15.252  0.00  0.00    +0.000 C 
BRANCH  12  13
ATOM     13  C   UNL     1       6.584   4.943  15.020  0.00  0.00    +0.000 C 
ATOM     14  O   UNL     1       7.629   5.522  15.297  0.00  0.00    +0.000 OA
BRANCH  13  16
ATOM     15  C   UNL     1       6.219   3.733  13.055  0.00  0.00    +0.000 C 
ATOM     16  O   UNL     1       6.532   3.703  14.450  0.00  0.00    +0.000 OA
ENDBRANCH  13  16
ENDBRANCH  12  13
ENDBRANCH  11  12
ENDBRANCH   1  11
TORSDOF 4
ENDMDL
MODEL 8
REMARK VINA RESULT:      -6.0      0.789      1.126
REMARK  Name = 
REMARK  6 active torsions:
REMARK  status: ('A' for Active; 'I' for Inactive)
REMARK    1  A    between atoms: C_1  and  O_2
REMARK    2  A    between atoms: O_2  and  C_3
REMARK    3  A    between atoms: C_3  and  C_5
REMARK    4  A    between atoms: C_5  and  S_6
REMARK    5  A    between atoms: S_6  and  C_7
REMARK    6  A    between atoms: C_12  and  C_13
REMARK                            x       y       z     vdW  Elec       q    Type
REMARK                         _______ _______ _______ _____ _____    ______ ____
ROOT
ATOM      1  C   UNL     1       3.857   5.034  17.701  0.00  0.00    +0.000 A 
ATOM      2  N   UNL     1       4.229   3.859  17.150  0.00  0.00    +0.000 NA
ATOM      3  C   UNL     1       3.804   2.732  17.739  0.00  0.00    +0.000 A 
ATOM      4  N   UNL     1       3.039   2.619  18.827  0.00  0.00    +0.000 NA
ATOM      5  C   UNL     1       2.660   3.801  19.374  0.00  0.00    +0.000 A 
ATOM      6  C   UNL     1       1.855   3.938  20.558  0.00  0.00    +0.000 A 
ATOM      7  C   UNL     1       1.340   2.806  21.381  0.00  0.00    +0.000 C 
ATOM      8  C   UNL     1       1.624   5.267  20.852  0.00  0.00    +0.000 A 
ATOM      9  S   UNL     1       2.378   6.326  19.753  0.00  0.00    +0.000 S 
ATOM     10  C   UNL     1       3.040   5.028  18.834  0.00  0.00    +0.000 A 
ENDROOT
BRANCH   1  11
ATOM     11  S   UNL     1       4.478   6.549  17.032  0.00  0.00    +0.000 S 
BRANCH  11  12
ATOM     12  C   UNL     1       6.030   5.995  16.255  0.00  0.00    +0.000 C 
BRANCH  12  13
ATOM     13  C   UNL     1       7.228   6.452  17.070  0.00  0.00    +0.000 C 
ATOM     14  O   UNL     1       7.752   7.560  17.045  0.00  0.00    +0.000 OA
BRANCH  13  16
ATOM     15  C   UNL     1       7.696   5.780  19.258  0.00  0.00    +0.000 C 
ATOM     16  O   UNL     1       7.652   5.431  17.872  0.00  0.00    +0.000 OA
ENDBRANCH  13  16
ENDBRANCH  12  13
ENDBRANCH  11  12
ENDBRANCH   1  11
TORSDOF 4
ENDMDL
MODEL 9
REMARK VINA RESULT:      -6.0      1.948      2.449
REMARK  Name = 
REMARK  6 active torsions:
REMARK  status: ('A' for Active; 'I' for Inactive)
REMARK    1  A    between atoms: C_1  and  O_2
REMARK    2  A    between atoms: O_2  and  C_3
REMARK    3  A    between atoms: C_3  and  C_5
REMARK    4  A    between atoms: C_5  and  S_6
REMARK    5  A    between atoms: S_6  and  C_7
REMARK    6  A    between atoms: C_12  and  C_13
REMARK                            x       y       z     vdW  Elec       q    Type
REMARK                         _______ _______ _______ _____ _____    ______ ____
ROOT
ATOM      1  C   UNL     1       4.079   5.006  17.319  0.00  0.00    +0.000 A 
ATOM      2  N   UNL     1       3.983   6.276  17.767  0.00  0.00    +0.000 NA
ATOM      3  C   UNL     1       3.275   6.492  18.884  0.00  0.00    +0.000 A 
ATOM      4  N   UNL     1       2.636   5.589  19.631  0.00  0.00    +0.000 NA
ATOM      5  C   UNL     1       2.741   4.313  19.185  0.00  0.00    +0.000 A 
ATOM      6  C   UNL     1       2.124   3.171  19.807  0.00  0.00    +0.000 A 
ATOM      7  C   UNL     1       1.255   3.219  21.016  0.00  0.00    +0.000 C 
ATOM      8  C   UNL     1       2.432   2.009  19.127  0.00  0.00    +0.000 A 
ATOM      9  S   UNL     1       3.411   2.282  17.761  0.00  0.00    +0.000 S 
ATOM     10  C   UNL     1       3.461   3.981  18.039  0.00  0.00    +0.000 A 
ENDROOT
BRANCH   1  11
ATOM     11  S   UNL     1       4.908   4.677  15.792  0.00  0.00    +0.000 S 
BRANCH  11  12
ATOM     12  C   UNL     1       6.519   4.060  16.379  0.00  0.00    +0.000 C 
BRANCH  12  13
ATOM     13  C   UNL     1       7.305   5.174  17.051  0.00  0.00    +0.000 C 
ATOM     14  O   UNL     1       7.530   6.290  16.596  0.00  0.00    +0.000 OA
BRANCH  13  16
ATOM     15  C   UNL     1       7.710   5.786  19.269  0.00  0.00    +0.000 C 
ATOM     16  O   UNL     1       7.733   4.755  18.278  0.00  0.00    +0.000 OA
ENDBRANCH  13  16
ENDBRANCH  12  13
ENDBRANCH  11  12
ENDBRANCH   1  11
TORSDOF 4
ENDMDL
