MODEL 1
REMARK VINA RESULT:      -8.7      0.000      0.000
REMARK  Name = 
REMARK  6 active torsions:
REMARK  status: ('A' for Active; 'I' for Inactive)
REMARK    1  A    between atoms: C_11  and  C_12
REMARK    2  A    between atoms: N_20  and  C1*_21
REMARK    3  A    between atoms: C4*_23  and  C5*_24
REMARK    4  A    between atoms: C5*_24  and  O5*_25
REMARK    5  A    between atoms: C3*_26  and  O3*_27
REMARK    6  A    between atoms: C2*_28  and  O2*_29
REMARK                            x       y       z     vdW  Elec       q    Type
REMARK                         _______ _______ _______ _____ _____    ______ ____
ROOT
ATOM      1  C   UNL     1       4.245   5.984  17.249  0.00  0.00    +0.000 A 
ATOM      2  N   UNL     1       3.871   7.216  17.542  0.00  0.00    +0.000 NA
ATOM      3  C   UNL     1       3.030   7.118  18.616  0.00  0.00    +0.000 A 
ATOM      4  C   UNL     1       2.386   8.134  19.342  0.00  0.00    +0.000 A 
ATOM      5  C   UNL     1       1.541   7.784  20.401  0.00  0.00    +0.000 A 
ATOM      6  C   UNL     1       1.342   6.449  20.737  0.00  0.00    +0.000 A 
ATOM      7  C   UNL     1       1.990   5.431  20.034  0.00  0.00    +0.000 A 
ATOM      8  C   UNL     1       2.832   5.791  18.972  0.00  0.00    +0.000 A 
ATOM      9  N   UNL     1       3.614   5.070  18.085  0.00  0.00    +0.000 N 
ENDROOT
BRANCH   1  20
ATOM     10  O   UNL     1       7.023   6.648  17.189  0.00  0.00    +0.000 OA
ATOM     11  C   UNL     1       6.551   6.011  16.254  0.00  0.00    +0.000 A 
ATOM     12  O   UNL     1       7.350   5.631  15.176  0.00  0.00    +0.000 OA
ATOM     13  C   UNL     1       6.848   4.849  14.120  0.00  0.00    +0.000 A 
ATOM     14  C   UNL     1       7.733   4.510  13.098  0.00  0.00    +0.000 A 
ATOM     15  C   UNL     1       7.276   3.727  12.040  0.00  0.00    +0.000 A 
ATOM     16  C   UNL     1       5.950   3.293  12.015  0.00  0.00    +0.000 A 
ATOM     17  C   UNL     1       5.072   3.645  13.048  0.00  0.00    +0.000 A 
ATOM     18  C   UNL     1       5.521   4.431  14.111  0.00  0.00    +0.000 A 
ATOM     19  C   UNL     1       4.648   4.838  15.202  0.00  0.00    +0.000 A 
ATOM     20  C   UNL     1       5.132   5.570  16.221  0.00  0.00    +0.000 A 
ENDBRANCH   1  20
BRANCH   9  21
ATOM     21  C1* UNL     1       3.704   3.619  18.021  0.00  0.00    +0.000 C 
ATOM     22  O4* UNL     1       2.441   3.084  17.559  0.00  0.00    +0.000 OA
ATOM     23  C4* UNL     1       2.235   1.788  18.174  0.00  0.00    +0.000 C 
ATOM     24  C3* UNL     1       3.416   1.539  19.113  0.00  0.00    +0.000 C 
ATOM     25  C2* UNL     1       4.012   2.922  19.345  0.00  0.00    +0.000 C 
BRANCH  24  26
ATOM     26  O3* UNL     1       4.424   0.717  18.495  0.00  0.00    +0.000 OA
ATOM     27  H3* UNL     1       5.250   1.223  18.403  0.00  0.00    +0.000 HD
ENDBRANCH  24  26
BRANCH  25  28
ATOM     28  O2* UNL     1       5.405   2.843  19.624  0.00  0.00    +0.000 OA
ATOM     29  H2* UNL     1       5.686   3.725  19.946  0.00  0.00    +0.000 HD
ENDBRANCH  25  28
BRANCH  23  30
ATOM     30  C5* UNL     1       0.879   1.766  18.885  0.00  0.00    +0.000 C 
BRANCH  30  31
ATOM     31  O5* UNL     1       0.081   2.870  18.469  0.00  0.00    +0.000 OA
ATOM     32  H5* UNL     1      -0.813   2.523  18.288  0.00  0.00    +0.000 HD
ENDBRANCH  30  31
ENDBRANCH  23  30
ENDBRANCH   9  21
TORSDOF 6
ENDMDL
MODEL 2
REMARK VINA RESULT:      -8.6      1.064      1.173
REMARK  Name = 
REMARK  6 active torsions:
REMARK  status: ('A' for Active; 'I' for Inactive)
REMARK    1  A    between atoms: C_11  and  C_12
REMARK    2  A    between atoms: N_20  and  C1*_21
REMARK    3  A    between atoms: C4*_23  and  C5*_24
REMARK    4  A    between atoms: C5*_24  and  O5*_25
REMARK    5  A    between atoms: C3*_26  and  O3*_27
REMARK    6  A    between atoms: C2*_28  and  O2*_29
REMARK                            x       y       z     vdW  Elec       q    Type
REMARK                         _______ _______ _______ _____ _____    ______ ____
ROOT
ATOM      1  C   UNL     1       4.068   6.386  17.396  0.00  0.00    +0.000 A 
ATOM      2  N   UNL     1       3.650   7.634  17.513  0.00  0.00    +0.000 NA
ATOM      3  C   UNL     1       2.801   7.656  18.584  0.00  0.00    +0.000 A 
ATOM      4  C   UNL     1       2.116   8.741  19.157  0.00  0.00    +0.000 A 
ATOM      5  C   UNL     1       1.270   8.512  20.248  0.00  0.00    +0.000 A 
ATOM      6  C   UNL     1       1.111   7.230  20.765  0.00  0.00    +0.000 A 
ATOM      7  C   UNL     1       1.801   6.148  20.215  0.00  0.00    +0.000 A 
ATOM      8  C   UNL     1       2.643   6.386  19.119  0.00  0.00    +0.000 A 
ATOM      9  N   UNL     1       3.459   5.576  18.347  0.00  0.00    +0.000 N 
ENDROOT
BRANCH   1  20
ATOM     10  O   UNL     1       6.889   6.833  17.489  0.00  0.00    +0.000 OA
ATOM     11  C   UNL     1       6.426   6.197  16.550  0.00  0.00    +0.000 A 
ATOM     12  O   UNL     1       7.256   5.714  15.539  0.00  0.00    +0.000 OA
ATOM     13  C   UNL     1       6.759   4.931  14.480  0.00  0.00    +0.000 A 
ATOM     14  C   UNL     1       7.675   4.485  13.529  0.00  0.00    +0.000 A 
ATOM     15  C   UNL     1       7.222   3.697  12.473  0.00  0.00    +0.000 A 
ATOM     16  C   UNL     1       5.870   3.366  12.379  0.00  0.00    +0.000 A 
ATOM     17  C   UNL     1       4.962   3.824  13.341  0.00  0.00    +0.000 A 
ATOM     18  C   UNL     1       5.406   4.616  14.402  0.00  0.00    +0.000 A 
ATOM     19  C   UNL     1       4.503   5.132  15.420  0.00  0.00    +0.000 A 
ATOM     20  C   UNL     1       4.981   5.865  16.442  0.00  0.00    +0.000 A 
ENDBRANCH   1  20
BRANCH   9  21
ATOM     21  C1* UNL     1       3.598   4.134  18.486  0.00  0.00    +0.000 C 
ATOM     22  O4* UNL     1       2.312   3.563  18.823  0.00  0.00    +0.000 OA
ATOM     23  C4* UNL     1       2.527   2.400  19.662  0.00  0.00    +0.000 C 
ATOM     24  C3* UNL     1       4.034   2.286  19.898  0.00  0.00    +0.000 C 
ATOM     25  C2* UNL     1       4.575   3.670  19.564  0.00  0.00    +0.000 C 
BRANCH  24  26
ATOM     26  O3* UNL     1       4.643   1.340  18.999  0.00  0.00    +0.000 OA
ATOM     27  H3* UNL     1       4.872   1.782  18.163  0.00  0.00    +0.000 HD
ENDBRANCH  24  26
BRANCH  25  28
ATOM     28  O2* UNL     1       5.921   3.602  19.107  0.00  0.00    +0.000 OA
ATOM     29  H2* UNL     1       6.080   2.682  18.810  0.00  0.00    +0.000 HD
ENDBRANCH  25  28
BRANCH  23  30
ATOM     30  C5* UNL     1       1.719   2.541  20.955  0.00  0.00    +0.000 C 
BRANCH  30  31
ATOM     31  O5* UNL     1       2.587   2.540  22.085  0.00  0.00    +0.000 OA
ATOM     32  H5* UNL     1       2.147   3.066  22.781  0.00  0.00    +0.000 HD
ENDBRANCH  30  31
ENDBRANCH  23  30
ENDBRANCH   9  21
TORSDOF 6
ENDMDL
MODEL 3
REMARK VINA RESULT:      -8.0      2.355      6.765
REMARK  Name = 
REMARK  6 active torsions:
REMARK  status: ('A' for Active; 'I' for Inactive)
REMARK    1  A    between atoms: C_11  and  C_12
REMARK    2  A    between atoms: N_20  and  C1*_21
REMARK    3  A    between atoms: C4*_23  and  C5*_24
REMARK    4  A    between atoms: C5*_24  and  O5*_25
REMARK    5  A    between atoms: C3*_26  and  O3*_27
REMARK    6  A    between atoms: C2*_28  and  O2*_29
REMARK                            x       y       z     vdW  Elec       q    Type
REMARK                         _______ _______ _______ _____ _____    ______ ____
ROOT
ATOM      1  C   UNL     1       3.292   7.052  17.968  0.00  0.00    +0.000 A 
ATOM      2  N   UNL     1       4.241   7.440  17.136  0.00  0.00    +0.000 NA
ATOM      3  C   UNL     1       4.828   6.299  16.663  0.00  0.00    +0.000 A 
ATOM      4  C   UNL     1       5.862   6.152  15.724  0.00  0.00    +0.000 A 
ATOM      5  C   UNL     1       6.321   4.866  15.413  0.00  0.00    +0.000 A 
ATOM      6  C   UNL     1       5.760   3.747  16.019  0.00  0.00    +0.000 A 
ATOM      7  C   UNL     1       4.719   3.882  16.942  0.00  0.00    +0.000 A 
ATOM      8  C   UNL     1       4.269   5.173  17.250  0.00  0.00    +0.000 A 
ATOM      9  N   UNL     1       3.285   5.667  18.090  0.00  0.00    +0.000 N 
ENDROOT
BRANCH   1  20
ATOM     10  O   UNL     1       2.023   9.369  16.882  0.00  0.00    +0.000 OA
ATOM     11  C   UNL     1       1.822   9.087  18.057  0.00  0.00    +0.000 A 
ATOM     12  O   UNL     1       1.003   9.888  18.852  0.00  0.00    +0.000 OA
ATOM     13  C   UNL     1       0.708   9.553  20.187  0.00  0.00    +0.000 A 
ATOM     14  C   UNL     1      -0.134  10.413  20.891  0.00  0.00    +0.000 A 
ATOM     15  C   UNL     1      -0.459  10.109  22.211  0.00  0.00    +0.000 A 
ATOM     16  C   UNL     1       0.057   8.959  22.809  0.00  0.00    +0.000 A 
ATOM     17  C   UNL     1       0.903   8.107  22.090  0.00  0.00    +0.000 A 
ATOM     18  C   UNL     1       1.236   8.405  20.767  0.00  0.00    +0.000 A 
ATOM     19  C   UNL     1       2.123   7.563  19.978  0.00  0.00    +0.000 A 
ATOM     20  C   UNL     1       2.390   7.872  18.697  0.00  0.00    +0.000 A 
ENDBRANCH   1  20
BRANCH   9  21
ATOM     21  C1* UNL     1       2.444   4.871  18.972  0.00  0.00    +0.000 C 
ATOM     22  O4* UNL     1       3.224   4.443  20.114  0.00  0.00    +0.000 OA
ATOM     23  C4* UNL     1       2.737   3.149  20.547  0.00  0.00    +0.000 C 
ATOM     24  C3* UNL     1       1.630   2.733  19.578  0.00  0.00    +0.000 C 
ATOM     25  C2* UNL     1       1.856   3.606  18.350  0.00  0.00    +0.000 C 
BRANCH  24  26
ATOM     26  O3* UNL     1       0.322   3.032  20.103  0.00  0.00    +0.000 OA
ATOM     27  H3* UNL     1       0.221   3.995  20.203  0.00  0.00    +0.000 HD
ENDBRANCH  24  26
BRANCH  25  28
ATOM     28  O2* UNL     1       0.638   3.841  17.652  0.00  0.00    +0.000 OA
ATOM     29  H2* UNL     1       0.293   2.968  17.371  0.00  0.00    +0.000 HD
ENDBRANCH  25  28
BRANCH  23  30
ATOM     30  C5* UNL     1       3.900   2.154  20.603  0.00  0.00    +0.000 C 
BRANCH  30  31
ATOM     31  O5* UNL     1       5.028   2.668  19.900  0.00  0.00    +0.000 OA
ATOM     32  H5* UNL     1       4.692   3.340  19.277  0.00  0.00    +0.000 HD
ENDBRANCH  30  31
ENDBRANCH  23  30
ENDBRANCH   9  21
TORSDOF 6
ENDMDL
MODEL 4
REMARK VINA RESULT:      -7.4      2.153      6.421
REMARK  Name = 
REMARK  6 active torsions:
REMARK  status: ('A' for Active; 'I' for Inactive)
REMARK    1  A    between atoms: C_11  and  C_12
REMARK    2  A    between atoms: N_20  and  C1*_21
REMARK    3  A    between atoms: C4*_23  and  C5*_24
REMARK    4  A    between atoms: C5*_24  and  O5*_25
REMARK    5  A    between atoms: C3*_26  and  O3*_27
REMARK    6  A    between atoms: C2*_28  and  O2*_29
REMARK                            x       y       z     vdW  Elec       q    Type
REMARK                         _______ _______ _______ _____ _____    ______ ____
ROOT
ATOM      1  C   UNL     1       3.689   6.750  17.650  0.00  0.00    +0.000 A 
ATOM      2  N   UNL     1       4.675   7.209  16.900  0.00  0.00    +0.000 NA
ATOM      3  C   UNL     1       5.259   6.116  16.322  0.00  0.00    +0.000 A 
ATOM      4  C   UNL     1       6.325   6.052  15.408  0.00  0.00    +0.000 A 
ATOM      5  C   UNL     1       6.772   4.800  14.970  0.00  0.00    +0.000 A 
ATOM      6  C   UNL     1       6.169   3.633  15.427  0.00  0.00    +0.000 A 
ATOM      7  C   UNL     1       5.099   3.685  16.322  0.00  0.00    +0.000 A 
ATOM      8  C   UNL     1       4.660   4.943  16.759  0.00  0.00    +0.000 A 
ATOM      9  N   UNL     1       3.654   5.361  17.615  0.00  0.00    +0.000 N 
ENDROOT
BRANCH   1  20
ATOM     10  O   UNL     1       3.183   6.246  20.416  0.00  0.00    +0.000 OA
ATOM     11  C   UNL     1       2.545   7.128  19.854  0.00  0.00    +0.000 A 
ATOM     12  O   UNL     1       1.581   7.862  20.545  0.00  0.00    +0.000 OA
ATOM     13  C   UNL     1       0.877   8.919  19.940  0.00  0.00    +0.000 A 
ATOM     14  C   UNL     1      -0.054   9.599  20.724  0.00  0.00    +0.000 A 
ATOM     15  C   UNL     1      -0.763  10.660  20.163  0.00  0.00    +0.000 A 
ATOM     16  C   UNL     1      -0.534  11.028  18.836  0.00  0.00    +0.000 A 
ATOM     17  C   UNL     1       0.403  10.333  18.062  0.00  0.00    +0.000 A 
ATOM     18  C   UNL     1       1.116   9.268  18.615  0.00  0.00    +0.000 A 
ATOM     19  C   UNL     1       2.090   8.502  17.851  0.00  0.00    +0.000 A 
ATOM     20  C   UNL     1       2.776   7.503  18.435  0.00  0.00    +0.000 A 
ENDBRANCH   1  20
BRANCH   9  21
ATOM     21  C1* UNL     1       2.768   4.489  18.371  0.00  0.00    +0.000 C 
ATOM     22  O4* UNL     1       3.562   3.621  19.214  0.00  0.00    +0.000 OA
ATOM     23  C4* UNL     1       2.871   2.354  19.354  0.00  0.00    +0.000 C 
ATOM     24  C3* UNL     1       1.605   2.432  18.500  0.00  0.00    +0.000 C 
ATOM     25  C2* UNL     1       1.872   3.579  17.534  0.00  0.00    +0.000 C 
BRANCH  24  26
ATOM     26  O3* UNL     1       0.450   2.772  19.289  0.00  0.00    +0.000 OA
ATOM     27  H3* UNL     1      -0.044   1.964  19.514  0.00  0.00    +0.000 HD
ENDBRANCH  24  26
BRANCH  25  28
ATOM     28  O2* UNL     1       0.659   4.207  17.130  0.00  0.00    +0.000 OA
ATOM     29  H2* UNL     1       0.661   5.110  17.509  0.00  0.00    +0.000 HD
ENDBRANCH  25  28
BRANCH  23  30
ATOM     30  C5* UNL     1       3.806   1.211  18.952  0.00  0.00    +0.000 C 
BRANCH  30  31
ATOM     31  O5* UNL     1       5.026   1.285  19.685  0.00  0.00    +0.000 OA
ATOM     32  H5* UNL     1       5.402   0.384  19.702  0.00  0.00    +0.000 HD
ENDBRANCH  30  31
ENDBRANCH  23  30
ENDBRANCH   9  21
TORSDOF 6
ENDMDL
MODEL 5
REMARK VINA RESULT:      -6.9      9.003     12.646
REMARK  Name = 
REMARK  6 active torsions:
REMARK  status: ('A' for Active; 'I' for Inactive)
REMARK    1  A    between atoms: C_11  and  C_12
REMARK    2  A    between atoms: N_20  and  C1*_21
REMARK    3  A    between atoms: C4*_23  and  C5*_24
REMARK    4  A    between atoms: C5*_24  and  O5*_25
REMARK    5  A    between atoms: C3*_26  and  O3*_27
REMARK    6  A    between atoms: C2*_28  and  O2*_29
REMARK                            x       y       z     vdW  Elec       q    Type
REMARK                         _______ _______ _______ _____ _____    ______ ____
ROOT
ATOM      1  C   UNL     1      -3.098  13.804  21.338  0.00  0.00    +0.000 A 
ATOM      2  N   UNL     1      -2.724  15.069  21.406  0.00  0.00    +0.000 NA
ATOM      3  C   UNL     1      -3.784  15.807  20.960  0.00  0.00    +0.000 A 
ATOM      4  C   UNL     1      -3.923  17.203  20.865  0.00  0.00    +0.000 A 
ATOM      5  C   UNL     1      -5.109  17.735  20.346  0.00  0.00    +0.000 A 
ATOM      6  C   UNL     1      -6.140  16.898  19.933  0.00  0.00    +0.000 A 
ATOM      7  C   UNL     1      -6.020  15.511  20.038  0.00  0.00    +0.000 A 
ATOM      8  C   UNL     1      -4.827  14.986  20.556  0.00  0.00    +0.000 A 
ATOM      9  N   UNL     1      -4.375  13.700  20.800  0.00  0.00    +0.000 N 
ENDROOT
BRANCH   1  20
ATOM     10  O   UNL     1      -3.316  12.523  23.883  0.00  0.00    +0.000 OA
ATOM     11  C   UNL     1      -2.496  12.096  23.079  0.00  0.00    +0.000 A 
ATOM     12  O   UNL     1      -1.675  11.017  23.405  0.00  0.00    +0.000 OA
ATOM     13  C   UNL     1      -0.767  10.469  22.480  0.00  0.00    +0.000 A 
ATOM     14  C   UNL     1      -0.003   9.381  22.901  0.00  0.00    +0.000 A 
ATOM     15  C   UNL     1       0.899   8.804  22.009  0.00  0.00    +0.000 A 
ATOM     16  C   UNL     1       1.027   9.316  20.717  0.00  0.00    +0.000 A 
ATOM     17  C   UNL     1       0.255  10.411  20.311  0.00  0.00    +0.000 A 
ATOM     18  C   UNL     1      -0.650  10.997  21.198  0.00  0.00    +0.000 A 
ATOM     19  C   UNL     1      -1.465  12.146  20.834  0.00  0.00    +0.000 A 
ATOM     20  C   UNL     1      -2.347  12.658  21.712  0.00  0.00    +0.000 A 
ENDBRANCH   1  20
BRANCH   9  21
ATOM     21  C1* UNL     1      -5.098  12.475  20.492  0.00  0.00    +0.000 C 
ATOM     22  O4* UNL     1      -5.107  12.275  19.059  0.00  0.00    +0.000 OA
ATOM     23  C4* UNL     1      -6.339  11.607  18.692  0.00  0.00    +0.000 C 
ATOM     24  C3* UNL     1      -7.160  11.437  19.972  0.00  0.00    +0.000 C 
ATOM     25  C2* UNL     1      -6.556  12.442  20.944  0.00  0.00    +0.000 C 
BRANCH  24  26
ATOM     26  O3* UNL     1      -7.000  10.121  20.535  0.00  0.00    +0.000 OA
ATOM     27  H3* UNL     1      -6.081  10.000  20.834  0.00  0.00    +0.000 HD
ENDBRANCH  24  26
BRANCH  25  28
ATOM     28  O2* UNL     1      -6.714  12.016  22.293  0.00  0.00    +0.000 OA
ATOM     29  H2* UNL     1      -6.877  12.817  22.832  0.00  0.00    +0.000 HD
ENDBRANCH  25  28
BRANCH  23  30
ATOM     30  C5* UNL     1      -7.062  12.415  17.611  0.00  0.00    +0.000 C 
BRANCH  30  31
ATOM     31  O5* UNL     1      -6.226  13.466  17.134  0.00  0.00    +0.000 OA
ATOM     32  H5* UNL     1      -6.566  14.297  17.519  0.00  0.00    +0.000 HD
ENDBRANCH  30  31
ENDBRANCH  23  30
ENDBRANCH   9  21
TORSDOF 6
ENDMDL
MODEL 6
REMARK VINA RESULT:      -6.9      7.316     10.879
REMARK  Name = 
REMARK  6 active torsions:
REMARK  status: ('A' for Active; 'I' for Inactive)
REMARK    1  A    between atoms: C_11  and  C_12
REMARK    2  A    between atoms: N_20  and  C1*_21
REMARK    3  A    between atoms: C4*_23  and  C5*_24
REMARK    4  A    between atoms: C5*_24  and  O5*_25
REMARK    5  A    between atoms: C3*_26  and  O3*_27
REMARK    6  A    between atoms: C2*_28  and  O2*_29
REMARK                            x       y       z     vdW  Elec       q    Type
REMARK                         _______ _______ _______ _____ _____    ______ ____
ROOT
ATOM      1  C   UNL     1      -0.978  11.758  22.280  0.00  0.00    +0.000 A 
ATOM      2  N   UNL     1      -2.034  11.645  23.064  0.00  0.00    +0.000 NA
ATOM      3  C   UNL     1      -2.418  12.920  23.378  0.00  0.00    +0.000 A 
ATOM      4  C   UNL     1      -3.506  13.359  24.150  0.00  0.00    +0.000 A 
ATOM      5  C   UNL     1      -3.683  14.733  24.357  0.00  0.00    +0.000 A 
ATOM      6  C   UNL     1      -2.800  15.652  23.802  0.00  0.00    +0.000 A 
ATOM      7  C   UNL     1      -1.725  15.227  23.018  0.00  0.00    +0.000 A 
ATOM      8  C   UNL     1      -1.553  13.850  22.820  0.00  0.00    +0.000 A 
ATOM      9  N   UNL     1      -0.628  13.093  22.119  0.00  0.00    +0.000 N 
ENDROOT
BRANCH   1  20
ATOM     10  O   UNL     1       0.256   9.639  23.747  0.00  0.00    +0.000 OA
ATOM     11  C   UNL     1       0.415   9.683  22.533  0.00  0.00    +0.000 A 
ATOM     12  O   UNL     1       1.193   8.726  21.882  0.00  0.00    +0.000 OA
ATOM     13  C   UNL     1       1.343   8.717  20.482  0.00  0.00    +0.000 A 
ATOM     14  C   UNL     1       2.130   7.709  19.929  0.00  0.00    +0.000 A 
ATOM     15  C   UNL     1       2.292   7.660  18.546  0.00  0.00    +0.000 A 
ATOM     16  C   UNL     1       1.670   8.612  17.737  0.00  0.00    +0.000 A 
ATOM     17  C   UNL     1       0.884   9.621  18.309  0.00  0.00    +0.000 A 
ATOM     18  C   UNL     1       0.718   9.678  19.693  0.00  0.00    +0.000 A 
ATOM     19  C   UNL     1      -0.074  10.713  20.341  0.00  0.00    +0.000 A 
ATOM     20  C   UNL     1      -0.232  10.711  21.677  0.00  0.00    +0.000 A 
ENDBRANCH   1  20
BRANCH   9  21
ATOM     21  C1* UNL     1       0.523  13.616  21.397  0.00  0.00    +0.000 C 
ATOM     22  O4* UNL     1       1.399  14.295  22.328  0.00  0.00    +0.000 OA
ATOM     23  C4* UNL     1       2.052  15.387  21.635  0.00  0.00    +0.000 C 
ATOM     24  C3* UNL     1       1.500  15.414  20.209  0.00  0.00    +0.000 C 
ATOM     25  C2* UNL     1       0.203  14.619  20.291  0.00  0.00    +0.000 C 
BRANCH  24  26
ATOM     26  O3* UNL     1       2.377  14.741  19.286  0.00  0.00    +0.000 OA
ATOM     27  H3* UNL     1       3.068  15.356  18.982  0.00  0.00    +0.000 HD
ENDBRANCH  24  26
BRANCH  25  28
ATOM     28  O2* UNL     1      -0.104  14.001  19.047  0.00  0.00    +0.000 OA
ATOM     29  H2* UNL     1       0.457  13.201  18.975  0.00  0.00    +0.000 HD
ENDBRANCH  25  28
BRANCH  23  30
ATOM     30  C5* UNL     1       1.820  16.694  22.399  0.00  0.00    +0.000 C 
BRANCH  30  31
ATOM     31  O5* UNL     1       1.482  16.422  23.756  0.00  0.00    +0.000 OA
ATOM     32  H5* UNL     1       2.311  16.179  24.213  0.00  0.00    +0.000 HD
ENDBRANCH  30  31
ENDBRANCH  23  30
ENDBRANCH   9  21
TORSDOF 6
ENDMDL
MODEL 7
REMARK VINA RESULT:      -6.9      9.446     11.147
REMARK  Name = 
REMARK  6 active torsions:
REMARK  status: ('A' for Active; 'I' for Inactive)
REMARK    1  A    between atoms: C_11  and  C_12
REMARK    2  A    between atoms: N_20  and  C1*_21
REMARK    3  A    between atoms: C4*_23  and  C5*_24
REMARK    4  A    between atoms: C5*_24  and  O5*_25
REMARK    5  A    between atoms: C3*_26  and  O3*_27
REMARK    6  A    between atoms: C2*_28  and  O2*_29
REMARK                            x       y       z     vdW  Elec       q    Type
REMARK                         _______ _______ _______ _____ _____    ______ ____
ROOT
ATOM      1  C   UNL     1       3.314  16.256  18.776  0.00  0.00    +0.000 A 
ATOM      2  N   UNL     1       3.106  17.417  18.181  0.00  0.00    +0.000 NA
ATOM      3  C   UNL     1       1.751  17.553  18.064  0.00  0.00    +0.000 A 
ATOM      4  C   UNL     1       1.003  18.620  17.540  0.00  0.00    +0.000 A 
ATOM      5  C   UNL     1      -0.393  18.519  17.502  0.00  0.00    +0.000 A 
ATOM      6  C   UNL     1      -1.035  17.382  17.980  0.00  0.00    +0.000 A 
ATOM      7  C   UNL     1      -0.302  16.322  18.519  0.00  0.00    +0.000 A 
ATOM      8  C   UNL     1       1.095  16.430  18.550  0.00  0.00    +0.000 A 
ATOM      9  N   UNL     1       2.109  15.601  19.001  0.00  0.00    +0.000 N 
ENDROOT
BRANCH   1  20
ATOM     10  O   UNL     1       4.342  16.228  21.441  0.00  0.00    +0.000 OA
ATOM     11  C   UNL     1       5.030  15.760  20.541  0.00  0.00    +0.000 A 
ATOM     12  O   UNL     1       6.294  15.238  20.811  0.00  0.00    +0.000 OA
ATOM     13  C   UNL     1       7.080  14.640  19.807  0.00  0.00    +0.000 A 
ATOM     14  C   UNL     1       8.323  14.135  20.184  0.00  0.00    +0.000 A 
ATOM     15  C   UNL     1       9.125  13.526  19.220  0.00  0.00    +0.000 A 
ATOM     16  C   UNL     1       8.678  13.428  17.902  0.00  0.00    +0.000 A 
ATOM     17  C   UNL     1       7.428  13.944  17.539  0.00  0.00    +0.000 A 
ATOM     18  C   UNL     1       6.619  14.557  18.497  0.00  0.00    +0.000 A 
ATOM     19  C   UNL     1       5.318  15.123  18.172  0.00  0.00    +0.000 A 
ATOM     20  C   UNL     1       4.560  15.678  19.134  0.00  0.00    +0.000 A 
ENDBRANCH   1  20
BRANCH   9  21
ATOM     21  C1* UNL     1       1.929  14.268  19.558  0.00  0.00    +0.000 C 
ATOM     22  O4* UNL     1       1.246  13.437  18.590  0.00  0.00    +0.000 OA
ATOM     23  C4* UNL     1       0.425  12.477  19.301  0.00  0.00    +0.000 C 
ATOM     24  C3* UNL     1       0.571  12.775  20.794  0.00  0.00    +0.000 C 
ATOM     25  C2* UNL     1       1.108  14.200  20.844  0.00  0.00    +0.000 C 
BRANCH  24  26
ATOM     26  O3* UNL     1       1.540  11.911  21.418  0.00  0.00    +0.000 OA
ATOM     27  H3* UNL     1       1.333  10.982  21.211  0.00  0.00    +0.000 HD
ENDBRANCH  24  26
BRANCH  25  28
ATOM     28  O2* UNL     1       1.886  14.418  22.016  0.00  0.00    +0.000 OA
ATOM     29  H2* UNL     1       2.569  15.082  21.790  0.00  0.00    +0.000 HD
ENDBRANCH  25  28
BRANCH  23  30
ATOM     30  C5* UNL     1      -1.020  12.566  18.803  0.00  0.00    +0.000 C 
BRANCH  30  31
ATOM     31  O5* UNL     1      -1.050  12.944  17.430  0.00  0.00    +0.000 OA
ATOM     32  H5* UNL     1      -1.806  12.480  17.023  0.00  0.00    +0.000 HD
ENDBRANCH  30  31
ENDBRANCH  23  30
ENDBRANCH   9  21
TORSDOF 6
ENDMDL
MODEL 8
REMARK VINA RESULT:      -6.7      7.468     11.893
REMARK  Name = 
REMARK  6 active torsions:
REMARK  status: ('A' for Active; 'I' for Inactive)
REMARK    1  A    between atoms: C_11  and  C_12
REMARK    2  A    between atoms: N_20  and  C1*_21
REMARK    3  A    between atoms: C4*_23  and  C5*_24
REMARK    4  A    between atoms: C5*_24  and  O5*_25
REMARK    5  A    between atoms: C3*_26  and  O3*_27
REMARK    6  A    between atoms: C2*_28  and  O2*_29
REMARK                            x       y       z     vdW  Elec       q    Type
REMARK                         _______ _______ _______ _____ _____    ______ ____
ROOT
ATOM      1  C   UNL     1      -2.112  12.619  20.871  0.00  0.00    +0.000 A 
ATOM      2  N   UNL     1      -2.918  12.899  19.863  0.00  0.00    +0.000 NA
ATOM      3  C   UNL     1      -2.693  11.941  18.914  0.00  0.00    +0.000 A 
ATOM      4  C   UNL     1      -3.316  11.756  17.667  0.00  0.00    +0.000 A 
ATOM      5  C   UNL     1      -2.893  10.705  16.845  0.00  0.00    +0.000 A 
ATOM      6  C   UNL     1      -1.876   9.850  17.254  0.00  0.00    +0.000 A 
ATOM      7  C   UNL     1      -1.262  10.014  18.498  0.00  0.00    +0.000 A 
ATOM      8  C   UNL     1      -1.689  11.071  19.313  0.00  0.00    +0.000 A 
ATOM      9  N   UNL     1      -1.319  11.518  20.572  0.00  0.00    +0.000 N 
ENDROOT
BRANCH   1  20
ATOM     10  O   UNL     1      -3.615  11.975  23.213  0.00  0.00    +0.000 OA
ATOM     11  C   UNL     1      -2.857  12.936  23.249  0.00  0.00    +0.000 A 
ATOM     12  O   UNL     1      -2.740  13.709  24.404  0.00  0.00    +0.000 OA
ATOM     13  C   UNL     1      -1.833  14.781  24.491  0.00  0.00    +0.000 A 
ATOM     14  C   UNL     1      -1.783  15.481  25.696  0.00  0.00    +0.000 A 
ATOM     15  C   UNL     1      -0.888  16.542  25.825  0.00  0.00    +0.000 A 
ATOM     16  C   UNL     1      -0.060  16.888  24.757  0.00  0.00    +0.000 A 
ATOM     17  C   UNL     1      -0.124  16.178  23.552  0.00  0.00    +0.000 A 
ATOM     18  C   UNL     1      -1.018  15.115  23.414  0.00  0.00    +0.000 A 
ATOM     19  C   UNL     1      -1.138  14.353  22.179  0.00  0.00    +0.000 A 
ATOM     20  C   UNL     1      -1.992  13.316  22.102  0.00  0.00    +0.000 A 
ENDBRANCH   1  20
BRANCH   9  21
ATOM     21  C1* UNL     1      -0.256  10.956  21.392  0.00  0.00    +0.000 C 
ATOM     22  O4* UNL     1       0.862  10.601  20.543  0.00  0.00    +0.000 OA
ATOM     23  C4* UNL     1       1.527   9.446  21.113  0.00  0.00    +0.000 C 
ATOM     24  C3* UNL     1       0.735   9.035  22.355  0.00  0.00    +0.000 C 
ATOM     25  C2* UNL     1      -0.625   9.697  22.172  0.00  0.00    +0.000 C 
BRANCH  24  26
ATOM     26  O3* UNL     1       1.327   9.557  23.560  0.00  0.00    +0.000 OA
ATOM     27  H3* UNL     1       1.131  10.508  23.637  0.00  0.00    +0.000 HD
ENDBRANCH  24  26
BRANCH  25  28
ATOM     28  O2* UNL     1      -1.236   9.976  23.427  0.00  0.00    +0.000 OA
ATOM     29  H2* UNL     1      -1.713  10.826  23.333  0.00  0.00    +0.000 HD
ENDBRANCH  25  28
BRANCH  23  30
ATOM     30  C5* UNL     1       1.625   8.338  20.061  0.00  0.00    +0.000 C 
BRANCH  30  31
ATOM     31  O5* UNL     1       1.980   7.102  20.675  0.00  0.00    +0.000 OA
ATOM     32  H5* UNL     1       2.734   7.285  21.268  0.00  0.00    +0.000 HD
ENDBRANCH  30  31
ENDBRANCH  23  30
ENDBRANCH   9  21
TORSDOF 6
ENDMDL
MODEL 9
REMARK VINA RESULT:      -6.7      9.854     13.836
REMARK  Name = 
REMARK  6 active torsions:
REMARK  status: ('A' for Active; 'I' for Inactive)
REMARK    1  A    between atoms: C_11  and  C_12
REMARK    2  A    between atoms: N_20  and  C1*_21
REMARK    3  A    between atoms: C4*_23  and  C5*_24
REMARK    4  A    between atoms: C5*_24  and  O5*_25
REMARK    5  A    between atoms: C3*_26  and  O3*_27
REMARK    6  A    between atoms: C2*_28  and  O2*_29
REMARK                            x       y       z     vdW  Elec       q    Type
REMARK                         _______ _______ _______ _____ _____    ______ ____
ROOT
ATOM      1  C   UNL     1      -2.620  12.788  20.681  0.00  0.00    +0.000 A 
ATOM      2  N   UNL     1      -1.554  12.193  20.177  0.00  0.00    +0.000 NA
ATOM      3  C   UNL     1      -1.983  11.499  19.081  0.00  0.00    +0.000 A 
ATOM      4  C   UNL     1      -1.245  10.728  18.167  0.00  0.00    +0.000 A 
ATOM      5  C   UNL     1      -1.916  10.080  17.124  0.00  0.00    +0.000 A 
ATOM      6  C   UNL     1      -3.295  10.200  16.987  0.00  0.00    +0.000 A 
ATOM      7  C   UNL     1      -4.037  10.977  17.879  0.00  0.00    +0.000 A 
ATOM      8  C   UNL     1      -3.357  11.619  18.923  0.00  0.00    +0.000 A 
ATOM      9  N   UNL     1      -3.757  12.447  19.959  0.00  0.00    +0.000 N 
ENDROOT
BRANCH   1  20
ATOM     10  O   UNL     1      -3.211  11.876  23.324  0.00  0.00    +0.000 OA
ATOM     11  C   UNL     1      -3.047  13.076  23.140  0.00  0.00    +0.000 A 
ATOM     12  O   UNL     1      -3.161  13.981  24.195  0.00  0.00    +0.000 OA
ATOM     13  C   UNL     1      -2.919  15.356  24.024  0.00  0.00    +0.000 A 
ATOM     14  C   UNL     1      -3.045  16.173  25.147  0.00  0.00    +0.000 A 
ATOM     15  C   UNL     1      -2.802  17.539  25.019  0.00  0.00    +0.000 A 
ATOM     16  C   UNL     1      -2.438  18.070  23.781  0.00  0.00    +0.000 A 
ATOM     17  C   UNL     1      -2.318  17.237  22.662  0.00  0.00    +0.000 A 
ATOM     18  C   UNL     1      -2.562  15.868  22.780  0.00  0.00    +0.000 A 
ATOM     19  C   UNL     1      -2.468  14.958  21.647  0.00  0.00    +0.000 A 
ATOM     20  C   UNL     1      -2.681  13.641  21.815  0.00  0.00    +0.000 A 
ENDBRANCH   1  20
BRANCH   9  21
ATOM     21  C1* UNL     1      -5.129  12.833  20.253  0.00  0.00    +0.000 C 
ATOM     22  O4* UNL     1      -5.746  11.811  21.070  0.00  0.00    +0.000 OA
ATOM     23  C4* UNL     1      -7.159  11.754  20.752  0.00  0.00    +0.000 C 
ATOM     24  C3* UNL     1      -7.412  12.764  19.631  0.00  0.00    +0.000 C 
ATOM     25  C2* UNL     1      -6.033  13.020  19.036  0.00  0.00    +0.000 C 
BRANCH  24  26
ATOM     26  O3* UNL     1      -7.915  14.012  20.144  0.00  0.00    +0.000 OA
ATOM     27  H3* UNL     1      -7.189  14.516  20.552  0.00  0.00    +0.000 HD
ENDBRANCH  24  26
BRANCH  25  28
ATOM     28  O2* UNL     1      -5.948  14.324  18.472  0.00  0.00    +0.000 OA
ATOM     29  H2* UNL     1      -5.454  14.882  19.106  0.00  0.00    +0.000 HD
ENDBRANCH  25  28
BRANCH  23  30
ATOM     30  C5* UNL     1      -7.545  10.321  20.375  0.00  0.00    +0.000 C 
BRANCH  30  31
ATOM     31  O5* UNL     1      -7.795   9.549  21.547  0.00  0.00    +0.000 OA
ATOM     32  H5* UNL     1      -8.683   9.800  21.868  0.00  0.00    +0.000 HD
ENDBRANCH  30  31
ENDBRANCH  23  30
ENDBRANCH   9  21
TORSDOF 6
ENDMDL
