MODEL 1
REMARK VINA RESULT:      -7.3      0.000      0.000
REMARK  Name = 
REMARK  6 active torsions:
REMARK  status: ('A' for Active; 'I' for Inactive)
REMARK    1  A    between atoms: C_1  and  C_2
REMARK    2  A    between atoms: C_9  and  N_10
REMARK    3  A    between atoms: C_11  and  C_13
REMARK    4  A    between atoms: C_13  and  C_14
REMARK    5  A    between atoms: C_14  and  C_15
REMARK    6  A    between atoms: C_15  and  N_16
REMARK                            x       y       z     vdW  Elec       q    Type
REMARK                         _______ _______ _______ _____ _____    ______ ____
ROOT
ATOM      1  N   UNL     1       4.624   5.398  19.495  0.00  0.00    +0.000 N 
ATOM      2  C   UNL     1       3.696   6.095  18.756  0.00  0.00    +0.000 C 
ATOM      3  O   UNL     1       3.867   6.380  17.575  0.00  0.00    +0.000 OA
ATOM      4  H   UNL     1       4.482   5.276  20.492  0.00  0.00    +0.000 HD
ENDROOT
BRANCH   1  13
ATOM      5  C   UNL     1       6.810   4.170  12.872  0.00  0.00    +0.000 C 
ATOM      6  C   UNL     1       6.628   4.413  14.318  0.00  0.00    +0.000 A 
ATOM      7  C   UNL     1       5.920   3.691  15.251  0.00  0.00    +0.000 A 
ATOM      8  N   UNL     1       6.107   4.351  16.434  0.00  0.00    +0.000 N 
ATOM      9  C   UNL     1       6.902   5.431  16.191  0.00  0.00    +0.000 A 
ATOM     10  N   UNL     1       7.226   5.496  14.919  0.00  0.00    +0.000 NA
ATOM     11  C   UNL     1       7.328   6.384  17.234  0.00  0.00    +0.000 C 
ATOM     12  C   UNL     1       6.829   6.099  18.642  0.00  0.00    +0.000 C 
ATOM     13  C   UNL     1       5.872   4.923  18.879  0.00  0.00    +0.000 C 
ATOM     14  C   UNL     1       5.603   3.948  17.718  0.00  0.00    +0.000 C 
ENDBRANCH   1  13
BRANCH   2  15
ATOM     15  C   UNL     1       2.438   6.468  19.513  0.00  0.00    +0.000 C 
BRANCH  15  16
ATOM     16  C   UNL     1       2.106   5.423  20.580  0.00  0.00    +0.000 C 
BRANCH  16  17
ATOM     17  C   UNL     1       1.143   4.356  20.055  0.00  0.00    +0.000 C 
BRANCH  17  18
ATOM     18  N   UNL     1       1.817   3.351  19.263  0.00  0.00    +0.000 N 
ATOM     19  C   UNL     1       2.665   2.383  19.697  0.00  0.00    +0.000 A 
ATOM     20  N   UNL     1       3.032   1.640  18.679  0.00  0.00    +0.000 NA
ATOM     21  C   UNL     1       2.368   2.206  17.630  0.00  0.00    +0.000 A 
ATOM     22  N   UNL     1       1.609   3.262  17.937  0.00  0.00    +0.000 NA
ENDBRANCH  17  18
ENDBRANCH  16  17
ENDBRANCH  15  16
ENDBRANCH   2  15
TORSDOF 5
ENDMDL
MODEL 2
REMARK VINA RESULT:      -7.0      4.085      7.981
REMARK  Name = 
REMARK  6 active torsions:
REMARK  status: ('A' for Active; 'I' for Inactive)
REMARK    1  A    between atoms: C_1  and  C_2
REMARK    2  A    between atoms: C_9  and  N_10
REMARK    3  A    between atoms: C_11  and  C_13
REMARK    4  A    between atoms: C_13  and  C_14
REMARK    5  A    between atoms: C_14  and  C_15
REMARK    6  A    between atoms: C_15  and  N_16
REMARK                            x       y       z     vdW  Elec       q    Type
REMARK                         _______ _______ _______ _____ _____    ______ ____
ROOT
ATOM      1  N   UNL     1       6.390   6.558  18.380  0.00  0.00    +0.000 N 
ATOM      2  C   UNL     1       7.440   6.948  17.581  0.00  0.00    +0.000 C 
ATOM      3  O   UNL     1       7.526   6.631  16.399  0.00  0.00    +0.000 OA
ATOM      4  H   UNL     1       6.415   6.760  19.375  0.00  0.00    +0.000 HD
ENDROOT
BRANCH   1  13
ATOM      5  C   UNL     1       1.147   2.680  21.140  0.00  0.00    +0.000 C 
ATOM      6  C   UNL     1       2.091   3.473  20.326  0.00  0.00    +0.000 A 
ATOM      7  C   UNL     1       3.415   3.238  20.032  0.00  0.00    +0.000 A 
ATOM      8  N   UNL     1       3.794   4.276  19.227  0.00  0.00    +0.000 N 
ATOM      9  C   UNL     1       2.716   5.094  19.061  0.00  0.00    +0.000 A 
ATOM     10  N   UNL     1       1.676   4.635  19.720  0.00  0.00    +0.000 NA
ATOM     11  C   UNL     1       2.739   6.323  18.245  0.00  0.00    +0.000 C 
ATOM     12  C   UNL     1       4.063   6.650  17.569  0.00  0.00    +0.000 C 
ATOM     13  C   UNL     1       5.285   5.758  17.833  0.00  0.00    +0.000 C 
ATOM     14  C   UNL     1       5.083   4.448  18.616  0.00  0.00    +0.000 C 
ENDBRANCH   1  13
BRANCH   2  15
ATOM     15  C   UNL     1       8.471   7.815  18.271  0.00  0.00    +0.000 C 
BRANCH  15  16
ATOM     16  C   UNL     1       8.229   9.298  17.981  0.00  0.00    +0.000 C 
BRANCH  16  17
ATOM     17  C   UNL     1       9.018  10.201  18.931  0.00  0.00    +0.000 C 
BRANCH  17  18
ATOM     18  N   UNL     1       9.532  11.379  18.268  0.00  0.00    +0.000 N 
ATOM     19  C   UNL     1       8.876  12.542  18.014  0.00  0.00    +0.000 A 
ATOM     20  N   UNL     1       9.698  13.384  17.433  0.00  0.00    +0.000 NA
ATOM     21  C   UNL     1      10.861  12.675  17.355  0.00  0.00    +0.000 A 
ATOM     22  N   UNL     1      10.809  11.436  17.852  0.00  0.00    +0.000 NA
ENDBRANCH  17  18
ENDBRANCH  16  17
ENDBRANCH  15  16
ENDBRANCH   2  15
TORSDOF 5
ENDMDL
MODEL 3
REMARK VINA RESULT:      -6.9      1.383      1.725
REMARK  Name = 
REMARK  6 active torsions:
REMARK  status: ('A' for Active; 'I' for Inactive)
REMARK    1  A    between atoms: C_1  and  C_2
REMARK    2  A    between atoms: C_9  and  N_10
REMARK    3  A    between atoms: C_11  and  C_13
REMARK    4  A    between atoms: C_13  and  C_14
REMARK    5  A    between atoms: C_14  and  C_15
REMARK    6  A    between atoms: C_15  and  N_16
REMARK                            x       y       z     vdW  Elec       q    Type
REMARK                         _______ _______ _______ _____ _____    ______ ____
ROOT
ATOM      1  N   UNL     1       3.898   4.946  18.492  0.00  0.00    +0.000 N 
ATOM      2  C   UNL     1       3.548   6.164  17.956  0.00  0.00    +0.000 C 
ATOM      3  O   UNL     1       4.196   6.708  17.067  0.00  0.00    +0.000 OA
ATOM      4  H   UNL     1       3.389   4.586  19.293  0.00  0.00    +0.000 HD
ENDROOT
BRANCH   1  13
ATOM      5  C   UNL     1       7.573   4.882  12.440  0.00  0.00    +0.000 C 
ATOM      6  C   UNL     1       7.029   4.757  13.807  0.00  0.00    +0.000 A 
ATOM      7  C   UNL     1       5.878   4.142  14.245  0.00  0.00    +0.000 A 
ATOM      8  N   UNL     1       5.875   4.310  15.603  0.00  0.00    +0.000 N 
ATOM      9  C   UNL     1       6.995   5.008  15.941  0.00  0.00    +0.000 A 
ATOM     10  N   UNL     1       7.707   5.296  14.875  0.00  0.00    +0.000 NA
ATOM     11  C   UNL     1       7.341   5.377  17.328  0.00  0.00    +0.000 C 
ATOM     12  C   UNL     1       6.362   4.926  18.402  0.00  0.00    +0.000 C 
ATOM     13  C   UNL     1       5.067   4.211  17.990  0.00  0.00    +0.000 C 
ATOM     14  C   UNL     1       4.894   3.795  16.518  0.00  0.00    +0.000 C 
ENDBRANCH   1  13
BRANCH   2  15
ATOM     15  C   UNL     1       2.288   6.771  18.536  0.00  0.00    +0.000 C 
BRANCH  15  16
ATOM     16  C   UNL     1       2.345   6.804  20.065  0.00  0.00    +0.000 C 
BRANCH  16  17
ATOM     17  C   UNL     1       1.205   6.003  20.696  0.00  0.00    +0.000 C 
BRANCH  17  18
ATOM     18  N   UNL     1       1.496   4.587  20.753  0.00  0.00    +0.000 N 
ATOM     19  C   UNL     1       0.894   3.587  20.058  0.00  0.00    +0.000 A 
ATOM     20  N   UNL     1       1.470   2.446  20.355  0.00  0.00    +0.000 NA
ATOM     21  C   UNL     1       2.434   2.812  21.248  0.00  0.00    +0.000 A 
ATOM     22  N   UNL     1       2.489   4.117  21.528  0.00  0.00    +0.000 NA
ENDBRANCH  17  18
ENDBRANCH  16  17
ENDBRANCH  15  16
ENDBRANCH   2  15
TORSDOF 5
ENDMDL
MODEL 4
REMARK VINA RESULT:      -6.8      4.305      7.564
REMARK  Name = 
REMARK  6 active torsions:
REMARK  status: ('A' for Active; 'I' for Inactive)
REMARK    1  A    between atoms: C_1  and  C_2
REMARK    2  A    between atoms: C_9  and  N_10
REMARK    3  A    between atoms: C_11  and  C_13
REMARK    4  A    between atoms: C_13  and  C_14
REMARK    5  A    between atoms: C_14  and  C_15
REMARK    6  A    between atoms: C_15  and  N_16
REMARK                            x       y       z     vdW  Elec       q    Type
REMARK                         _______ _______ _______ _____ _____    ______ ____
ROOT
ATOM      1  N   UNL     1       8.041   6.841  18.494  0.00  0.00    +0.000 N 
ATOM      2  C   UNL     1       7.473   7.790  17.674  0.00  0.00    +0.000 C 
ATOM      3  O   UNL     1       6.502   7.555  16.963  0.00  0.00    +0.000 OA
ATOM      4  H   UNL     1       8.904   7.055  18.985  0.00  0.00    +0.000 HD
ENDROOT
BRANCH   1  13
ATOM      5  C   UNL     1       1.565   4.049  17.861  0.00  0.00    +0.000 C 
ATOM      6  C   UNL     1       3.004   4.365  17.967  0.00  0.00    +0.000 A 
ATOM      7  C   UNL     1       3.702   4.963  18.991  0.00  0.00    +0.000 A 
ATOM      8  N   UNL     1       5.004   4.990  18.570  0.00  0.00    +0.000 N 
ATOM      9  C   UNL     1       5.056   4.424  17.331  0.00  0.00    +0.000 A 
ATOM     10  N   UNL     1       3.860   4.044  16.941  0.00  0.00    +0.000 NA
ATOM     11  C   UNL     1       6.302   4.270  16.555  0.00  0.00    +0.000 C 
ATOM     12  C   UNL     1       7.570   4.783  17.220  0.00  0.00    +0.000 C 
ATOM     13  C   UNL     1       7.476   5.487  18.581  0.00  0.00    +0.000 C 
ATOM     14  C   UNL     1       6.127   5.476  19.323  0.00  0.00    +0.000 C 
ENDBRANCH   1  13
BRANCH   2  15
ATOM     15  C   UNL     1       8.131   9.152  17.735  0.00  0.00    +0.000 C 
BRANCH  15  16
ATOM     16  C   UNL     1       9.067   9.260  18.941  0.00  0.00    +0.000 C 
BRANCH  16  17
ATOM     17  C   UNL     1       9.066  10.668  19.540  0.00  0.00    +0.000 C 
BRANCH  17  18
ATOM     18  N   UNL     1       9.701  11.634  18.672  0.00  0.00    +0.000 N 
ATOM     19  C   UNL     1      10.903  11.527  18.048  0.00  0.00    +0.000 A 
ATOM     20  N   UNL     1      11.107  12.595  17.314  0.00  0.00    +0.000 NA
ATOM     21  C   UNL     1       9.980  13.335  17.527  0.00  0.00    +0.000 A 
ATOM     22  N   UNL     1       9.086  12.788  18.357  0.00  0.00    +0.000 NA
ENDBRANCH  17  18
ENDBRANCH  16  17
ENDBRANCH  15  16
ENDBRANCH   2  15
TORSDOF 5
ENDMDL
MODEL 5
REMARK VINA RESULT:      -6.8      4.464      8.003
REMARK  Name = 
REMARK  6 active torsions:
REMARK  status: ('A' for Active; 'I' for Inactive)
REMARK    1  A    between atoms: C_1  and  C_2
REMARK    2  A    between atoms: C_9  and  N_10
REMARK    3  A    between atoms: C_11  and  C_13
REMARK    4  A    between atoms: C_13  and  C_14
REMARK    5  A    between atoms: C_14  and  C_15
REMARK    6  A    between atoms: C_15  and  N_16
REMARK                            x       y       z     vdW  Elec       q    Type
REMARK                         _______ _______ _______ _____ _____    ______ ____
ROOT
ATOM      1  N   UNL     1       6.586   6.569  17.492  0.00  0.00    +0.000 N 
ATOM      2  C   UNL     1       7.664   7.200  18.070  0.00  0.00    +0.000 C 
ATOM      3  O   UNL     1       8.349   6.675  18.943  0.00  0.00    +0.000 OA
ATOM      4  H   UNL     1       5.991   7.081  16.849  0.00  0.00    +0.000 HD
ENDROOT
BRANCH   1  13
ATOM      5  C   UNL     1       0.807   3.469  20.163  0.00  0.00    +0.000 C 
ATOM      6  C   UNL     1       2.093   3.852  19.547  0.00  0.00    +0.000 A 
ATOM      7  C   UNL     1       3.161   4.533  20.086  0.00  0.00    +0.000 A 
ATOM      8  N   UNL     1       4.091   4.594  19.085  0.00  0.00    +0.000 N 
ATOM      9  C   UNL     1       3.572   3.966  17.991  0.00  0.00    +0.000 A 
ATOM     10  N   UNL     1       2.364   3.514  18.242  0.00  0.00    +0.000 NA
ATOM     11  C   UNL     1       4.293   3.825  16.711  0.00  0.00    +0.000 C 
ATOM     12  C   UNL     1       5.689   4.427  16.661  0.00  0.00    +0.000 C 
ATOM     13  C   UNL     1       6.221   5.198  17.878  0.00  0.00    +0.000 C 
ATOM     14  C   UNL     1       5.405   5.167  19.183  0.00  0.00    +0.000 C 
ENDBRANCH   1  13
BRANCH   2  15
ATOM     15  C   UNL     1       7.949   8.585  17.529  0.00  0.00    +0.000 C 
BRANCH  15  16
ATOM     16  C   UNL     1       8.676   9.444  18.566  0.00  0.00    +0.000 C 
BRANCH  16  17
ATOM     17  C   UNL     1       8.851  10.887  18.090  0.00  0.00    +0.000 C 
BRANCH  17  18
ATOM     18  N   UNL     1       9.800  11.620  18.898  0.00  0.00    +0.000 N 
ATOM     19  C   UNL     1      10.350  12.835  18.637  0.00  0.00    +0.000 A 
ATOM     20  N   UNL     1      11.132  13.179  19.634  0.00  0.00    +0.000 NA
ATOM     21  C   UNL     1      11.021  12.123  20.491  0.00  0.00    +0.000 A 
ATOM     22  N   UNL     1      10.216  11.138  20.082  0.00  0.00    +0.000 NA
ENDBRANCH  17  18
ENDBRANCH  16  17
ENDBRANCH  15  16
ENDBRANCH   2  15
TORSDOF 5
ENDMDL
MODEL 6
REMARK VINA RESULT:      -6.8      2.981      4.121
REMARK  Name = 
REMARK  6 active torsions:
REMARK  status: ('A' for Active; 'I' for Inactive)
REMARK    1  A    between atoms: C_1  and  C_2
REMARK    2  A    between atoms: C_9  and  N_10
REMARK    3  A    between atoms: C_11  and  C_13
REMARK    4  A    between atoms: C_13  and  C_14
REMARK    5  A    between atoms: C_14  and  C_15
REMARK    6  A    between atoms: C_15  and  N_16
REMARK                            x       y       z     vdW  Elec       q    Type
REMARK                         _______ _______ _______ _____ _____    ______ ____
ROOT
ATOM      1  N   UNL     1       4.128   5.363  19.542  0.00  0.00    +0.000 N 
ATOM      2  C   UNL     1       3.064   4.712  20.123  0.00  0.00    +0.000 C 
ATOM      3  O   UNL     1       3.001   3.489  20.207  0.00  0.00    +0.000 OA
ATOM      4  H   UNL     1       4.087   6.368  19.406  0.00  0.00    +0.000 HD
ENDROOT
BRANCH   1  13
ATOM      5  C   UNL     1       7.161   4.609  13.188  0.00  0.00    +0.000 C 
ATOM      6  C   UNL     1       6.767   4.651  14.610  0.00  0.00    +0.000 A 
ATOM      7  C   UNL     1       5.699   4.061  15.247  0.00  0.00    +0.000 A 
ATOM      8  N   UNL     1       5.827   4.412  16.564  0.00  0.00    +0.000 N 
ATOM      9  C   UNL     1       6.940   5.188  16.684  0.00  0.00    +0.000 A 
ATOM     10  N   UNL     1       7.523   5.354  15.518  0.00  0.00    +0.000 NA
ATOM     11  C   UNL     1       7.408   5.753  17.965  0.00  0.00    +0.000 C 
ATOM     12  C   UNL     1       6.568   5.419  19.188  0.00  0.00    +0.000 C 
ATOM     13  C   UNL     1       5.275   4.608  19.016  0.00  0.00    +0.000 C 
ATOM     14  C   UNL     1       4.972   3.990  17.639  0.00  0.00    +0.000 C 
ENDBRANCH   1  13
BRANCH   2  15
ATOM     15  C   UNL     1       1.987   5.625  20.669  0.00  0.00    +0.000 C 
BRANCH  15  16
ATOM     16  C   UNL     1       1.977   6.967  19.934  0.00  0.00    +0.000 C 
BRANCH  16  17
ATOM     17  C   UNL     1       1.523   8.112  20.842  0.00  0.00    +0.000 C 
BRANCH  17  18
ATOM     18  N   UNL     1       0.792   9.129  20.118  0.00  0.00    +0.000 N 
ATOM     19  C   UNL     1       1.087   9.657  18.902  0.00  0.00    +0.000 A 
ATOM     20  N   UNL     1       0.158  10.522  18.569  0.00  0.00    +0.000 NA
ATOM     21  C   UNL     1      -0.695  10.483  19.634  0.00  0.00    +0.000 A 
ATOM     22  N   UNL     1      -0.347   9.644  20.613  0.00  0.00    +0.000 NA
ENDBRANCH  17  18
ENDBRANCH  16  17
ENDBRANCH  15  16
ENDBRANCH   2  15
TORSDOF 5
ENDMDL
MODEL 7
REMARK VINA RESULT:      -6.8      4.630      8.104
REMARK  Name = 
REMARK  6 active torsions:
REMARK  status: ('A' for Active; 'I' for Inactive)
REMARK    1  A    between atoms: C_1  and  C_2
REMARK    2  A    between atoms: C_9  and  N_10
REMARK    3  A    between atoms: C_11  and  C_13
REMARK    4  A    between atoms: C_13  and  C_14
REMARK    5  A    between atoms: C_14  and  C_15
REMARK    6  A    between atoms: C_15  and  N_16
REMARK                            x       y       z     vdW  Elec       q    Type
REMARK                         _______ _______ _______ _____ _____    ______ ____
ROOT
ATOM      1  N   UNL     1       7.035   7.220  17.142  0.00  0.00    +0.000 N 
ATOM      2  C   UNL     1       7.914   7.888  17.965  0.00  0.00    +0.000 C 
ATOM      3  O   UNL     1       8.537   7.329  18.863  0.00  0.00    +0.000 OA
ATOM      4  H   UNL     1       6.470   7.744  16.482  0.00  0.00    +0.000 HD
ENDROOT
BRANCH   1  13
ATOM      5  C   UNL     1       1.491   3.063  18.597  0.00  0.00    +0.000 C 
ATOM      6  C   UNL     1       2.770   3.691  18.209  0.00  0.00    +0.000 A 
ATOM      7  C   UNL     1       3.668   4.404  18.969  0.00  0.00    +0.000 A 
ATOM      8  N   UNL     1       4.683   4.733  18.113  0.00  0.00    +0.000 N 
ATOM      9  C   UNL     1       4.377   4.224  16.886  0.00  0.00    +0.000 A 
ATOM     10  N   UNL     1       3.224   3.595  16.915  0.00  0.00    +0.000 NA
ATOM     11  C   UNL     1       5.244   4.372  15.700  0.00  0.00    +0.000 C 
ATOM     12  C   UNL     1       6.540   5.141  15.913  0.00  0.00    +0.000 C 
ATOM     13  C   UNL     1       6.826   5.772  17.283  0.00  0.00    +0.000 C 
ATOM     14  C   UNL     1       5.886   5.440  18.456  0.00  0.00    +0.000 C 
ENDBRANCH   1  13
BRANCH   2  15
ATOM     15  C   UNL     1       8.066   9.363  17.661  0.00  0.00    +0.000 C 
BRANCH  15  16
ATOM     16  C   UNL     1       9.098  10.013  18.585  0.00  0.00    +0.000 C 
BRANCH  16  17
ATOM     17  C   UNL     1       8.900  11.527  18.686  0.00  0.00    +0.000 C 
BRANCH  17  18
ATOM     18  N   UNL     1       9.989  12.264  18.083  0.00  0.00    +0.000 N 
ATOM     19  C   UNL     1       9.993  13.564  17.687  0.00  0.00    +0.000 A 
ATOM     20  N   UNL     1      11.183  13.872  17.228  0.00  0.00    +0.000 NA
ATOM     21  C   UNL     1      11.879  12.707  17.370  0.00  0.00    +0.000 A 
ATOM     22  N   UNL     1      11.188  11.688  17.889  0.00  0.00    +0.000 NA
ENDBRANCH  17  18
ENDBRANCH  16  17
ENDBRANCH  15  16
ENDBRANCH   2  15
TORSDOF 5
ENDMDL
MODEL 8
REMARK VINA RESULT:      -6.8      2.875      6.845
REMARK  Name = 
REMARK  6 active torsions:
REMARK  status: ('A' for Active; 'I' for Inactive)
REMARK    1  A    between atoms: C_1  and  C_2
REMARK    2  A    between atoms: C_9  and  N_10
REMARK    3  A    between atoms: C_11  and  C_13
REMARK    4  A    between atoms: C_13  and  C_14
REMARK    5  A    between atoms: C_14  and  C_15
REMARK    6  A    between atoms: C_15  and  N_16
REMARK                            x       y       z     vdW  Elec       q    Type
REMARK                         _______ _______ _______ _____ _____    ______ ____
ROOT
ATOM      1  N   UNL     1       3.884   6.200  19.041  0.00  0.00    +0.000 N 
ATOM      2  C   UNL     1       4.213   4.873  19.194  0.00  0.00    +0.000 C 
ATOM      3  O   UNL     1       3.369   3.984  19.260  0.00  0.00    +0.000 OA
ATOM      4  H   UNL     1       4.611   6.906  19.093  0.00  0.00    +0.000 HD
ENDROOT
BRANCH   1  13
ATOM      5  C   UNL     1      -0.153  11.235  21.956  0.00  0.00    +0.000 C 
ATOM      6  C   UNL     1       0.480  10.164  21.160  0.00  0.00    +0.000 A 
ATOM      7  C   UNL     1       0.863   8.896  21.533  0.00  0.00    +0.000 A 
ATOM      8  N   UNL     1       1.375   8.327  20.400  0.00  0.00    +0.000 N 
ATOM      9  C   UNL     1       1.293   9.245  19.395  0.00  0.00    +0.000 A 
ATOM     10  N   UNL     1       0.762  10.366  19.829  0.00  0.00    +0.000 NA
ATOM     11  C   UNL     1       1.746   8.989  18.014  0.00  0.00    +0.000 C 
ATOM     12  C   UNL     1       2.325   7.607  17.748  0.00  0.00    +0.000 C 
ATOM     13  C   UNL     1       2.480   6.617  18.911  0.00  0.00    +0.000 C 
ATOM     14  C   UNL     1       1.862   6.981  20.273  0.00  0.00    +0.000 C 
ENDBRANCH   1  13
BRANCH   2  15
ATOM     15  C   UNL     1       5.700   4.594  19.256  0.00  0.00    +0.000 C 
BRANCH  15  16
ATOM     16  C   UNL     1       6.478   5.542  18.341  0.00  0.00    +0.000 C 
BRANCH  16  17
ATOM     17  C   UNL     1       7.515   4.798  17.498  0.00  0.00    +0.000 C 
BRANCH  17  18
ATOM     18  N   UNL     1       7.077   4.605  16.134  0.00  0.00    +0.000 N 
ATOM     19  C   UNL     1       6.090   3.784  15.687  0.00  0.00    +0.000 A 
ATOM     20  N   UNL     1       5.966   3.924  14.388  0.00  0.00    +0.000 NA
ATOM     21  C   UNL     1       6.915   4.858  14.087  0.00  0.00    +0.000 A 
ATOM     22  N   UNL     1       7.626   5.305  15.126  0.00  0.00    +0.000 NA
ENDBRANCH  17  18
ENDBRANCH  16  17
ENDBRANCH  15  16
ENDBRANCH   2  15
TORSDOF 5
ENDMDL
MODEL 9
REMARK VINA RESULT:      -6.7      4.680      8.016
REMARK  Name = 
REMARK  6 active torsions:
REMARK  status: ('A' for Active; 'I' for Inactive)
REMARK    1  A    between atoms: C_1  and  C_2
REMARK    2  A    between atoms: C_9  and  N_10
REMARK    3  A    between atoms: C_11  and  C_13
REMARK    4  A    between atoms: C_13  and  C_14
REMARK    5  A    between atoms: C_14  and  C_15
REMARK    6  A    between atoms: C_15  and  N_16
REMARK                            x       y       z     vdW  Elec       q    Type
REMARK                         _______ _______ _______ _____ _____    ______ ____
ROOT
ATOM      1  N   UNL     1       7.143   6.848  17.067  0.00  0.00    +0.000 N 
ATOM      2  C   UNL     1       7.889   7.600  17.947  0.00  0.00    +0.000 C 
ATOM      3  O   UNL     1       8.459   7.111  18.917  0.00  0.00    +0.000 OA
ATOM      4  H   UNL     1       6.609   7.313  16.340  0.00  0.00    +0.000 HD
ENDROOT
BRANCH   1  13
ATOM      5  C   UNL     1       1.995   2.425  19.085  0.00  0.00    +0.000 C 
ATOM      6  C   UNL     1       3.195   3.115  18.569  0.00  0.00    +0.000 A 
ATOM      7  C   UNL     1       4.127   3.880  19.233  0.00  0.00    +0.000 A 
ATOM      8  N   UNL     1       5.032   4.253  18.278  0.00  0.00    +0.000 N 
ATOM      9  C   UNL     1       4.632   3.718  17.089  0.00  0.00    +0.000 A 
ATOM     10  N   UNL     1       3.522   3.031  17.236  0.00  0.00    +0.000 NA
ATOM     11  C   UNL     1       5.368   3.900  15.822  0.00  0.00    +0.000 C 
ATOM     12  C   UNL     1       6.637   4.736  15.901  0.00  0.00    +0.000 C 
ATOM     13  C   UNL     1       7.025   5.393  17.234  0.00  0.00    +0.000 C 
ATOM     14  C   UNL     1       6.225   5.024  18.496  0.00  0.00    +0.000 C 
ENDBRANCH   1  13
BRANCH   2  15
ATOM     15  C   UNL     1       7.964   9.074  17.612  0.00  0.00    +0.000 C 
BRANCH  15  16
ATOM     16  C   UNL     1       8.891   9.813  18.579  0.00  0.00    +0.000 C 
BRANCH  16  17
ATOM     17  C   UNL     1       9.368  11.149  18.004  0.00  0.00    +0.000 C 
BRANCH  17  18
ATOM     18  N   UNL     1      10.395  11.761  18.818  0.00  0.00    +0.000 N 
ATOM     19  C   UNL     1      11.740  11.710  18.635  0.00  0.00    +0.000 A 
ATOM     20  N   UNL     1      12.330  12.429  19.561  0.00  0.00    +0.000 NA
ATOM     21  C   UNL     1      11.283  12.906  20.294  0.00  0.00    +0.000 A 
ATOM     22  N   UNL     1      10.073  12.522  19.879  0.00  0.00    +0.000 NA
ENDBRANCH  17  18
ENDBRANCH  16  17
ENDBRANCH  15  16
ENDBRANCH   2  15
TORSDOF 5
ENDMDL
