MODEL 1
REMARK VINA RESULT:      -8.9      0.000      0.000
REMARK  Name = 
REMARK  4 active torsions:
REMARK  status: ('A' for Active; 'I' for Inactive)
REMARK    1  A    between atoms: C_1  and  C_2
REMARK    2  A    between atoms: C_3  and  C_4
REMARK    3  A    between atoms: C_7  and  C_8
REMARK    4  A    between atoms: C_8  and  C_9
REMARK                            x       y       z     vdW  Elec       q    Type
REMARK                         _______ _______ _______ _____ _____    ______ ____
ROOT
ATOM      1  C   UNL     1       2.836   8.178  17.738  0.00  0.00    +0.000 C 
ATOM      2  C   UNL     1       2.536   7.096  18.730  0.00  0.00    +0.000 A 
ATOM      3  C   UNL     1       1.911   7.224  19.919  0.00  0.00    +0.000 A 
ATOM      4  N   UNL     1       1.655   6.171  20.768  0.00  0.00    +0.000 N 
ATOM      5  C   UNL     1       1.908   4.849  20.393  0.00  0.00    +0.000 A 
ATOM      6  C   UNL     1       1.522   3.785  21.217  0.00  0.00    +0.000 A 
ATOM      7  C   UNL     1       1.789   2.467  20.840  0.00  0.00    +0.000 A 
ATOM      8  C   UNL     1       2.476   2.208  19.657  0.00  0.00    +0.000 A 
ATOM      9  C   UNL     1       2.888   3.264  18.848  0.00  0.00    +0.000 A 
ATOM     10  F   UNL     1       3.553   2.968  17.723  0.00  0.00    +0.000 F 
ATOM     11  C   UNL     1       2.598   4.580  19.201  0.00  0.00    +0.000 A 
ATOM     12  C   UNL     1       2.972   5.719  18.328  0.00  0.00    +0.000 A 
ATOM     13  O   UNL     1       3.602   5.549  17.289  0.00  0.00    +0.000 OA
ATOM     14  H   UNL     1       1.051   6.353  21.562  0.00  0.00    +0.000 HD
ENDROOT
BRANCH   3  15
ATOM     15  C   UNL     1       1.423   8.526  20.397  0.00  0.00    +0.000 A 
ATOM     16  C   UNL     1       1.138   9.545  19.484  0.00  0.00    +0.000 A 
ATOM     17  C   UNL     1       0.597  10.754  19.927  0.00  0.00    +0.000 A 
ATOM     18  C   UNL     1       0.337  10.959  21.289  0.00  0.00    +0.000 A 
ATOM     19  C   UNL     1       0.632   9.936  22.201  0.00  0.00    +0.000 A 
ATOM     20  C   UNL     1       1.181   8.730  21.760  0.00  0.00    +0.000 A 
BRANCH  18  21
ATOM     21  C   UNL     1      -0.226  12.275  21.766  0.00  0.00    +0.000 C 
BRANCH  21  22
ATOM     22  C   UNL     1      -1.731  12.336  21.890  0.00  0.00    +0.000 A 
ATOM     23  C   UNL     1      -2.347  12.217  23.145  0.00  0.00    +0.000 A 
ATOM     24  C   UNL     1      -3.723  12.420  23.281  0.00  0.00    +0.000 A 
ATOM     25  C   UNL     1      -4.492  12.727  22.160  0.00  0.00    +0.000 A 
ATOM     26 CL   UNL     1      -6.171  13.054  22.340  0.00  0.00    +0.000 Cl
ATOM     27  C   UNL     1      -3.904  12.794  20.900  0.00  0.00    +0.000 A 
ATOM     28  C   UNL     1      -2.529  12.590  20.763  0.00  0.00    +0.000 A 
ENDBRANCH  21  22
ENDBRANCH  18  21
ENDBRANCH   3  15
TORSDOF 3
ENDMDL
MODEL 2
REMARK VINA RESULT:      -8.8      1.211      1.948
REMARK  Name = 
REMARK  4 active torsions:
REMARK  status: ('A' for Active; 'I' for Inactive)
REMARK    1  A    between atoms: C_1  and  C_2
REMARK    2  A    between atoms: C_3  and  C_4
REMARK    3  A    between atoms: C_7  and  C_8
REMARK    4  A    between atoms: C_8  and  C_9
REMARK                            x       y       z     vdW  Elec       q    Type
REMARK                         _______ _______ _______ _____ _____    ______ ____
ROOT
ATOM      1  C   UNL     1       1.610   9.973  18.234  0.00  0.00    +0.000 C 
ATOM      2  C   UNL     1       1.771   8.725  19.047  0.00  0.00    +0.000 A 
ATOM      3  C   UNL     1       1.309   8.491  20.293  0.00  0.00    +0.000 A 
ATOM      4  N   UNL     1       1.484   7.303  20.965  0.00  0.00    +0.000 N 
ATOM      5  C   UNL     1       2.046   6.185  20.344  0.00  0.00    +0.000 A 
ATOM      6  C   UNL     1       2.097   4.950  21.002  0.00  0.00    +0.000 A 
ATOM      7  C   UNL     1       2.671   3.841  20.378  0.00  0.00    +0.000 A 
ATOM      8  C   UNL     1       3.229   3.968  19.108  0.00  0.00    +0.000 A 
ATOM      9  C   UNL     1       3.207   5.202  18.461  0.00  0.00    +0.000 A 
ATOM     10  F   UNL     1       3.763   5.280  17.244  0.00  0.00    +0.000 F 
ATOM     11  C   UNL     1       2.609   6.306  19.064  0.00  0.00    +0.000 A 
ATOM     12  C   UNL     1       2.518   7.614  18.371  0.00  0.00    +0.000 A 
ATOM     13  O   UNL     1       3.017   7.788  17.265  0.00  0.00    +0.000 OA
ATOM     14  H   UNL     1       0.972   7.182  21.832  0.00  0.00    +0.000 HD
ENDROOT
BRANCH   3  15
ATOM     15  C   UNL     1       0.545   9.506  21.034  0.00  0.00    +0.000 A 
ATOM     16  C   UNL     1      -0.171   9.144  22.179  0.00  0.00    +0.000 A 
ATOM     17  C   UNL     1      -0.829  10.119  22.932  0.00  0.00    +0.000 A 
ATOM     18  C   UNL     1      -0.782  11.467  22.547  0.00  0.00    +0.000 A 
ATOM     19  C   UNL     1      -0.068  11.821  21.394  0.00  0.00    +0.000 A 
ATOM     20  C   UNL     1       0.584  10.846  20.636  0.00  0.00    +0.000 A 
BRANCH  18  21
ATOM     21  C   UNL     1      -1.514  12.512  23.350  0.00  0.00    +0.000 C 
BRANCH  21  22
ATOM     22  C   UNL     1      -3.011  12.564  23.145  0.00  0.00    +0.000 A 
ATOM     23  C   UNL     1      -3.881  12.568  24.247  0.00  0.00    +0.000 A 
ATOM     24  C   UNL     1      -5.252  12.763  24.065  0.00  0.00    +0.000 A 
ATOM     25  C   UNL     1      -5.763  12.941  22.781  0.00  0.00    +0.000 A 
ATOM     26 CL   UNL     1      -7.440  13.260  22.565  0.00  0.00    +0.000 Cl
ATOM     27  C   UNL     1      -4.920  12.885  21.675  0.00  0.00    +0.000 A 
ATOM     28  C   UNL     1      -3.549  12.688  21.855  0.00  0.00    +0.000 A 
ENDBRANCH  21  22
ENDBRANCH  18  21
ENDBRANCH   3  15
TORSDOF 3
ENDMDL
MODEL 3
REMARK VINA RESULT:      -8.8      2.038      2.509
REMARK  Name = 
REMARK  4 active torsions:
REMARK  status: ('A' for Active; 'I' for Inactive)
REMARK    1  A    between atoms: C_1  and  C_2
REMARK    2  A    between atoms: C_3  and  C_4
REMARK    3  A    between atoms: C_7  and  C_8
REMARK    4  A    between atoms: C_8  and  C_9
REMARK                            x       y       z     vdW  Elec       q    Type
REMARK                         _______ _______ _______ _____ _____    ______ ____
ROOT
ATOM      1  C   UNL     1       4.091   7.198  17.385  0.00  0.00    +0.000 C 
ATOM      2  C   UNL     1       3.524   6.423  18.536  0.00  0.00    +0.000 A 
ATOM      3  C   UNL     1       2.539   6.803  19.376  0.00  0.00    +0.000 A 
ATOM      4  N   UNL     1       2.060   6.020  20.401  0.00  0.00    +0.000 N 
ATOM      5  C   UNL     1       2.474   4.696  20.566  0.00  0.00    +0.000 A 
ATOM      6  C   UNL     1       1.880   3.876  21.534  0.00  0.00    +0.000 A 
ATOM      7  C   UNL     1       2.308   2.557  21.700  0.00  0.00    +0.000 A 
ATOM      8  C   UNL     1       3.354   2.062  20.926  0.00  0.00    +0.000 A 
ATOM      9  C   UNL     1       3.968   2.883  19.982  0.00  0.00    +0.000 A 
ATOM     10  F   UNL     1       4.976   2.367  19.266  0.00  0.00    +0.000 F 
ATOM     11  C   UNL     1       3.526   4.190  19.788  0.00  0.00    +0.000 A 
ATOM     12  C   UNL     1       4.121   5.064  18.749  0.00  0.00    +0.000 A 
ATOM     13  O   UNL     1       5.063   4.688  18.059  0.00  0.00    +0.000 OA
ATOM     14  H   UNL     1       1.223   6.339  20.875  0.00  0.00    +0.000 HD
ENDROOT
BRANCH   3  15
ATOM     15  C   UNL     1       1.871   8.106  19.240  0.00  0.00    +0.000 A 
ATOM     16  C   UNL     1       1.785   8.722  17.987  0.00  0.00    +0.000 A 
ATOM     17  C   UNL     1       1.080   9.918  17.840  0.00  0.00    +0.000 A 
ATOM     18  C   UNL     1       0.455  10.515  18.943  0.00  0.00    +0.000 A 
ATOM     19  C   UNL     1       0.551   9.897  20.198  0.00  0.00    +0.000 A 
ATOM     20  C   UNL     1       1.263   8.705  20.348  0.00  0.00    +0.000 A 
BRANCH  18  21
ATOM     21  C   UNL     1      -0.285  11.820  18.784  0.00  0.00    +0.000 C 
BRANCH  21  22
ATOM     22  C   UNL     1      -1.772  11.701  18.535  0.00  0.00    +0.000 A 
ATOM     23  C   UNL     1      -2.692  12.115  19.511  0.00  0.00    +0.000 A 
ATOM     24  C   UNL     1      -4.060  12.144  19.228  0.00  0.00    +0.000 A 
ATOM     25  C   UNL     1      -4.517  11.746  17.973  0.00  0.00    +0.000 A 
ATOM     26 CL   UNL     1      -6.191  11.857  17.598  0.00  0.00    +0.000 Cl
ATOM     27  C   UNL     1      -3.620  11.281  17.013  0.00  0.00    +0.000 A 
ATOM     28  C   UNL     1      -2.253  11.250  17.296  0.00  0.00    +0.000 A 
ENDBRANCH  21  22
ENDBRANCH  18  21
ENDBRANCH   3  15
TORSDOF 3
ENDMDL
MODEL 4
REMARK VINA RESULT:      -8.7      6.322      8.032
REMARK  Name = 
REMARK  4 active torsions:
REMARK  status: ('A' for Active; 'I' for Inactive)
REMARK    1  A    between atoms: C_1  and  C_2
REMARK    2  A    between atoms: C_3  and  C_4
REMARK    3  A    between atoms: C_7  and  C_8
REMARK    4  A    between atoms: C_8  and  C_9
REMARK                            x       y       z     vdW  Elec       q    Type
REMARK                         _______ _______ _______ _____ _____    ______ ____
ROOT
ATOM      1  C   UNL     1       5.462   4.006  16.064  0.00  0.00    +0.000 C 
ATOM      2  C   UNL     1       4.761   4.240  17.368  0.00  0.00    +0.000 A 
ATOM      3  C   UNL     1       5.014   5.208  18.273  0.00  0.00    +0.000 A 
ATOM      4  N   UNL     1       4.307   5.366  19.444  0.00  0.00    +0.000 N 
ATOM      5  C   UNL     1       3.169   4.606  19.721  0.00  0.00    +0.000 A 
ATOM      6  C   UNL     1       2.390   4.870  20.854  0.00  0.00    +0.000 A 
ATOM      7  C   UNL     1       1.259   4.098  21.129  0.00  0.00    +0.000 A 
ATOM      8  C   UNL     1       0.922   3.036  20.295  0.00  0.00    +0.000 A 
ATOM      9  C   UNL     1       1.710   2.750  19.182  0.00  0.00    +0.000 A 
ATOM     10  F   UNL     1       1.353   1.713  18.412  0.00  0.00    +0.000 F 
ATOM     11  C   UNL     1       2.822   3.535  18.883  0.00  0.00    +0.000 A 
ATOM     12  C   UNL     1       3.641   3.290  17.672  0.00  0.00    +0.000 A 
ATOM     13  O   UNL     1       3.406   2.351  16.919  0.00  0.00    +0.000 OA
ATOM     14  H   UNL     1       4.481   6.210  19.978  0.00  0.00    +0.000 HD
ENDROOT
BRANCH   3  15
ATOM     15  C   UNL     1       6.075   6.203  18.061  0.00  0.00    +0.000 A 
ATOM     16  C   UNL     1       5.828   7.332  17.274  0.00  0.00    +0.000 A 
ATOM     17  C   UNL     1       6.805   8.321  17.138  0.00  0.00    +0.000 A 
ATOM     18  C   UNL     1       8.042   8.191  17.785  0.00  0.00    +0.000 A 
ATOM     19  C   UNL     1       8.286   7.053  18.567  0.00  0.00    +0.000 A 
ATOM     20  C   UNL     1       7.312   6.060  18.697  0.00  0.00    +0.000 A 
BRANCH  18  21
ATOM     21  C   UNL     1       9.103   9.249  17.616  0.00  0.00    +0.000 C 
BRANCH  21  22
ATOM     22  C   UNL     1       9.028  10.410  18.582  0.00  0.00    +0.000 A 
ATOM     23  C   UNL     1       9.234  10.207  19.955  0.00  0.00    +0.000 A 
ATOM     24  C   UNL     1       9.312  11.296  20.828  0.00  0.00    +0.000 A 
ATOM     25  C   UNL     1       9.169  12.591  20.335  0.00  0.00    +0.000 A 
ATOM     26 CL   UNL     1       9.342  13.933  21.396  0.00  0.00    +0.000 Cl
ATOM     27  C   UNL     1       8.909  12.805  18.983  0.00  0.00    +0.000 A 
ATOM     28  C   UNL     1       8.830  11.717  18.111  0.00  0.00    +0.000 A 
ENDBRANCH  21  22
ENDBRANCH  18  21
ENDBRANCH   3  15
TORSDOF 3
ENDMDL
MODEL 5
REMARK VINA RESULT:      -8.7      4.990      9.412
REMARK  Name = 
REMARK  4 active torsions:
REMARK  status: ('A' for Active; 'I' for Inactive)
REMARK    1  A    between atoms: C_1  and  C_2
REMARK    2  A    between atoms: C_3  and  C_4
REMARK    3  A    between atoms: C_7  and  C_8
REMARK    4  A    between atoms: C_8  and  C_9
REMARK                            x       y       z     vdW  Elec       q    Type
REMARK                         _______ _______ _______ _____ _____    ______ ____
ROOT
ATOM      1  C   UNL     1       1.878   9.795  17.552  0.00  0.00    +0.000 C 
ATOM      2  C   UNL     1       1.261   9.588  18.901  0.00  0.00    +0.000 A 
ATOM      3  C   UNL     1       1.408   8.523  19.717  0.00  0.00    +0.000 A 
ATOM      4  N   UNL     1       0.819   8.419  20.956  0.00  0.00    +0.000 N 
ATOM      5  C   UNL     1       0.122   9.486  21.528  0.00  0.00    +0.000 A 
ATOM      6  C   UNL     1      -0.358   9.406  22.841  0.00  0.00    +0.000 A 
ATOM      7  C   UNL     1      -1.063  10.473  23.402  0.00  0.00    +0.000 A 
ATOM      8  C   UNL     1      -1.324  11.610  22.641  0.00  0.00    +0.000 A 
ATOM      9  C   UNL     1      -0.874  11.683  21.325  0.00  0.00    +0.000 A 
ATOM     10  F   UNL     1      -1.155  12.793  20.628  0.00  0.00    +0.000 F 
ATOM     11  C   UNL     1      -0.143  10.636  20.769  0.00  0.00    +0.000 A 
ATOM     12  C   UNL     1       0.400  10.714  19.391  0.00  0.00    +0.000 A 
ATOM     13  O   UNL     1       0.176  11.680  18.669  0.00  0.00    +0.000 OA
ATOM     14  H   UNL     1       1.113   7.648  21.545  0.00  0.00    +0.000 HD
ENDROOT
BRANCH   3  15
ATOM     15  C   UNL     1       2.248   7.377  19.341  0.00  0.00    +0.000 A 
ATOM     16  C   UNL     1       3.071   7.450  18.213  0.00  0.00    +0.000 A 
ATOM     17  C   UNL     1       3.931   6.395  17.901  0.00  0.00    +0.000 A 
ATOM     18  C   UNL     1       3.978   5.253  18.713  0.00  0.00    +0.000 A 
ATOM     19  C   UNL     1       3.146   5.182  19.839  0.00  0.00    +0.000 A 
ATOM     20  C   UNL     1       2.279   6.234  20.147  0.00  0.00    +0.000 A 
BRANCH  18  21
ATOM     21  C   UNL     1       4.892   4.107  18.358  0.00  0.00    +0.000 C 
BRANCH  21  22
ATOM     22  C   UNL     1       5.614   4.232  17.036  0.00  0.00    +0.000 A 
ATOM     23  C   UNL     1       4.951   3.946  15.833  0.00  0.00    +0.000 A 
ATOM     24  C   UNL     1       5.568   4.201  14.606  0.00  0.00    +0.000 A 
ATOM     25  C   UNL     1       6.858   4.729  14.575  0.00  0.00    +0.000 A 
ATOM     26 CL   UNL     1       7.587   5.116  13.066  0.00  0.00    +0.000 Cl
ATOM     27  C   UNL     1       7.549   4.965  15.761  0.00  0.00    +0.000 A 
ATOM     28  C   UNL     1       6.933   4.709  16.988  0.00  0.00    +0.000 A 
ENDBRANCH  21  22
ENDBRANCH  18  21
ENDBRANCH   3  15
TORSDOF 3
ENDMDL
MODEL 6
REMARK VINA RESULT:      -8.7      0.310      1.350
REMARK  Name = 
REMARK  4 active torsions:
REMARK  status: ('A' for Active; 'I' for Inactive)
REMARK    1  A    between atoms: C_1  and  C_2
REMARK    2  A    between atoms: C_3  and  C_4
REMARK    3  A    between atoms: C_7  and  C_8
REMARK    4  A    between atoms: C_8  and  C_9
REMARK                            x       y       z     vdW  Elec       q    Type
REMARK                         _______ _______ _______ _____ _____    ______ ____
ROOT
ATOM      1  C   UNL     1       2.918   8.246  17.755  0.00  0.00    +0.000 C 
ATOM      2  C   UNL     1       2.598   7.147  18.722  0.00  0.00    +0.000 A 
ATOM      3  C   UNL     1       1.908   7.245  19.877  0.00  0.00    +0.000 A 
ATOM      4  N   UNL     1       1.639   6.178  20.704  0.00  0.00    +0.000 N 
ATOM      5  C   UNL     1       1.951   4.868  20.333  0.00  0.00    +0.000 A 
ATOM      6  C   UNL     1       1.554   3.785  21.127  0.00  0.00    +0.000 A 
ATOM      7  C   UNL     1       1.880   2.479  20.755  0.00  0.00    +0.000 A 
ATOM      8  C   UNL     1       2.636   2.251  19.607  0.00  0.00    +0.000 A 
ATOM      9  C   UNL     1       3.058   3.327  18.829  0.00  0.00    +0.000 A 
ATOM     10  F   UNL     1       3.790   3.060  17.739  0.00  0.00    +0.000 F 
ATOM     11  C   UNL     1       2.710   4.630  19.177  0.00  0.00    +0.000 A 
ATOM     12  C   UNL     1       3.095   5.787  18.333  0.00  0.00    +0.000 A 
ATOM     13  O   UNL     1       3.784   5.645  17.327  0.00  0.00    +0.000 OA
ATOM     14  H   UNL     1       0.990   6.335  21.466  0.00  0.00    +0.000 HD
ENDROOT
BRANCH   3  15
ATOM     15  C   UNL     1       1.357   8.528  20.339  0.00  0.00    +0.000 A 
ATOM     16  C   UNL     1       1.194   8.769  21.706  0.00  0.00    +0.000 A 
ATOM     17  C   UNL     1       0.750  10.016  22.151  0.00  0.00    +0.000 A 
ATOM     18  C   UNL     1       0.461  11.037  21.234  0.00  0.00    +0.000 A 
ATOM     19  C   UNL     1       0.620  10.787  19.864  0.00  0.00    +0.000 A 
ATOM     20  C   UNL     1       1.057   9.537  19.418  0.00  0.00    +0.000 A 
BRANCH  18  21
ATOM     21  C   UNL     1      -0.041  12.374  21.719  0.00  0.00    +0.000 C 
BRANCH  21  22
ATOM     22  C   UNL     1      -1.541  12.557  21.692  0.00  0.00    +0.000 A 
ATOM     23  C   UNL     1      -2.212  12.761  20.476  0.00  0.00    +0.000 A 
ATOM     24  C   UNL     1      -3.608  12.783  20.432  0.00  0.00    +0.000 A 
ATOM     25  C   UNL     1      -4.341  12.617  21.605  0.00  0.00    +0.000 A 
ATOM     26 CL   UNL     1      -6.059  12.566  21.539  0.00  0.00    +0.000 Cl
ATOM     27  C   UNL     1      -3.689  12.470  22.827  0.00  0.00    +0.000 A 
ATOM     28  C   UNL     1      -2.293  12.448  22.872  0.00  0.00    +0.000 A 
ENDBRANCH  21  22
ENDBRANCH  18  21
ENDBRANCH   3  15
TORSDOF 3
ENDMDL
MODEL 7
REMARK VINA RESULT:      -8.6      1.182      1.951
REMARK  Name = 
REMARK  4 active torsions:
REMARK  status: ('A' for Active; 'I' for Inactive)
REMARK    1  A    between atoms: C_1  and  C_2
REMARK    2  A    between atoms: C_3  and  C_4
REMARK    3  A    between atoms: C_7  and  C_8
REMARK    4  A    between atoms: C_8  and  C_9
REMARK                            x       y       z     vdW  Elec       q    Type
REMARK                         _______ _______ _______ _____ _____    ______ ____
ROOT
ATOM      1  C   UNL     1       1.652  10.059  18.276  0.00  0.00    +0.000 C 
ATOM      2  C   UNL     1       1.790   8.787  19.057  0.00  0.00    +0.000 A 
ATOM      3  C   UNL     1       1.374   8.550  20.318  0.00  0.00    +0.000 A 
ATOM      4  N   UNL     1       1.522   7.341  20.960  0.00  0.00    +0.000 N 
ATOM      5  C   UNL     1       2.000   6.211  20.292  0.00  0.00    +0.000 A 
ATOM      6  C   UNL     1       2.021   4.961  20.924  0.00  0.00    +0.000 A 
ATOM      7  C   UNL     1       2.511   3.839  20.253  0.00  0.00    +0.000 A 
ATOM      8  C   UNL     1       3.017   3.966  18.962  0.00  0.00    +0.000 A 
ATOM      9  C   UNL     1       3.025   5.213  18.339  0.00  0.00    +0.000 A 
ATOM     10  F   UNL     1       3.529   5.289  17.100  0.00  0.00    +0.000 F 
ATOM     11  C   UNL     1       2.509   6.331  18.990  0.00  0.00    +0.000 A 
ATOM     12  C   UNL     1       2.451   7.656  18.327  0.00  0.00    +0.000 A 
ATOM     13  O   UNL     1       2.907   7.829  17.202  0.00  0.00    +0.000 OA
ATOM     14  H   UNL     1       1.043   7.226  21.846  0.00  0.00    +0.000 HD
ENDROOT
BRANCH   3  15
ATOM     15  C   UNL     1       0.694   9.584  21.113  0.00  0.00    +0.000 A 
ATOM     16  C   UNL     1       0.765  10.924  20.724  0.00  0.00    +0.000 A 
ATOM     17  C   UNL     1       0.053  11.898  21.428  0.00  0.00    +0.000 A 
ATOM     18  C   UNL     1      -0.737  11.543  22.531  0.00  0.00    +0.000 A 
ATOM     19  C   UNL     1      -0.798  10.197  22.920  0.00  0.00    +0.000 A 
ATOM     20  C   UNL     1      -0.079   9.224  22.221  0.00  0.00    +0.000 A 
BRANCH  18  21
ATOM     21  C   UNL     1      -1.484  12.601  23.302  0.00  0.00    +0.000 C 
BRANCH  21  22
ATOM     22  C   UNL     1      -2.944  12.762  22.943  0.00  0.00    +0.000 A 
ATOM     23  C   UNL     1      -3.353  12.753  21.601  0.00  0.00    +0.000 A 
ATOM     24  C   UNL     1      -4.711  12.753  21.273  0.00  0.00    +0.000 A 
ATOM     25  C   UNL     1      -5.668  12.779  22.286  0.00  0.00    +0.000 A 
ATOM     26 CL   UNL     1      -7.338  12.700  21.885  0.00  0.00    +0.000 Cl
ATOM     27  C   UNL     1      -5.277  12.844  23.621  0.00  0.00    +0.000 A 
ATOM     28  C   UNL     1      -3.920  12.845  23.949  0.00  0.00    +0.000 A 
ENDBRANCH  21  22
ENDBRANCH  18  21
ENDBRANCH   3  15
TORSDOF 3
ENDMDL
MODEL 8
REMARK VINA RESULT:      -8.6      1.653      2.144
REMARK  Name = 
REMARK  4 active torsions:
REMARK  status: ('A' for Active; 'I' for Inactive)
REMARK    1  A    between atoms: C_1  and  C_2
REMARK    2  A    between atoms: C_3  and  C_4
REMARK    3  A    between atoms: C_7  and  C_8
REMARK    4  A    between atoms: C_8  and  C_9
REMARK                            x       y       z     vdW  Elec       q    Type
REMARK                         _______ _______ _______ _____ _____    ______ ____
ROOT
ATOM      1  C   UNL     1       3.368   7.977  17.452  0.00  0.00    +0.000 C 
ATOM      2  C   UNL     1       3.029   7.043  18.573  0.00  0.00    +0.000 A 
ATOM      3  C   UNL     1       2.170   7.261  19.592  0.00  0.00    +0.000 A 
ATOM      4  N   UNL     1       1.899   6.338  20.576  0.00  0.00    +0.000 N 
ATOM      5  C   UNL     1       2.400   5.035  20.517  0.00  0.00    +0.000 A 
ATOM      6  C   UNL     1       2.008   4.075  21.458  0.00  0.00    +0.000 A 
ATOM      7  C   UNL     1       2.522   2.778  21.399  0.00  0.00    +0.000 A 
ATOM      8  C   UNL     1       3.457   2.444  20.422  0.00  0.00    +0.000 A 
ATOM      9  C   UNL     1       3.872   3.404  19.502  0.00  0.00    +0.000 A 
ATOM     10  F   UNL     1       4.779   3.041  18.585  0.00  0.00    +0.000 F 
ATOM     11  C   UNL     1       3.341   4.691  19.535  0.00  0.00    +0.000 A 
ATOM     12  C   UNL     1       3.720   5.713  18.530  0.00  0.00    +0.000 A 
ATOM     13  O   UNL     1       4.559   5.481  17.665  0.00  0.00    +0.000 OA
ATOM     14  H   UNL     1       1.132   6.545  21.206  0.00  0.00    +0.000 HD
ENDROOT
BRANCH   3  15
ATOM     15  C   UNL     1       1.425   8.522  19.715  0.00  0.00    +0.000 A 
ATOM     16  C   UNL     1       1.332   9.390  18.623  0.00  0.00    +0.000 A 
ATOM     17  C   UNL     1       0.556  10.548  18.710  0.00  0.00    +0.000 A 
ATOM     18  C   UNL     1      -0.134  10.854  19.892  0.00  0.00    +0.000 A 
ATOM     19  C   UNL     1      -0.030   9.983  20.986  0.00  0.00    +0.000 A 
ATOM     20  C   UNL     1       0.752   8.829  20.902  0.00  0.00    +0.000 A 
BRANCH  18  21
ATOM     21  C   UNL     1      -0.951  12.118  19.989  0.00  0.00    +0.000 C 
BRANCH  21  22
ATOM     22  C   UNL     1      -2.354  12.033  19.434  0.00  0.00    +0.000 A 
ATOM     23  C   UNL     1      -2.611  11.318  18.253  0.00  0.00    +0.000 A 
ATOM     24  C   UNL     1      -3.923  11.115  17.819  0.00  0.00    +0.000 A 
ATOM     25  C   UNL     1      -4.985  11.639  18.554  0.00  0.00    +0.000 A 
ATOM     26 CL   UNL     1      -6.603  11.322  18.063  0.00  0.00    +0.000 Cl
ATOM     27  C   UNL     1      -4.743  12.397  19.697  0.00  0.00    +0.000 A 
ATOM     28  C   UNL     1      -3.431  12.602  20.131  0.00  0.00    +0.000 A 
ENDBRANCH  21  22
ENDBRANCH  18  21
ENDBRANCH   3  15
TORSDOF 3
ENDMDL
MODEL 9
REMARK VINA RESULT:      -8.5      1.729      2.428
REMARK  Name = 
REMARK  4 active torsions:
REMARK  status: ('A' for Active; 'I' for Inactive)
REMARK    1  A    between atoms: C_1  and  C_2
REMARK    2  A    between atoms: C_3  and  C_4
REMARK    3  A    between atoms: C_7  and  C_8
REMARK    4  A    between atoms: C_8  and  C_9
REMARK                            x       y       z     vdW  Elec       q    Type
REMARK                         _______ _______ _______ _____ _____    ______ ____
ROOT
ATOM      1  C   UNL     1       3.843   7.485  17.378  0.00  0.00    +0.000 C 
ATOM      2  C   UNL     1       3.361   6.644  18.521  0.00  0.00    +0.000 A 
ATOM      3  C   UNL     1       2.414   6.958  19.429  0.00  0.00    +0.000 A 
ATOM      4  N   UNL     1       2.014   6.117  20.442  0.00  0.00    +0.000 N 
ATOM      5  C   UNL     1       2.472   4.800  20.525  0.00  0.00    +0.000 A 
ATOM      6  C   UNL     1       1.955   3.922  21.485  0.00  0.00    +0.000 A 
ATOM      7  C   UNL     1       2.426   2.610  21.568  0.00  0.00    +0.000 A 
ATOM      8  C   UNL     1       3.442   2.180  20.717  0.00  0.00    +0.000 A 
ATOM      9  C   UNL     1       3.980   3.059  19.779  0.00  0.00    +0.000 A 
ATOM     10  F   UNL     1       4.960   2.605  18.987  0.00  0.00    +0.000 F 
ATOM     11  C   UNL     1       3.493   4.360  19.669  0.00  0.00    +0.000 A 
ATOM     12  C   UNL     1       4.006   5.295  18.640  0.00  0.00    +0.000 A 
ATOM     13  O   UNL     1       4.918   4.978  17.884  0.00  0.00    +0.000 OA
ATOM     14  H   UNL     1       1.196   6.391  20.975  0.00  0.00    +0.000 HD
ENDROOT
BRANCH   3  15
ATOM     15  C   UNL     1       1.705   8.246  19.388  0.00  0.00    +0.000 A 
ATOM     16  C   UNL     1       1.110   8.755  20.547  0.00  0.00    +0.000 A 
ATOM     17  C   UNL     1       0.508  10.015  20.531  0.00  0.00    +0.000 A 
ATOM     18  C   UNL     1       0.491  10.780  19.357  0.00  0.00    +0.000 A 
ATOM     19  C   UNL     1       1.083  10.261  18.196  0.00  0.00    +0.000 A 
ATOM     20  C   UNL     1       1.678   8.998  18.209  0.00  0.00    +0.000 A 
BRANCH  18  21
ATOM     21  C   UNL     1      -0.182  12.130  19.339  0.00  0.00    +0.000 C 
BRANCH  21  22
ATOM     22  C   UNL     1      -1.670  12.115  19.077  0.00  0.00    +0.000 A 
ATOM     23  C   UNL     1      -2.182  11.524  17.911  0.00  0.00    +0.000 A 
ATOM     24  C   UNL     1      -3.560  11.378  17.737  0.00  0.00    +0.000 A 
ATOM     25  C   UNL     1      -4.435  11.836  18.720  0.00  0.00    +0.000 A 
ATOM     26 CL   UNL     1      -6.128  11.585  18.542  0.00  0.00    +0.000 Cl
ATOM     27  C   UNL     1      -3.945  12.474  19.857  0.00  0.00    +0.000 A 
ATOM     28  C   UNL     1      -2.566  12.621  20.031  0.00  0.00    +0.000 A 
ENDBRANCH  21  22
ENDBRANCH  18  21
ENDBRANCH   3  15
TORSDOF 3
ENDMDL
