MODEL 1
REMARK VINA RESULT:      -8.4      0.000      0.000
REMARK  Name = 
REMARK  7 active torsions:
REMARK  status: ('A' for Active; 'I' for Inactive)
REMARK    1  A    between atoms: C_1  and  C_2
REMARK    2  A    between atoms: C_2  and  C_3
REMARK    3  A    between atoms: C_3  and  N_4
REMARK    4  A    between atoms: C_5  and  C_7
REMARK    5  A    between atoms: C_10  and  O_11
REMARK    6  A    between atoms: O_11  and  C_12
REMARK    7  A    between atoms: C_20  and  C_21
REMARK                            x       y       z     vdW  Elec       q    Type
REMARK                         _______ _______ _______ _____ _____    ______ ____
ROOT
ATOM      1  C   UNL     1       7.057   4.992  16.707  0.00  0.00    +0.000 A 
ATOM      2  C   UNL     1       7.424   4.883  18.052  0.00  0.00    +0.000 A 
ATOM      3  C   UNL     1       6.526   5.256  19.046  0.00  0.00    +0.000 A 
ATOM      4  C   UNL     1       5.274   5.745  18.690  0.00  0.00    +0.000 A 
ATOM      5  C   UNL     1       4.949   5.997  17.352  0.00  0.00    +0.000 A 
ATOM      6  C   UNL     1       5.857   5.614  16.355  0.00  0.00    +0.000 A 
ATOM      7  C   UNL     1       3.619   6.592  16.982  0.00  0.00    +0.000 C 
ATOM      8  C   UNL     1       2.786   6.909  18.222  0.00  0.00    +0.000 C 
ATOM      9  C   UNL     1       2.998   5.837  19.299  0.00  0.00    +0.000 C 
ATOM     10  O   UNL     1       4.380   5.900  19.719  0.00  0.00    +0.000 OA
ENDROOT
BRANCH   9  11
ATOM     11  C   UNL     1       2.531   4.415  18.968  0.00  0.00    +0.000 A 
ATOM     12  C   UNL     1       3.401   3.498  18.349  0.00  0.00    +0.000 A 
ATOM     13  C   UNL     1       2.990   2.194  18.059  0.00  0.00    +0.000 A 
ATOM     14  C   UNL     1       1.709   1.773  18.400  0.00  0.00    +0.000 A 
ATOM     15  C   UNL     1       0.839   2.657  19.033  0.00  0.00    +0.000 A 
ATOM     16  C   UNL     1       1.248   3.963  19.319  0.00  0.00    +0.000 A 
ENDBRANCH   9  11
BRANCH   1  17
ATOM     17  O   UNL     1       7.853   4.525  15.688  0.00  0.00    +0.000 OA
BRANCH  17  21
ATOM     18  C   UNL     1       6.273   3.852  12.623  0.00  0.00    +0.000 A 
ATOM     19  C   UNL     1       7.117   4.786  12.054  0.00  0.00    +0.000 A 
ATOM     20  S   UNL     1       8.102   5.513  13.246  0.00  0.00    +0.000 S 
ATOM     21  C   UNL     1       7.401   4.488  14.429  0.00  0.00    +0.000 A 
ATOM     22  N   UNL     1       6.431   3.699  14.003  0.00  0.00    +0.000 NA
BRANCH  18  24
ATOM     23  N   UNL     1       4.186   3.801  11.440  0.00  0.00    +0.000 N 
ATOM     24  C   UNL     1       5.299   3.086  11.832  0.00  0.00    +0.000 C 
ATOM     25  O   UNL     1       5.471   1.905  11.550  0.00  0.00    +0.000 OA
ATOM     26  H   UNL     1       4.116   4.759  11.763  0.00  0.00    +0.000 HD
BRANCH  23  27
ATOM     27  C   UNL     1       3.127   3.201  10.652  0.00  0.00    +0.000 C 
BRANCH  27  29
ATOM     28  C   UNL     1       2.177   4.976   9.112  0.00  0.00    +0.000 C 
ATOM     29  C   UNL     1       3.064   3.745   9.225  0.00  0.00    +0.000 C 
ENDBRANCH  27  29
ENDBRANCH  23  27
ENDBRANCH  18  24
ENDBRANCH  17  21
ENDBRANCH   1  17
TORSDOF 6
ENDMDL
MODEL 2
REMARK VINA RESULT:      -8.2      4.040      6.263
REMARK  Name = 
REMARK  7 active torsions:
REMARK  status: ('A' for Active; 'I' for Inactive)
REMARK    1  A    between atoms: C_1  and  C_2
REMARK    2  A    between atoms: C_2  and  C_3
REMARK    3  A    between atoms: C_3  and  N_4
REMARK    4  A    between atoms: C_5  and  C_7
REMARK    5  A    between atoms: C_10  and  O_11
REMARK    6  A    between atoms: O_11  and  C_12
REMARK    7  A    between atoms: C_20  and  C_21
REMARK                            x       y       z     vdW  Elec       q    Type
REMARK                         _______ _______ _______ _____ _____    ______ ____
ROOT
ATOM      1  C   UNL     1       2.192   7.022  18.797  0.00  0.00    +0.000 A 
ATOM      2  C   UNL     1       1.759   7.057  20.124  0.00  0.00    +0.000 A 
ATOM      3  C   UNL     1       1.353   8.261  20.689  0.00  0.00    +0.000 A 
ATOM      4  C   UNL     1       1.396   9.424  19.925  0.00  0.00    +0.000 A 
ATOM      5  C   UNL     1       1.964   9.429  18.647  0.00  0.00    +0.000 A 
ATOM      6  C   UNL     1       2.367   8.210  18.083  0.00  0.00    +0.000 A 
ATOM      7  C   UNL     1       2.070  10.704  17.857  0.00  0.00    +0.000 C 
ATOM      8  C   UNL     1       1.554  11.899  18.656  0.00  0.00    +0.000 C 
ATOM      9  C   UNL     1       0.344  11.493  19.508  0.00  0.00    +0.000 C 
ATOM     10  O   UNL     1       0.795  10.524  20.482  0.00  0.00    +0.000 OA
ENDROOT
BRANCH   9  11
ATOM     11  C   UNL     1      -0.919  11.052  18.759  0.00  0.00    +0.000 A 
ATOM     12  C   UNL     1      -2.168  11.628  19.054  0.00  0.00    +0.000 A 
ATOM     13  C   UNL     1      -3.322  11.246  18.365  0.00  0.00    +0.000 A 
ATOM     14  C   UNL     1      -3.248  10.294  17.353  0.00  0.00    +0.000 A 
ATOM     15  C   UNL     1      -2.019   9.727  17.029  0.00  0.00    +0.000 A 
ATOM     16  C   UNL     1      -0.865  10.106  17.721  0.00  0.00    +0.000 A 
ENDBRANCH   9  11
BRANCH   1  17
ATOM     17  O   UNL     1       2.487   5.845  18.150  0.00  0.00    +0.000 OA
BRANCH  17  21
ATOM     18  C   UNL     1       5.611   4.848  16.887  0.00  0.00    +0.000 A 
ATOM     19  C   UNL     1       6.026   4.708  18.196  0.00  0.00    +0.000 A 
ATOM     20  S   UNL     1       4.791   5.190  19.275  0.00  0.00    +0.000 S 
ATOM     21  C   UNL     1       3.757   5.481  17.938  0.00  0.00    +0.000 A 
ATOM     22  N   UNL     1       4.301   5.314  16.745  0.00  0.00    +0.000 NA
BRANCH  18  24
ATOM     23  N   UNL     1       5.809   4.237  14.575  0.00  0.00    +0.000 N 
ATOM     24  C   UNL     1       6.480   4.525  15.746  0.00  0.00    +0.000 C 
ATOM     25  O   UNL     1       7.703   4.513  15.838  0.00  0.00    +0.000 OA
ATOM     26  H   UNL     1       4.796   4.228  14.614  0.00  0.00    +0.000 HD
BRANCH  23  27
ATOM     27  C   UNL     1       6.510   3.900  13.352  0.00  0.00    +0.000 C 
BRANCH  27  29
ATOM     28  C   UNL     1       6.235   2.154  11.534  0.00  0.00    +0.000 C 
ATOM     29  C   UNL     1       5.592   3.314  12.280  0.00  0.00    +0.000 C 
ENDBRANCH  27  29
ENDBRANCH  23  27
ENDBRANCH  18  24
ENDBRANCH  17  21
ENDBRANCH   1  17
TORSDOF 6
ENDMDL
MODEL 3
REMARK VINA RESULT:      -8.1      3.957      6.070
REMARK  Name = 
REMARK  7 active torsions:
REMARK  status: ('A' for Active; 'I' for Inactive)
REMARK    1  A    between atoms: C_1  and  C_2
REMARK    2  A    between atoms: C_2  and  C_3
REMARK    3  A    between atoms: C_3  and  N_4
REMARK    4  A    between atoms: C_5  and  C_7
REMARK    5  A    between atoms: C_10  and  O_11
REMARK    6  A    between atoms: O_11  and  C_12
REMARK    7  A    between atoms: C_20  and  C_21
REMARK                            x       y       z     vdW  Elec       q    Type
REMARK                         _______ _______ _______ _____ _____    ______ ____
ROOT
ATOM      1  C   UNL     1       2.252   6.956  18.801  0.00  0.00    +0.000 A 
ATOM      2  C   UNL     1       1.756   6.948  20.108  0.00  0.00    +0.000 A 
ATOM      3  C   UNL     1       1.315   8.132  20.689  0.00  0.00    +0.000 A 
ATOM      4  C   UNL     1       1.384   9.317  19.964  0.00  0.00    +0.000 A 
ATOM      5  C   UNL     1       2.012   9.366  18.714  0.00  0.00    +0.000 A 
ATOM      6  C   UNL     1       2.450   8.167  18.133  0.00  0.00    +0.000 A 
ATOM      7  C   UNL     1       2.144  10.665  17.969  0.00  0.00    +0.000 C 
ATOM      8  C   UNL     1       1.582  11.831  18.779  0.00  0.00    +0.000 C 
ATOM      9  C   UNL     1       0.337  11.391  19.560  0.00  0.00    +0.000 C 
ATOM     10  O   UNL     1       0.749  10.396  20.525  0.00  0.00    +0.000 OA
ENDROOT
BRANCH   9  11
ATOM     11  C   UNL     1      -0.887  10.965  18.740  0.00  0.00    +0.000 A 
ATOM     12  C   UNL     1      -0.769  10.006  17.718  0.00  0.00    +0.000 A 
ATOM     13  C   UNL     1      -1.881   9.599  16.976  0.00  0.00    +0.000 A 
ATOM     14  C   UNL     1      -3.138  10.128  17.254  0.00  0.00    +0.000 A 
ATOM     15  C   UNL     1      -3.281  11.062  18.275  0.00  0.00    +0.000 A 
ATOM     16  C   UNL     1      -2.168  11.474  19.015  0.00  0.00    +0.000 A 
ENDBRANCH   9  11
BRANCH   1  17
ATOM     17  O   UNL     1       2.586   5.802  18.134  0.00  0.00    +0.000 OA
BRANCH  17  21
ATOM     18  C   UNL     1       5.683   5.154  16.606  0.00  0.00    +0.000 A 
ATOM     19  C   UNL     1       6.173   4.866  17.864  0.00  0.00    +0.000 A 
ATOM     20  S   UNL     1       4.975   5.132  19.053  0.00  0.00    +0.000 S 
ATOM     21  C   UNL     1       3.859   5.540  17.816  0.00  0.00    +0.000 A 
ATOM     22  N   UNL     1       4.346   5.561  16.589  0.00  0.00    +0.000 NA
BRANCH  18  24
ATOM     23  N   UNL     1       5.985   4.195  14.427  0.00  0.00    +0.000 N 
ATOM     24  C   UNL     1       6.505   5.032  15.393  0.00  0.00    +0.000 C 
ATOM     25  O   UNL     1       7.568   5.629  15.261  0.00  0.00    +0.000 OA
ATOM     26  H   UNL     1       5.123   3.712  14.651  0.00  0.00    +0.000 HD
BRANCH  23  27
ATOM     27  C   UNL     1       6.663   3.962  13.167  0.00  0.00    +0.000 C 
BRANCH  27  29
ATOM     28  C   UNL     1       4.503   3.560  11.903  0.00  0.00    +0.000 C 
ATOM     29  C   UNL     1       5.890   3.029  12.237  0.00  0.00    +0.000 C 
ENDBRANCH  27  29
ENDBRANCH  23  27
ENDBRANCH  18  24
ENDBRANCH  17  21
ENDBRANCH   1  17
TORSDOF 6
ENDMDL
MODEL 4
REMARK VINA RESULT:      -7.9      4.396      7.034
REMARK  Name = 
REMARK  7 active torsions:
REMARK  status: ('A' for Active; 'I' for Inactive)
REMARK    1  A    between atoms: C_1  and  C_2
REMARK    2  A    between atoms: C_2  and  C_3
REMARK    3  A    between atoms: C_3  and  N_4
REMARK    4  A    between atoms: C_5  and  C_7
REMARK    5  A    between atoms: C_10  and  O_11
REMARK    6  A    between atoms: O_11  and  C_12
REMARK    7  A    between atoms: C_20  and  C_21
REMARK                            x       y       z     vdW  Elec       q    Type
REMARK                         _______ _______ _______ _____ _____    ______ ____
ROOT
ATOM      1  C   UNL     1       2.445   7.666  19.105  0.00  0.00    +0.000 A 
ATOM      2  C   UNL     1       2.069   7.972  17.794  0.00  0.00    +0.000 A 
ATOM      3  C   UNL     1       1.144   8.982  17.556  0.00  0.00    +0.000 A 
ATOM      4  C   UNL     1       0.591   9.671  18.631  0.00  0.00    +0.000 A 
ATOM      5  C   UNL     1       0.846   9.278  19.950  0.00  0.00    +0.000 A 
ATOM      6  C   UNL     1       1.783   8.262  20.182  0.00  0.00    +0.000 A 
ATOM      7  C   UNL     1       0.189   9.984  21.103  0.00  0.00    +0.000 C 
ATOM      8  C   UNL     1      -0.774  11.066  20.619  0.00  0.00    +0.000 C 
ATOM      9  C   UNL     1      -0.217  11.759  19.369  0.00  0.00    +0.000 C 
ATOM     10  O   UNL     1      -0.153  10.777  18.310  0.00  0.00    +0.000 OA
ENDROOT
BRANCH   9  11
ATOM     11  C   UNL     1       1.084  12.554  19.534  0.00  0.00    +0.000 A 
ATOM     12  C   UNL     1       1.893  12.849  18.421  0.00  0.00    +0.000 A 
ATOM     13  C   UNL     1       3.072  13.587  18.560  0.00  0.00    +0.000 A 
ATOM     14  C   UNL     1       3.456  14.063  19.809  0.00  0.00    +0.000 A 
ATOM     15  C   UNL     1       2.659  13.801  20.920  0.00  0.00    +0.000 A 
ATOM     16  C   UNL     1       1.482  13.059  20.783  0.00  0.00    +0.000 A 
ENDBRANCH   9  11
BRANCH   1  17
ATOM     17  O   UNL     1       3.442   6.765  19.393  0.00  0.00    +0.000 OA
BRANCH  17  21
ATOM     18  C   UNL     1       5.068   4.930  16.877  0.00  0.00    +0.000 A 
ATOM     19  C   UNL     1       3.979   4.080  16.879  0.00  0.00    +0.000 A 
ATOM     20  S   UNL     1       2.859   4.541  18.085  0.00  0.00    +0.000 S 
ATOM     21  C   UNL     1       3.853   5.882  18.476  0.00  0.00    +0.000 A 
ATOM     22  N   UNL     1       4.995   5.961  17.817  0.00  0.00    +0.000 NA
BRANCH  18  24
ATOM     23  N   UNL     1       5.840   4.477  14.650  0.00  0.00    +0.000 N 
ATOM     24  C   UNL     1       6.199   4.758  15.953  0.00  0.00    +0.000 C 
ATOM     25  O   UNL     1       7.364   4.856  16.321  0.00  0.00    +0.000 OA
ATOM     26  H   UNL     1       4.850   4.371  14.457  0.00  0.00    +0.000 HD
BRANCH  23  27
ATOM     27  C   UNL     1       6.827   4.281  13.607  0.00  0.00    +0.000 C 
BRANCH  27  29
ATOM     28  C   UNL     1       4.781   3.533  12.312  0.00  0.00    +0.000 C 
ATOM     29  C   UNL     1       6.296   3.466  12.428  0.00  0.00    +0.000 C 
ENDBRANCH  27  29
ENDBRANCH  23  27
ENDBRANCH  18  24
ENDBRANCH  17  21
ENDBRANCH   1  17
TORSDOF 6
ENDMDL
MODEL 5
REMARK VINA RESULT:      -7.9      5.936      8.780
REMARK  Name = 
REMARK  7 active torsions:
REMARK  status: ('A' for Active; 'I' for Inactive)
REMARK    1  A    between atoms: C_1  and  C_2
REMARK    2  A    between atoms: C_2  and  C_3
REMARK    3  A    between atoms: C_3  and  N_4
REMARK    4  A    between atoms: C_5  and  C_7
REMARK    5  A    between atoms: C_10  and  O_11
REMARK    6  A    between atoms: O_11  and  C_12
REMARK    7  A    between atoms: C_20  and  C_21
REMARK                            x       y       z     vdW  Elec       q    Type
REMARK                         _______ _______ _______ _____ _____    ______ ____
ROOT
ATOM      1  C   UNL     1       1.877   8.162  18.607  0.00  0.00    +0.000 A 
ATOM      2  C   UNL     1       2.022   7.944  19.979  0.00  0.00    +0.000 A 
ATOM      3  C   UNL     1       2.367   6.680  20.447  0.00  0.00    +0.000 A 
ATOM      4  C   UNL     1       2.551   5.642  19.540  0.00  0.00    +0.000 A 
ATOM      5  C   UNL     1       2.266   5.809  18.180  0.00  0.00    +0.000 A 
ATOM      6  C   UNL     1       1.925   7.087  17.716  0.00  0.00    +0.000 A 
ATOM      7  C   UNL     1       2.402   4.662  17.219  0.00  0.00    +0.000 C 
ATOM      8  C   UNL     1       2.803   3.376  17.938  0.00  0.00    +0.000 C 
ATOM      9  C   UNL     1       3.781   3.683  19.080  0.00  0.00    +0.000 C 
ATOM     10  O   UNL     1       3.082   4.487  20.056  0.00  0.00    +0.000 OA
ENDROOT
BRANCH   9  11
ATOM     11  C   UNL     1       5.147   4.260  18.690  0.00  0.00    +0.000 A 
ATOM     12  C   UNL     1       5.708   3.993  17.428  0.00  0.00    +0.000 A 
ATOM     13  C   UNL     1       6.945   4.528  17.058  0.00  0.00    +0.000 A 
ATOM     14  C   UNL     1       7.637   5.358  17.934  0.00  0.00    +0.000 A 
ATOM     15  C   UNL     1       7.091   5.654  19.179  0.00  0.00    +0.000 A 
ATOM     16  C   UNL     1       5.856   5.114  19.552  0.00  0.00    +0.000 A 
ENDBRANCH   9  11
BRANCH   1  17
ATOM     17  O   UNL     1       1.660   9.413  18.080  0.00  0.00    +0.000 OA
BRANCH  17  21
ATOM     18  C   UNL     1      -1.617  10.675  18.209  0.00  0.00    +0.000 A 
ATOM     19  C   UNL     1      -1.128  11.690  19.008  0.00  0.00    +0.000 A 
ATOM     20  S   UNL     1       0.535  11.458  19.326  0.00  0.00    +0.000 S 
ATOM     21  C   UNL     1       0.519  10.068  18.322  0.00  0.00    +0.000 A 
ATOM     22  N   UNL     1      -0.660   9.729  17.830  0.00  0.00    +0.000 NA
BRANCH  18  24
ATOM     23  N   UNL     1      -3.577  11.823  17.435  0.00  0.00    +0.000 N 
ATOM     24  C   UNL     1      -3.025  10.609  17.792  0.00  0.00    +0.000 C 
ATOM     25  O   UNL     1      -3.652   9.556  17.769  0.00  0.00    +0.000 OA
ATOM     26  H   UNL     1      -2.989  12.643  17.533  0.00  0.00    +0.000 HD
BRANCH  23  27
ATOM     27  C   UNL     1      -4.953  11.941  16.996  0.00  0.00    +0.000 C 
BRANCH  27  29
ATOM     28  C   UNL     1      -7.290  12.748  17.554  0.00  0.00    +0.000 C 
ATOM     29  C   UNL     1      -5.869  12.545  18.060  0.00  0.00    +0.000 C 
ENDBRANCH  27  29
ENDBRANCH  23  27
ENDBRANCH  18  24
ENDBRANCH  17  21
ENDBRANCH   1  17
TORSDOF 6
ENDMDL
MODEL 6
REMARK VINA RESULT:      -7.9      5.460      7.980
REMARK  Name = 
REMARK  7 active torsions:
REMARK  status: ('A' for Active; 'I' for Inactive)
REMARK    1  A    between atoms: C_1  and  C_2
REMARK    2  A    between atoms: C_2  and  C_3
REMARK    3  A    between atoms: C_3  and  N_4
REMARK    4  A    between atoms: C_5  and  C_7
REMARK    5  A    between atoms: C_10  and  O_11
REMARK    6  A    between atoms: O_11  and  C_12
REMARK    7  A    between atoms: C_20  and  C_21
REMARK                            x       y       z     vdW  Elec       q    Type
REMARK                         _______ _______ _______ _____ _____    ______ ____
ROOT
ATOM      1  C   UNL     1       1.876   8.205  18.917  0.00  0.00    +0.000 A 
ATOM      2  C   UNL     1       2.020   7.847  20.260  0.00  0.00    +0.000 A 
ATOM      3  C   UNL     1       2.359   6.542  20.597  0.00  0.00    +0.000 A 
ATOM      4  C   UNL     1       2.541   5.601  19.588  0.00  0.00    +0.000 A 
ATOM      5  C   UNL     1       2.258   5.907  18.253  0.00  0.00    +0.000 A 
ATOM      6  C   UNL     1       1.920   7.227  17.921  0.00  0.00    +0.000 A 
ATOM      7  C   UNL     1       2.390   4.863  17.179  0.00  0.00    +0.000 C 
ATOM      8  C   UNL     1       2.786   3.509  17.764  0.00  0.00    +0.000 C 
ATOM      9  C   UNL     1       3.764   3.695  18.932  0.00  0.00    +0.000 C 
ATOM     10  O   UNL     1       3.067   4.397  19.985  0.00  0.00    +0.000 OA
ENDROOT
BRANCH   9  11
ATOM     11  C   UNL     1       5.133   4.304  18.604  0.00  0.00    +0.000 A 
ATOM     12  C   UNL     1       5.815   5.091  19.549  0.00  0.00    +0.000 A 
ATOM     13  C   UNL     1       7.070   5.636  19.265  0.00  0.00    +0.000 A 
ATOM     14  C   UNL     1       7.679   5.389  18.039  0.00  0.00    +0.000 A 
ATOM     15  C   UNL     1       7.032   4.595  17.097  0.00  0.00    +0.000 A 
ATOM     16  C   UNL     1       5.773   4.053  17.378  0.00  0.00    +0.000 A 
ENDBRANCH   9  11
BRANCH   1  17
ATOM     17  O   UNL     1       1.664   9.504  18.520  0.00  0.00    +0.000 OA
BRANCH  17  21
ATOM     18  C   UNL     1      -1.630  10.561  17.904  0.00  0.00    +0.000 A 
ATOM     19  C   UNL     1      -1.516  11.362  19.022  0.00  0.00    +0.000 A 
ATOM     20  S   UNL     1      -0.004  11.126  19.781  0.00  0.00    +0.000 S 
ATOM     21  C   UNL     1       0.434  10.032  18.536  0.00  0.00    +0.000 A 
ATOM     22  N   UNL     1      -0.502   9.779  17.639  0.00  0.00    +0.000 NA
BRANCH  18  24
ATOM     23  N   UNL     1      -2.606  10.306  15.727  0.00  0.00    +0.000 N 
ATOM     24  C   UNL     1      -2.838  10.544  17.066  0.00  0.00    +0.000 C 
ATOM     25  O   UNL     1      -3.958  10.731  17.529  0.00  0.00    +0.000 OA
ATOM     26  H   UNL     1      -1.640  10.211  15.435  0.00  0.00    +0.000 HD
BRANCH  23  27
ATOM     27  C   UNL     1      -3.684  10.253  14.758  0.00  0.00    +0.000 C 
BRANCH  27  29
ATOM     28  C   UNL     1      -4.338   9.847  12.343  0.00  0.00    +0.000 C 
ATOM     29  C   UNL     1      -3.223   9.786  13.378  0.00  0.00    +0.000 C 
ENDBRANCH  27  29
ENDBRANCH  23  27
ENDBRANCH  18  24
ENDBRANCH  17  21
ENDBRANCH   1  17
TORSDOF 6
ENDMDL
MODEL 7
REMARK VINA RESULT:      -7.7      4.607      7.546
REMARK  Name = 
REMARK  7 active torsions:
REMARK  status: ('A' for Active; 'I' for Inactive)
REMARK    1  A    between atoms: C_1  and  C_2
REMARK    2  A    between atoms: C_2  and  C_3
REMARK    3  A    between atoms: C_3  and  N_4
REMARK    4  A    between atoms: C_5  and  C_7
REMARK    5  A    between atoms: C_10  and  O_11
REMARK    6  A    between atoms: O_11  and  C_12
REMARK    7  A    between atoms: C_20  and  C_21
REMARK                            x       y       z     vdW  Elec       q    Type
REMARK                         _______ _______ _______ _____ _____    ______ ____
ROOT
ATOM      1  C   UNL     1       1.378   7.307  20.717  0.00  0.00    +0.000 A 
ATOM      2  C   UNL     1       1.085   8.126  21.811  0.00  0.00    +0.000 A 
ATOM      3  C   UNL     1       0.987   9.502  21.639  0.00  0.00    +0.000 A 
ATOM      4  C   UNL     1       1.194  10.050  20.378  0.00  0.00    +0.000 A 
ATOM      5  C   UNL     1       1.631   9.261  19.308  0.00  0.00    +0.000 A 
ATOM      6  C   UNL     1       1.723   7.874  19.488  0.00  0.00    +0.000 A 
ATOM      7  C   UNL     1       1.920   9.875  17.967  0.00  0.00    +0.000 C 
ATOM      8  C   UNL     1       1.734  11.390  17.995  0.00  0.00    +0.000 C 
ATOM      9  C   UNL     1       0.551  11.769  18.896  0.00  0.00    +0.000 C 
ATOM     10  O   UNL     1       0.884  11.380  20.248  0.00  0.00    +0.000 OA
ENDROOT
BRANCH   9  11
ATOM     11  C   UNL     1      -0.839  11.294  18.457  0.00  0.00    +0.000 A 
ATOM     12  C   UNL     1      -2.000  11.928  18.937  0.00  0.00    +0.000 A 
ATOM     13  C   UNL     1      -3.271  11.513  18.529  0.00  0.00    +0.000 A 
ATOM     14  C   UNL     1      -3.407  10.471  17.617  0.00  0.00    +0.000 A 
ATOM     15  C   UNL     1      -2.271   9.845  17.113  0.00  0.00    +0.000 A 
ATOM     16  C   UNL     1      -0.999  10.255  17.525  0.00  0.00    +0.000 A 
ENDBRANCH   9  11
BRANCH   1  17
ATOM     17  O   UNL     1       1.367   5.935  20.802  0.00  0.00    +0.000 OA
BRANCH  17  21
ATOM     18  C   UNL     1       4.232   4.623  19.249  0.00  0.00    +0.000 A 
ATOM     19  C   UNL     1       3.468   3.524  18.909  0.00  0.00    +0.000 A 
ATOM     20  S   UNL     1       1.894   3.660  19.558  0.00  0.00    +0.000 S 
ATOM     21  C   UNL     1       2.301   5.204  20.184  0.00  0.00    +0.000 A 
ATOM     22  N   UNL     1       3.554   5.584  20.004  0.00  0.00    +0.000 NA
BRANCH  18  24
ATOM     23  N   UNL     1       5.910   4.326  17.560  0.00  0.00    +0.000 N 
ATOM     24  C   UNL     1       5.638   4.763  18.840  0.00  0.00    +0.000 C 
ATOM     25  O   UNL     1       6.492   5.229  19.585  0.00  0.00    +0.000 OA
ATOM     26  H   UNL     1       5.144   3.913  17.040  0.00  0.00    +0.000 HD
BRANCH  23  27
ATOM     27  C   UNL     1       7.243   4.393  16.993  0.00  0.00    +0.000 C 
BRANCH  27  29
ATOM     28  C   UNL     1       6.128   4.191  14.725  0.00  0.00    +0.000 C 
ATOM     29  C   UNL     1       7.248   4.835  15.530  0.00  0.00    +0.000 C 
ENDBRANCH  27  29
ENDBRANCH  23  27
ENDBRANCH  18  24
ENDBRANCH  17  21
ENDBRANCH   1  17
TORSDOF 6
ENDMDL
MODEL 8
REMARK VINA RESULT:      -7.6      5.954      8.852
REMARK  Name = 
REMARK  7 active torsions:
REMARK  status: ('A' for Active; 'I' for Inactive)
REMARK    1  A    between atoms: C_1  and  C_2
REMARK    2  A    between atoms: C_2  and  C_3
REMARK    3  A    between atoms: C_3  and  N_4
REMARK    4  A    between atoms: C_5  and  C_7
REMARK    5  A    between atoms: C_10  and  O_11
REMARK    6  A    between atoms: O_11  and  C_12
REMARK    7  A    between atoms: C_20  and  C_21
REMARK                            x       y       z     vdW  Elec       q    Type
REMARK                         _______ _______ _______ _____ _____    ______ ____
ROOT
ATOM      1  C   UNL     1       1.802   8.218  18.786  0.00  0.00    +0.000 A 
ATOM      2  C   UNL     1       1.999   7.962  20.145  0.00  0.00    +0.000 A 
ATOM      3  C   UNL     1       2.360   6.686  20.564  0.00  0.00    +0.000 A 
ATOM      4  C   UNL     1       2.507   5.673  19.622  0.00  0.00    +0.000 A 
ATOM      5  C   UNL     1       2.170   5.877  18.280  0.00  0.00    +0.000 A 
ATOM      6  C   UNL     1       1.813   7.168  17.864  0.00  0.00    +0.000 A 
ATOM      7  C   UNL     1       2.266   4.757  17.283  0.00  0.00    +0.000 C 
ATOM      8  C   UNL     1       2.693   3.452  17.950  0.00  0.00    +0.000 C 
ATOM      9  C   UNL     1       3.715   3.727  19.061  0.00  0.00    +0.000 C 
ATOM     10  O   UNL     1       3.055   4.504  20.086  0.00  0.00    +0.000 OA
ENDROOT
BRANCH   9  11
ATOM     11  C   UNL     1       5.066   4.314  18.635  0.00  0.00    +0.000 A 
ATOM     12  C   UNL     1       5.825   5.095  19.527  0.00  0.00    +0.000 A 
ATOM     13  C   UNL     1       7.065   5.620  19.153  0.00  0.00    +0.000 A 
ATOM     14  C   UNL     1       7.582   5.358  17.889  0.00  0.00    +0.000 A 
ATOM     15  C   UNL     1       6.859   4.569  16.999  0.00  0.00    +0.000 A 
ATOM     16  C   UNL     1       5.616   4.048  17.370  0.00  0.00    +0.000 A 
ENDBRANCH   9  11
BRANCH   1  17
ATOM     17  O   UNL     1       1.566   9.483  18.302  0.00  0.00    +0.000 OA
BRANCH  17  21
ATOM     18  C   UNL     1      -1.723  10.683  18.010  0.00  0.00    +0.000 A 
ATOM     19  C   UNL     1      -1.480  11.443  19.137  0.00  0.00    +0.000 A 
ATOM     20  S   UNL     1       0.082  11.124  19.753  0.00  0.00    +0.000 S 
ATOM     21  C   UNL     1       0.365  10.056  18.441  0.00  0.00    +0.000 A 
ATOM     22  N   UNL     1      -0.655   9.869  17.623  0.00  0.00    +0.000 NA
BRANCH  18  24
ATOM     23  N   UNL     1      -3.869  11.717  17.721  0.00  0.00    +0.000 N 
ATOM     24  C   UNL     1      -2.999  10.741  17.281  0.00  0.00    +0.000 C 
ATOM     25  O   UNL     1      -3.261   9.975  16.360  0.00  0.00    +0.000 OA
ATOM     26  H   UNL     1      -3.579  12.268  18.521  0.00  0.00    +0.000 HD
BRANCH  23  27
ATOM     27  C   UNL     1      -5.171  11.916  17.114  0.00  0.00    +0.000 C 
BRANCH  27  29
ATOM     28  C   UNL     1      -5.825  12.603  19.464  0.00  0.00    +0.000 C 
ATOM     29  C   UNL     1      -6.110  12.757  17.977  0.00  0.00    +0.000 C 
ENDBRANCH  27  29
ENDBRANCH  23  27
ENDBRANCH  18  24
ENDBRANCH  17  21
ENDBRANCH   1  17
TORSDOF 6
ENDMDL
MODEL 9
REMARK VINA RESULT:      -7.6      4.755      7.781
REMARK  Name = 
REMARK  7 active torsions:
REMARK  status: ('A' for Active; 'I' for Inactive)
REMARK    1  A    between atoms: C_1  and  C_2
REMARK    2  A    between atoms: C_2  and  C_3
REMARK    3  A    between atoms: C_3  and  N_4
REMARK    4  A    between atoms: C_5  and  C_7
REMARK    5  A    between atoms: C_10  and  O_11
REMARK    6  A    between atoms: O_11  and  C_12
REMARK    7  A    between atoms: C_20  and  C_21
REMARK                            x       y       z     vdW  Elec       q    Type
REMARK                         _______ _______ _______ _____ _____    ______ ____
ROOT
ATOM      1  C   UNL     1       1.379   7.457  20.675  0.00  0.00    +0.000 A 
ATOM      2  C   UNL     1       0.926   8.180  21.782  0.00  0.00    +0.000 A 
ATOM      3  C   UNL     1       0.692   9.545  21.668  0.00  0.00    +0.000 A 
ATOM      4  C   UNL     1       0.923  10.180  20.452  0.00  0.00    +0.000 A 
ATOM      5  C   UNL     1       1.514   9.500  19.381  0.00  0.00    +0.000 A 
ATOM      6  C   UNL     1       1.743   8.122  19.502  0.00  0.00    +0.000 A 
ATOM      7  C   UNL     1       1.825  10.213  18.095  0.00  0.00    +0.000 C 
ATOM      8  C   UNL     1       1.475  11.697  18.180  0.00  0.00    +0.000 C 
ATOM      9  C   UNL     1       0.200  11.900  19.009  0.00  0.00    +0.000 C 
ATOM     10  O   UNL     1       0.480  11.476  20.362  0.00  0.00    +0.000 OA
ENDROOT
BRANCH   9  11
ATOM     11  C   UNL     1      -1.098  11.308  18.448  0.00  0.00    +0.000 A 
ATOM     12  C   UNL     1      -1.063  10.272  17.497  0.00  0.00    +0.000 A 
ATOM     13  C   UNL     1      -2.241   9.714  16.992  0.00  0.00    +0.000 A 
ATOM     14  C   UNL     1      -3.477  10.166  17.442  0.00  0.00    +0.000 A 
ATOM     15  C   UNL     1      -3.535  11.174  18.399  0.00  0.00    +0.000 A 
ATOM     16  C   UNL     1      -2.357  11.737  18.901  0.00  0.00    +0.000 A 
ENDBRANCH   9  11
BRANCH   1  17
ATOM     17  O   UNL     1       1.510   6.088  20.694  0.00  0.00    +0.000 OA
BRANCH  17  21
ATOM     18  C   UNL     1       3.996   4.863  18.535  0.00  0.00    +0.000 A 
ATOM     19  C   UNL     1       2.996   4.180  17.872  0.00  0.00    +0.000 A 
ATOM     20  S   UNL     1       1.492   4.407  18.651  0.00  0.00    +0.000 S 
ATOM     21  C   UNL     1       2.250   5.459  19.774  0.00  0.00    +0.000 A 
ATOM     22  N   UNL     1       3.559   5.587  19.647  0.00  0.00    +0.000 NA
BRANCH  18  24
ATOM     23  N   UNL     1       6.245   5.651  18.809  0.00  0.00    +0.000 N 
ATOM     24  C   UNL     1       5.399   4.829  18.095  0.00  0.00    +0.000 C 
ATOM     25  O   UNL     1       5.775   4.124  17.164  0.00  0.00    +0.000 OA
ATOM     26  H   UNL     1       5.828   6.230  19.529  0.00  0.00    +0.000 HD
BRANCH  23  27
ATOM     27  C   UNL     1       7.662   5.739  18.511  0.00  0.00    +0.000 C 
BRANCH  27  29
ATOM     28  C   UNL     1       7.713   8.082  17.545  0.00  0.00    +0.000 C 
ATOM     29  C   UNL     1       8.213   7.158  18.646  0.00  0.00    +0.000 C 
ENDBRANCH  27  29
ENDBRANCH  23  27
ENDBRANCH  18  24
ENDBRANCH  17  21
ENDBRANCH   1  17
TORSDOF 6
ENDMDL
