MODEL 1
REMARK VINA RESULT:      -8.7      0.000      0.000
REMARK  Name = 
REMARK  9 active torsions:
REMARK  status: ('A' for Active; 'I' for Inactive)
REMARK    1  A    between atoms: C_1  and  C_2
REMARK    2  A    between atoms: C_2  and  C_3
REMARK    3  A    between atoms: C_3  and  C_4
REMARK    4  A    between atoms: C_4  and  N_5
REMARK    5  A    between atoms: N_5  and  C_6
REMARK    6  A    between atoms: C_6  and  C_7
REMARK    7  A    between atoms: C_13  and  C_15
REMARK    8  A    between atoms: C_19  and  C_20
REMARK    9  A    between atoms: C_20  and  C_21
REMARK                            x       y       z     vdW  Elec       q    Type
REMARK                         _______ _______ _______ _____ _____    ______ ____
ROOT
ATOM      1  C   UNL     1       2.592   4.305  18.347  0.00  0.00    +0.000 A 
ATOM      2  C   UNL     1       1.682   3.481  19.024  0.00  0.00    +0.000 A 
ATOM      3  C   UNL     1       0.959   3.965  20.113  0.00  0.00    +0.000 A 
ATOM      4  C   UNL     1       1.154   5.274  20.547  0.00  0.00    +0.000 A 
ATOM      5  C   UNL     1       2.040   6.122  19.870  0.00  0.00    +0.000 A 
ATOM      6  C   UNL     1       2.719   5.640  18.740  0.00  0.00    +0.000 A 
ENDROOT
BRANCH   1   8
ATOM      7  N   UNL     1       4.688   4.037  16.954  0.00  0.00    +0.000 N 
ATOM      8  C   UNL     1       3.337   3.718  17.194  0.00  0.00    +0.000 C 
ATOM      9  O   UNL     1       2.687   2.948  16.486  0.00  0.00    +0.000 OA
BRANCH   7  10
ATOM     10  C   UNL     1       5.343   3.517  15.738  0.00  0.00    +0.000 C 
BRANCH  10  11
ATOM     11  C   UNL     1       5.542   4.410  14.503  0.00  0.00    +0.000 C 
BRANCH  11  13
ATOM     12  C   UNL     1       5.178   3.414  12.231  0.00  0.00    +0.000 C 
ATOM     13  C   UNL     1       6.217   3.759  13.294  0.00  0.00    +0.000 C 
ENDBRANCH  11  13
ENDBRANCH  10  11
ENDBRANCH   7  10
BRANCH   7  14
ATOM     14  C   UNL     1       5.608   4.233  18.098  0.00  0.00    +0.000 C 
BRANCH  14  15
ATOM     15  C   UNL     1       6.402   5.525  18.152  0.00  0.00    +0.000 A 
ATOM     16  C   UNL     1       7.540   5.710  18.947  0.00  0.00    +0.000 A 
ATOM     17  C   UNL     1       8.298   6.884  18.841  0.00  0.00    +0.000 A 
ATOM     18  C   UNL     1       7.913   7.897  17.964  0.00  0.00    +0.000 A 
ATOM     19  C   UNL     1       6.751   7.755  17.217  0.00  0.00    +0.000 A 
ATOM     20  C   UNL     1       5.998   6.585  17.316  0.00  0.00    +0.000 A 
ENDBRANCH  14  15
ENDBRANCH   7  14
ENDBRANCH   1   8
BRANCH   5  21
ATOM     21  C   UNL     1       2.347   7.502  20.402  0.00  0.00    +0.000 C 
BRANCH  21  22
ATOM     22  C   UNL     1       1.470   8.611  19.808  0.00  0.00    +0.000 A 
ATOM     23  N   UNL     1       1.495   8.813  18.523  0.00  0.00    +0.000 NA
ATOM     24  N   UNL     1       0.744   9.827  18.023  0.00  0.00    +0.000 N 
ATOM     25  C   UNL     1      -0.009  10.702  18.755  0.00  0.00    +0.000 A 
ATOM     26  O   UNL     1      -0.603  11.644  18.240  0.00  0.00    +0.000 OA
ATOM     27  C   UNL     1      -0.079  10.433  20.212  0.00  0.00    +0.000 A 
ATOM     28  C   UNL     1       0.634   9.427  20.748  0.00  0.00    +0.000 A 
ATOM     29  C   UNL     1       0.604   9.109  22.217  0.00  0.00    +0.000 C 
ATOM     30  C   UNL     1      -0.084  10.187  23.063  0.00  0.00    +0.000 C 
ATOM     31  C   UNL     1      -1.339  10.715  22.377  0.00  0.00    +0.000 C 
ATOM     32  C   UNL     1      -0.998  11.314  21.011  0.00  0.00    +0.000 C 
ATOM     33  H   UNL     1       0.812   9.992  17.025  0.00  0.00    +0.000 HD
ENDBRANCH  21  22
ENDBRANCH   5  21
TORSDOF 8
ENDMDL
MODEL 2
REMARK VINA RESULT:      -8.6      2.358      4.706
REMARK  Name = 
REMARK  9 active torsions:
REMARK  status: ('A' for Active; 'I' for Inactive)
REMARK    1  A    between atoms: C_1  and  C_2
REMARK    2  A    between atoms: C_2  and  C_3
REMARK    3  A    between atoms: C_3  and  C_4
REMARK    4  A    between atoms: C_4  and  N_5
REMARK    5  A    between atoms: N_5  and  C_6
REMARK    6  A    between atoms: C_6  and  C_7
REMARK    7  A    between atoms: C_13  and  C_15
REMARK    8  A    between atoms: C_19  and  C_20
REMARK    9  A    between atoms: C_20  and  C_21
REMARK                            x       y       z     vdW  Elec       q    Type
REMARK                         _______ _______ _______ _____ _____    ______ ____
ROOT
ATOM      1  C   UNL     1       2.572   7.708  18.499  0.00  0.00    +0.000 A 
ATOM      2  C   UNL     1       2.360   7.252  19.808  0.00  0.00    +0.000 A 
ATOM      3  C   UNL     1       1.488   7.925  20.662  0.00  0.00    +0.000 A 
ATOM      4  C   UNL     1       0.834   9.073  20.222  0.00  0.00    +0.000 A 
ATOM      5  C   UNL     1       1.012   9.531  18.910  0.00  0.00    +0.000 A 
ATOM      6  C   UNL     1       1.848   8.812  18.041  0.00  0.00    +0.000 A 
ENDROOT
BRANCH   1   8
ATOM      7  N   UNL     1       3.600   5.538  17.702  0.00  0.00    +0.000 N 
ATOM      8  C   UNL     1       3.524   6.943  17.641  0.00  0.00    +0.000 C 
ATOM      9  O   UNL     1       4.222   7.627  16.892  0.00  0.00    +0.000 OA
BRANCH   7  10
ATOM     10  C   UNL     1       4.636   4.840  16.916  0.00  0.00    +0.000 C 
BRANCH  10  11
ATOM     11  C   UNL     1       6.058   4.655  17.468  0.00  0.00    +0.000 C 
BRANCH  11  13
ATOM     12  C   UNL     1       7.740   5.794  18.937  0.00  0.00    +0.000 C 
ATOM     13  C   UNL     1       6.326   5.227  18.862  0.00  0.00    +0.000 C 
ENDBRANCH  11  13
ENDBRANCH  10  11
ENDBRANCH   7  10
BRANCH   7  14
ATOM     14  C   UNL     1       2.365   4.747  17.910  0.00  0.00    +0.000 C 
BRANCH  14  15
ATOM     15  C   UNL     1       2.285   3.875  19.151  0.00  0.00    +0.000 A 
ATOM     16  C   UNL     1       3.383   3.213  19.713  0.00  0.00    +0.000 A 
ATOM     17  C   UNL     1       3.256   2.540  20.935  0.00  0.00    +0.000 A 
ATOM     18  C   UNL     1       2.028   2.493  21.593  0.00  0.00    +0.000 A 
ATOM     19  C   UNL     1       0.915   3.089  21.015  0.00  0.00    +0.000 A 
ATOM     20  C   UNL     1       1.040   3.766  19.802  0.00  0.00    +0.000 A 
ENDBRANCH  14  15
ENDBRANCH   7  14
ENDBRANCH   1   8
BRANCH   5  21
ATOM     21  C   UNL     1       0.402  10.838  18.459  0.00  0.00    +0.000 C 
BRANCH  21  22
ATOM     22  C   UNL     1      -1.114  10.776  18.233  0.00  0.00    +0.000 A 
ATOM     23  N   UNL     1      -1.581   9.973  17.321  0.00  0.00    +0.000 NA
ATOM     24  N   UNL     1      -2.921   9.966  17.107  0.00  0.00    +0.000 N 
ATOM     25  C   UNL     1      -3.837  10.766  17.732  0.00  0.00    +0.000 A 
ATOM     26  O   UNL     1      -5.027  10.756  17.432  0.00  0.00    +0.000 OA
ATOM     27  C   UNL     1      -3.307  11.637  18.808  0.00  0.00    +0.000 A 
ATOM     28  C   UNL     1      -1.987  11.663  19.067  0.00  0.00    +0.000 A 
ATOM     29  C   UNL     1      -1.392  12.528  20.144  0.00  0.00    +0.000 C 
ATOM     30  C   UNL     1      -2.377  13.555  20.718  0.00  0.00    +0.000 C 
ATOM     31  C   UNL     1      -3.762  12.949  20.912  0.00  0.00    +0.000 C 
ATOM     32  C   UNL     1      -4.318  12.434  19.584  0.00  0.00    +0.000 C 
ATOM     33  H   UNL     1      -3.258   9.364  16.364  0.00  0.00    +0.000 HD
ENDBRANCH  21  22
ENDBRANCH   5  21
TORSDOF 8
ENDMDL
MODEL 3
REMARK VINA RESULT:      -8.6      0.888      1.289
REMARK  Name = 
REMARK  9 active torsions:
REMARK  status: ('A' for Active; 'I' for Inactive)
REMARK    1  A    between atoms: C_1  and  C_2
REMARK    2  A    between atoms: C_2  and  C_3
REMARK    3  A    between atoms: C_3  and  C_4
REMARK    4  A    between atoms: C_4  and  N_5
REMARK    5  A    between atoms: N_5  and  C_6
REMARK    6  A    between atoms: C_6  and  C_7
REMARK    7  A    between atoms: C_13  and  C_15
REMARK    8  A    between atoms: C_19  and  C_20
REMARK    9  A    between atoms: C_20  and  C_21
REMARK                            x       y       z     vdW  Elec       q    Type
REMARK                         _______ _______ _______ _____ _____    ______ ____
ROOT
ATOM      1  C   UNL     1       2.831   3.768  18.529  0.00  0.00    +0.000 A 
ATOM      2  C   UNL     1       1.800   2.837  18.720  0.00  0.00    +0.000 A 
ATOM      3  C   UNL     1       0.764   3.098  19.615  0.00  0.00    +0.000 A 
ATOM      4  C   UNL     1       0.759   4.285  20.343  0.00  0.00    +0.000 A 
ATOM      5  C   UNL     1       1.766   5.240  20.148  0.00  0.00    +0.000 A 
ATOM      6  C   UNL     1       2.772   4.991  19.202  0.00  0.00    +0.000 A 
ENDROOT
BRANCH   1   8
ATOM      7  N   UNL     1       4.434   4.376  16.668  0.00  0.00    +0.000 N 
ATOM      8  C   UNL     1       3.911   3.419  17.560  0.00  0.00    +0.000 C 
ATOM      9  O   UNL     1       4.301   2.252  17.605  0.00  0.00    +0.000 OA
BRANCH   7  10
ATOM     10  C   UNL     1       5.420   3.950  15.656  0.00  0.00    +0.000 C 
BRANCH  10  11
ATOM     11  C   UNL     1       5.244   4.319  14.174  0.00  0.00    +0.000 C 
BRANCH  11  13
ATOM     12  C   UNL     1       5.464   3.138  11.973  0.00  0.00    +0.000 C 
ATOM     13  C   UNL     1       6.217   3.667  13.190  0.00  0.00    +0.000 C 
ENDBRANCH  11  13
ENDBRANCH  10  11
ENDBRANCH   7  10
BRANCH   7  14
ATOM     14  C   UNL     1       4.591   5.780  17.110  0.00  0.00    +0.000 C 
BRANCH  14  15
ATOM     15  C   UNL     1       5.953   6.211  17.625  0.00  0.00    +0.000 A 
ATOM     16  C   UNL     1       6.648   7.331  17.153  0.00  0.00    +0.000 A 
ATOM     17  C   UNL     1       7.836   7.743  17.771  0.00  0.00    +0.000 A 
ATOM     18  C   UNL     1       8.359   7.025  18.846  0.00  0.00    +0.000 A 
ATOM     19  C   UNL     1       7.715   5.875  19.283  0.00  0.00    +0.000 A 
ATOM     20  C   UNL     1       6.529   5.467  18.673  0.00  0.00    +0.000 A 
ENDBRANCH  14  15
ENDBRANCH   7  14
ENDBRANCH   1   8
BRANCH   5  21
ATOM     21  C   UNL     1       1.836   6.476  21.015  0.00  0.00    +0.000 C 
BRANCH  21  22
ATOM     22  C   UNL     1       1.613   7.788  20.253  0.00  0.00    +0.000 A 
ATOM     23  N   UNL     1       2.100   7.909  19.053  0.00  0.00    +0.000 NA
ATOM     24  N   UNL     1       1.928   9.094  18.413  0.00  0.00    +0.000 N 
ATOM     25  C   UNL     1       1.327  10.205  18.933  0.00  0.00    +0.000 A 
ATOM     26  O   UNL     1       1.275  11.268  18.323  0.00  0.00    +0.000 OA
ATOM     27  C   UNL     1       0.724  10.044  20.279  0.00  0.00    +0.000 A 
ATOM     28  C   UNL     1       0.854   8.881  20.942  0.00  0.00    +0.000 A 
ATOM     29  C   UNL     1       0.266   8.661  22.309  0.00  0.00    +0.000 C 
ATOM     30  C   UNL     1      -0.244   9.948  22.970  0.00  0.00    +0.000 C 
ATOM     31  C   UNL     1      -0.971  10.838  21.968  0.00  0.00    +0.000 C 
ATOM     32  C   UNL     1      -0.044  11.221  20.813  0.00  0.00    +0.000 C 
ATOM     33  H   UNL     1       2.353   9.179  17.496  0.00  0.00    +0.000 HD
ENDBRANCH  21  22
ENDBRANCH   5  21
TORSDOF 8
ENDMDL
MODEL 4
REMARK VINA RESULT:      -8.5      1.500      2.100
REMARK  Name = 
REMARK  9 active torsions:
REMARK  status: ('A' for Active; 'I' for Inactive)
REMARK    1  A    between atoms: C_1  and  C_2
REMARK    2  A    between atoms: C_2  and  C_3
REMARK    3  A    between atoms: C_3  and  C_4
REMARK    4  A    between atoms: C_4  and  N_5
REMARK    5  A    between atoms: N_5  and  C_6
REMARK    6  A    between atoms: C_6  and  C_7
REMARK    7  A    between atoms: C_13  and  C_15
REMARK    8  A    between atoms: C_19  and  C_20
REMARK    9  A    between atoms: C_20  and  C_21
REMARK                            x       y       z     vdW  Elec       q    Type
REMARK                         _______ _______ _______ _____ _____    ______ ____
ROOT
ATOM      1  C   UNL     1       2.582   4.787  18.550  0.00  0.00    +0.000 A 
ATOM      2  C   UNL     1       2.086   4.166  19.705  0.00  0.00    +0.000 A 
ATOM      3  C   UNL     1       1.515   4.921  20.728  0.00  0.00    +0.000 A 
ATOM      4  C   UNL     1       1.452   6.308  20.614  0.00  0.00    +0.000 A 
ATOM      5  C   UNL     1       1.920   6.946  19.457  0.00  0.00    +0.000 A 
ATOM      6  C   UNL     1       2.439   6.170  18.410  0.00  0.00    +0.000 A 
ENDROOT
BRANCH   1   8
ATOM      7  N   UNL     1       4.558   3.983  17.189  0.00  0.00    +0.000 N 
ATOM      8  C   UNL     1       3.186   3.917  17.498  0.00  0.00    +0.000 C 
ATOM      9  O   UNL     1       2.401   3.151  16.936  0.00  0.00    +0.000 OA
BRANCH   7  10
ATOM     10  C   UNL     1       5.081   3.183  16.065  0.00  0.00    +0.000 C 
BRANCH  10  11
ATOM     11  C   UNL     1       6.150   3.751  15.118  0.00  0.00    +0.000 C 
BRANCH  11  13
ATOM     12  C   UNL     1       6.259   3.537  12.622  0.00  0.00    +0.000 C 
ATOM     13  C   UNL     1       5.649   4.313  13.786  0.00  0.00    +0.000 C 
ENDBRANCH  11  13
ENDBRANCH  10  11
ENDBRANCH   7  10
BRANCH   7  14
ATOM     14  C   UNL     1       5.541   4.217  18.272  0.00  0.00    +0.000 C 
BRANCH  14  15
ATOM     15  C   UNL     1       6.337   5.510  18.237  0.00  0.00    +0.000 A 
ATOM     16  C   UNL     1       7.503   5.730  18.980  0.00  0.00    +0.000 A 
ATOM     17  C   UNL     1       8.256   6.896  18.791  0.00  0.00    +0.000 A 
ATOM     18  C   UNL     1       7.839   7.868  17.882  0.00  0.00    +0.000 A 
ATOM     19  C   UNL     1       6.651   7.693  17.185  0.00  0.00    +0.000 A 
ATOM     20  C   UNL     1       5.902   6.530  17.367  0.00  0.00    +0.000 A 
ENDBRANCH  14  15
ENDBRANCH   7  14
ENDBRANCH   1   8
BRANCH   5  21
ATOM     21  C   UNL     1       1.965   8.454  19.372  0.00  0.00    +0.000 C 
BRANCH  21  22
ATOM     22  C   UNL     1       1.175   9.168  20.475  0.00  0.00    +0.000 A 
ATOM     23  N   UNL     1       1.431   8.882  21.718  0.00  0.00    +0.000 NA
ATOM     24  N   UNL     1       0.690   9.493  22.677  0.00  0.00    +0.000 N 
ATOM     25  C   UNL     1      -0.347  10.356  22.460  0.00  0.00    +0.000 A 
ATOM     26  O   UNL     1      -1.022  10.812  23.377  0.00  0.00    +0.000 OA
ATOM     27  C   UNL     1      -0.598  10.722  21.045  0.00  0.00    +0.000 A 
ATOM     28  C   UNL     1       0.124  10.154  20.062  0.00  0.00    +0.000 A 
ATOM     29  C   UNL     1      -0.087  10.484  18.611  0.00  0.00    +0.000 C 
ATOM     30  C   UNL     1      -1.358  11.301  18.347  0.00  0.00    +0.000 C 
ATOM     31  C   UNL     1      -1.554  12.381  19.406  0.00  0.00    +0.000 C 
ATOM     32  C   UNL     1      -1.657  11.760  20.799  0.00  0.00    +0.000 C 
ATOM     33  H   UNL     1       0.879   9.223  23.636  0.00  0.00    +0.000 HD
ENDBRANCH  21  22
ENDBRANCH   5  21
TORSDOF 8
ENDMDL
MODEL 5
REMARK VINA RESULT:      -8.5      2.261      4.063
REMARK  Name = 
REMARK  9 active torsions:
REMARK  status: ('A' for Active; 'I' for Inactive)
REMARK    1  A    between atoms: C_1  and  C_2
REMARK    2  A    between atoms: C_2  and  C_3
REMARK    3  A    between atoms: C_3  and  C_4
REMARK    4  A    between atoms: C_4  and  N_5
REMARK    5  A    between atoms: N_5  and  C_6
REMARK    6  A    between atoms: C_6  and  C_7
REMARK    7  A    between atoms: C_13  and  C_15
REMARK    8  A    between atoms: C_19  and  C_20
REMARK    9  A    between atoms: C_20  and  C_21
REMARK                            x       y       z     vdW  Elec       q    Type
REMARK                         _______ _______ _______ _____ _____    ______ ____
ROOT
ATOM      1  C   UNL     1       3.229   7.206  18.357  0.00  0.00    +0.000 A 
ATOM      2  C   UNL     1       2.841   6.744  19.622  0.00  0.00    +0.000 A 
ATOM      3  C   UNL     1       1.856   7.409  20.350  0.00  0.00    +0.000 A 
ATOM      4  C   UNL     1       1.264   8.556  19.827  0.00  0.00    +0.000 A 
ATOM      5  C   UNL     1       1.619   9.020  18.555  0.00  0.00    +0.000 A 
ATOM      6  C   UNL     1       2.570   8.309  17.807  0.00  0.00    +0.000 A 
ENDROOT
BRANCH   1   8
ATOM      7  N   UNL     1       4.316   5.040  17.629  0.00  0.00    +0.000 N 
ATOM      8  C   UNL     1       4.294   6.448  17.636  0.00  0.00    +0.000 C 
ATOM      9  O   UNL     1       5.134   7.141  17.061  0.00  0.00    +0.000 OA
BRANCH   7  10
ATOM     10  C   UNL     1       5.453   4.342  16.997  0.00  0.00    +0.000 C 
BRANCH  10  11
ATOM     11  C   UNL     1       5.358   3.817  15.556  0.00  0.00    +0.000 C 
BRANCH  11  13
ATOM     12  C   UNL     1       6.186   3.734  13.191  0.00  0.00    +0.000 C 
ATOM     13  C   UNL     1       6.459   4.268  14.594  0.00  0.00    +0.000 C 
ENDBRANCH  11  13
ENDBRANCH  10  11
ENDBRANCH   7  10
BRANCH   7  14
ATOM     14  C   UNL     1       3.041   4.289  17.572  0.00  0.00    +0.000 C 
BRANCH  14  15
ATOM     15  C   UNL     1       2.534   3.658  18.857  0.00  0.00    +0.000 A 
ATOM     16  C   UNL     1       3.369   3.139  19.854  0.00  0.00    +0.000 A 
ATOM     17  C   UNL     1       2.832   2.698  21.071  0.00  0.00    +0.000 A 
ATOM     18  C   UNL     1       1.456   2.740  21.294  0.00  0.00    +0.000 A 
ATOM     19  C   UNL     1       0.611   3.192  20.289  0.00  0.00    +0.000 A 
ATOM     20  C   UNL     1       1.143   3.638  19.080  0.00  0.00    +0.000 A 
ENDBRANCH  14  15
ENDBRANCH   7  14
ENDBRANCH   1   8
BRANCH   5  21
ATOM     21  C   UNL     1       1.071  10.326  18.028  0.00  0.00    +0.000 C 
BRANCH  21  22
ATOM     22  C   UNL     1      -0.458  10.432  18.086  0.00  0.00    +0.000 A 
ATOM     23  N   UNL     1      -1.171   9.664  17.314  0.00  0.00    +0.000 NA
ATOM     24  N   UNL     1      -2.521   9.804  17.350  0.00  0.00    +0.000 N 
ATOM     25  C   UNL     1      -3.212  10.720  18.092  0.00  0.00    +0.000 A 
ATOM     26  O   UNL     1      -4.431  10.839  18.016  0.00  0.00    +0.000 OA
ATOM     27  C   UNL     1      -2.399  11.553  19.011  0.00  0.00    +0.000 A 
ATOM     28  C   UNL     1      -1.059  11.435  19.022  0.00  0.00    +0.000 A 
ATOM     29  C   UNL     1      -0.184  12.255  19.930  0.00  0.00    +0.000 C 
ATOM     30  C   UNL     1      -0.928  13.403  20.625  0.00  0.00    +0.000 C 
ATOM     31  C   UNL     1      -2.309  12.965  21.097  0.00  0.00    +0.000 C 
ATOM     32  C   UNL     1      -3.156  12.481  19.919  0.00  0.00    +0.000 C 
ATOM     33  H   UNL     1      -3.053   9.225  16.710  0.00  0.00    +0.000 HD
ENDBRANCH  21  22
ENDBRANCH   5  21
TORSDOF 8
ENDMDL
MODEL 6
REMARK VINA RESULT:      -8.5      2.305      4.143
REMARK  Name = 
REMARK  9 active torsions:
REMARK  status: ('A' for Active; 'I' for Inactive)
REMARK    1  A    between atoms: C_1  and  C_2
REMARK    2  A    between atoms: C_2  and  C_3
REMARK    3  A    between atoms: C_3  and  C_4
REMARK    4  A    between atoms: C_4  and  N_5
REMARK    5  A    between atoms: N_5  and  C_6
REMARK    6  A    between atoms: C_6  and  C_7
REMARK    7  A    between atoms: C_13  and  C_15
REMARK    8  A    between atoms: C_19  and  C_20
REMARK    9  A    between atoms: C_20  and  C_21
REMARK                            x       y       z     vdW  Elec       q    Type
REMARK                         _______ _______ _______ _____ _____    ______ ____
ROOT
ATOM      1  C   UNL     1       4.175   6.597  17.950  0.00  0.00    +0.000 A 
ATOM      2  C   UNL     1       3.980   5.961  19.185  0.00  0.00    +0.000 A 
ATOM      3  C   UNL     1       2.929   6.337  20.019  0.00  0.00    +0.000 A 
ATOM      4  C   UNL     1       2.073   7.367  19.636  0.00  0.00    +0.000 A 
ATOM      5  C   UNL     1       2.236   7.999  18.396  0.00  0.00    +0.000 A 
ATOM      6  C   UNL     1       3.262   7.572  17.539  0.00  0.00    +0.000 A 
ENDROOT
BRANCH   1   8
ATOM      7  N   UNL     1       5.394   4.835  16.604  0.00  0.00    +0.000 N 
ATOM      8  C   UNL     1       5.324   6.147  17.111  0.00  0.00    +0.000 C 
ATOM      9  O   UNL     1       6.187   7.001  16.901  0.00  0.00    +0.000 OA
BRANCH   7  10
ATOM     10  C   UNL     1       6.606   4.411  15.876  0.00  0.00    +0.000 C 
BRANCH  10  11
ATOM     11  C   UNL     1       6.786   4.734  14.384  0.00  0.00    +0.000 C 
BRANCH  11  13
ATOM     12  C   UNL     1       6.893   3.775  12.069  0.00  0.00    +0.000 C 
ATOM     13  C   UNL     1       6.136   3.765  13.394  0.00  0.00    +0.000 C 
ENDBRANCH  11  13
ENDBRANCH  10  11
ENDBRANCH   7  10
BRANCH   7  14
ATOM     14  C   UNL     1       4.156   4.153  16.164  0.00  0.00    +0.000 C 
BRANCH  14  15
ATOM     15  C   UNL     1       3.298   3.490  17.228  0.00  0.00    +0.000 A 
ATOM     16  C   UNL     1       1.961   3.823  17.472  0.00  0.00    +0.000 A 
ATOM     17  C   UNL     1       1.196   3.073  18.376  0.00  0.00    +0.000 A 
ATOM     18  C   UNL     1       1.765   2.005  19.067  0.00  0.00    +0.000 A 
ATOM     19  C   UNL     1       3.108   1.704  18.883  0.00  0.00    +0.000 A 
ATOM     20  C   UNL     1       3.870   2.444  17.979  0.00  0.00    +0.000 A 
ENDBRANCH  14  15
ENDBRANCH   7  14
ENDBRANCH   1   8
BRANCH   5  21
ATOM     21  C   UNL     1       1.389   9.193  18.021  0.00  0.00    +0.000 C 
BRANCH  21  22
ATOM     22  C   UNL     1       1.017  10.093  19.206  0.00  0.00    +0.000 A 
ATOM     23  N   UNL     1       0.258   9.612  20.146  0.00  0.00    +0.000 NA
ATOM     24  N   UNL     1      -0.095  10.439  21.164  0.00  0.00    +0.000 N 
ATOM     25  C   UNL     1       0.235  11.761  21.273  0.00  0.00    +0.000 A 
ATOM     26  O   UNL     1      -0.184  12.467  22.185  0.00  0.00    +0.000 OA
ATOM     27  C   UNL     1       1.146  12.288  20.228  0.00  0.00    +0.000 A 
ATOM     28  C   UNL     1       1.536  11.499  19.211  0.00  0.00    +0.000 A 
ATOM     29  C   UNL     1       2.456  11.980  18.123  0.00  0.00    +0.000 C 
ATOM     30  C   UNL     1       2.679  13.497  18.136  0.00  0.00    +0.000 C 
ATOM     31  C   UNL     1       2.848  14.022  19.558  0.00  0.00    +0.000 C 
ATOM     32  C   UNL     1       1.612  13.707  20.401  0.00  0.00    +0.000 C 
ATOM     33  H   UNL     1      -0.721  10.055  21.863  0.00  0.00    +0.000 HD
ENDBRANCH  21  22
ENDBRANCH   5  21
TORSDOF 8
ENDMDL
MODEL 7
REMARK VINA RESULT:      -8.5      1.208      1.790
REMARK  Name = 
REMARK  9 active torsions:
REMARK  status: ('A' for Active; 'I' for Inactive)
REMARK    1  A    between atoms: C_1  and  C_2
REMARK    2  A    between atoms: C_2  and  C_3
REMARK    3  A    between atoms: C_3  and  C_4
REMARK    4  A    between atoms: C_4  and  N_5
REMARK    5  A    between atoms: N_5  and  C_6
REMARK    6  A    between atoms: C_6  and  C_7
REMARK    7  A    between atoms: C_13  and  C_15
REMARK    8  A    between atoms: C_19  and  C_20
REMARK    9  A    between atoms: C_20  and  C_21
REMARK                            x       y       z     vdW  Elec       q    Type
REMARK                         _______ _______ _______ _____ _____    ______ ____
ROOT
ATOM      1  C   UNL     1       2.533   5.578  18.539  0.00  0.00    +0.000 A 
ATOM      2  C   UNL     1       2.194   5.106  19.815  0.00  0.00    +0.000 A 
ATOM      3  C   UNL     1       1.727   5.981  20.795  0.00  0.00    +0.000 A 
ATOM      4  C   UNL     1       1.614   7.341  20.513  0.00  0.00    +0.000 A 
ATOM      5  C   UNL     1       1.924   7.828  19.237  0.00  0.00    +0.000 A 
ATOM      6  C   UNL     1       2.337   6.929  18.242  0.00  0.00    +0.000 A 
ENDROOT
BRANCH   1   8
ATOM      7  N   UNL     1       4.396   4.509  17.202  0.00  0.00    +0.000 N 
ATOM      8  C   UNL     1       3.032   4.585  17.542  0.00  0.00    +0.000 C 
ATOM      9  O   UNL     1       2.170   3.854  17.052  0.00  0.00    +0.000 OA
BRANCH   7  10
ATOM     10  C   UNL     1       4.819   3.588  16.129  0.00  0.00    +0.000 C 
BRANCH  10  11
ATOM     11  C   UNL     1       6.233   3.664  15.532  0.00  0.00    +0.000 C 
BRANCH  11  13
ATOM     12  C   UNL     1       6.010   3.647  13.035  0.00  0.00    +0.000 C 
ATOM     13  C   UNL     1       6.388   4.487  14.252  0.00  0.00    +0.000 C 
ENDBRANCH  11  13
ENDBRANCH  10  11
ENDBRANCH   7  10
BRANCH   7  14
ATOM     14  C   UNL     1       5.424   4.732  18.245  0.00  0.00    +0.000 C 
BRANCH  14  15
ATOM     15  C   UNL     1       6.367   5.908  18.069  0.00  0.00    +0.000 A 
ATOM     16  C   UNL     1       6.128   6.978  17.198  0.00  0.00    +0.000 A 
ATOM     17  C   UNL     1       6.977   8.092  17.191  0.00  0.00    +0.000 A 
ATOM     18  C   UNL     1       8.089   8.139  18.030  0.00  0.00    +0.000 A 
ATOM     19  C   UNL     1       8.376   7.057  18.853  0.00  0.00    +0.000 A 
ATOM     20  C   UNL     1       7.528   5.949  18.866  0.00  0.00    +0.000 A 
ENDBRANCH  14  15
ENDBRANCH   7  14
ENDBRANCH   1   8
BRANCH   5  21
ATOM     21  C   UNL     1       1.918   9.313  18.955  0.00  0.00    +0.000 C 
BRANCH  21  22
ATOM     22  C   UNL     1       0.528   9.887  18.652  0.00  0.00    +0.000 A 
ATOM     23  N   UNL     1      -0.038   9.596  17.517  0.00  0.00    +0.000 NA
ATOM     24  N   UNL     1      -1.249  10.150  17.251  0.00  0.00    +0.000 N 
ATOM     25  C   UNL     1      -1.919  11.034  18.050  0.00  0.00    +0.000 A 
ATOM     26  O   UNL     1      -2.977  11.552  17.708  0.00  0.00    +0.000 OA
ATOM     27  C   UNL     1      -1.296  11.317  19.365  0.00  0.00    +0.000 A 
ATOM     28  C   UNL     1      -0.105  10.776  19.679  0.00  0.00    +0.000 A 
ATOM     29  C   UNL     1       0.575  11.029  20.996  0.00  0.00    +0.000 C 
ATOM     30  C   UNL     1      -0.073  12.154  21.813  0.00  0.00    +0.000 C 
ATOM     31  C   UNL     1      -1.594  12.083  21.748  0.00  0.00    +0.000 C 
ATOM     32  C   UNL     1      -2.079  12.193  20.302  0.00  0.00    +0.000 C 
ATOM     33  H   UNL     1      -1.651   9.943  16.344  0.00  0.00    +0.000 HD
ENDBRANCH  21  22
ENDBRANCH   5  21
TORSDOF 8
ENDMDL
MODEL 8
REMARK VINA RESULT:      -8.4      2.129      3.818
REMARK  Name = 
REMARK  9 active torsions:
REMARK  status: ('A' for Active; 'I' for Inactive)
REMARK    1  A    between atoms: C_1  and  C_2
REMARK    2  A    between atoms: C_2  and  C_3
REMARK    3  A    between atoms: C_3  and  C_4
REMARK    4  A    between atoms: C_4  and  N_5
REMARK    5  A    between atoms: N_5  and  C_6
REMARK    6  A    between atoms: C_6  and  C_7
REMARK    7  A    between atoms: C_13  and  C_15
REMARK    8  A    between atoms: C_19  and  C_20
REMARK    9  A    between atoms: C_20  and  C_21
REMARK                            x       y       z     vdW  Elec       q    Type
REMARK                         _______ _______ _______ _____ _____    ______ ____
ROOT
ATOM      1  C   UNL     1       4.015   6.757  17.965  0.00  0.00    +0.000 A 
ATOM      2  C   UNL     1       3.891   6.231  19.259  0.00  0.00    +0.000 A 
ATOM      3  C   UNL     1       2.839   6.620  20.086  0.00  0.00    +0.000 A 
ATOM      4  C   UNL     1       1.911   7.556  19.634  0.00  0.00    +0.000 A 
ATOM      5  C   UNL     1       2.003   8.075  18.336  0.00  0.00    +0.000 A 
ATOM      6  C   UNL     1       3.033   7.631  17.493  0.00  0.00    +0.000 A 
ENDROOT
BRANCH   1   8
ATOM      7  N   UNL     1       5.264   4.973  16.676  0.00  0.00    +0.000 N 
ATOM      8  C   UNL     1       5.171   6.300  17.138  0.00  0.00    +0.000 C 
ATOM      9  O   UNL     1       6.017   7.162  16.896  0.00  0.00    +0.000 OA
BRANCH   7  10
ATOM     10  C   UNL     1       6.480   4.546  15.958  0.00  0.00    +0.000 C 
BRANCH  10  11
ATOM     11  C   UNL     1       6.391   3.648  14.714  0.00  0.00    +0.000 C 
BRANCH  11  13
ATOM     12  C   UNL     1       6.300   3.342  12.227  0.00  0.00    +0.000 C 
ATOM     13  C   UNL     1       6.383   4.361  13.360  0.00  0.00    +0.000 C 
ENDBRANCH  11  13
ENDBRANCH  10  11
ENDBRANCH   7  10
BRANCH   7  14
ATOM     14  C   UNL     1       4.036   4.254  16.264  0.00  0.00    +0.000 C 
BRANCH  14  15
ATOM     15  C   UNL     1       3.219   3.572  17.348  0.00  0.00    +0.000 A 
ATOM     16  C   UNL     1       1.857   3.810  17.565  0.00  0.00    +0.000 A 
ATOM     17  C   UNL     1       1.141   3.043  18.493  0.00  0.00    +0.000 A 
ATOM     18  C   UNL     1       1.782   2.052  19.236  0.00  0.00    +0.000 A 
ATOM     19  C   UNL     1       3.147   1.849  19.078  0.00  0.00    +0.000 A 
ATOM     20  C   UNL     1       3.861   2.607  18.150  0.00  0.00    +0.000 A 
ENDBRANCH  14  15
ENDBRANCH   7  14
ENDBRANCH   1   8
BRANCH   5  21
ATOM     21  C   UNL     1       1.074   9.174  17.876  0.00  0.00    +0.000 C 
BRANCH  21  22
ATOM     22  C   UNL     1       1.545  10.587  18.244  0.00  0.00    +0.000 A 
ATOM     23  N   UNL     1       2.393  11.190  17.462  0.00  0.00    +0.000 NA
ATOM     24  N   UNL     1       2.831  12.421  17.828  0.00  0.00    +0.000 N 
ATOM     25  C   UNL     1       2.500  13.079  18.980  0.00  0.00    +0.000 A 
ATOM     26  O   UNL     1       2.994  14.161  19.281  0.00  0.00    +0.000 OA
ATOM     27  C   UNL     1       1.491  12.413  19.838  0.00  0.00    +0.000 A 
ATOM     28  C   UNL     1       1.016  11.200  19.505  0.00  0.00    +0.000 A 
ATOM     29  C   UNL     1      -0.005  10.475  20.338  0.00  0.00    +0.000 C 
ATOM     30  C   UNL     1      -0.241  11.115  21.711  0.00  0.00    +0.000 C 
ATOM     31  C   UNL     1      -0.283  12.636  21.616  0.00  0.00    +0.000 C 
ATOM     32  C   UNL     1       1.029  13.179  21.046  0.00  0.00    +0.000 C 
ATOM     33  H   UNL     1       3.522  12.854  17.226  0.00  0.00    +0.000 HD
ENDBRANCH  21  22
ENDBRANCH   5  21
TORSDOF 8
ENDMDL
MODEL 9
REMARK VINA RESULT:      -8.4      2.148      4.181
REMARK  Name = 
REMARK  9 active torsions:
REMARK  status: ('A' for Active; 'I' for Inactive)
REMARK    1  A    between atoms: C_1  and  C_2
REMARK    2  A    between atoms: C_2  and  C_3
REMARK    3  A    between atoms: C_3  and  C_4
REMARK    4  A    between atoms: C_4  and  N_5
REMARK    5  A    between atoms: N_5  and  C_6
REMARK    6  A    between atoms: C_6  and  C_7
REMARK    7  A    between atoms: C_13  and  C_15
REMARK    8  A    between atoms: C_19  and  C_20
REMARK    9  A    between atoms: C_20  and  C_21
REMARK                            x       y       z     vdW  Elec       q    Type
REMARK                         _______ _______ _______ _____ _____    ______ ____
ROOT
ATOM      1  C   UNL     1       3.739   6.956  18.142  0.00  0.00    +0.000 A 
ATOM      2  C   UNL     1       3.369   6.472  19.405  0.00  0.00    +0.000 A 
ATOM      3  C   UNL     1       2.261   6.994  20.069  0.00  0.00    +0.000 A 
ATOM      4  C   UNL     1       1.521   8.020  19.485  0.00  0.00    +0.000 A 
ATOM      5  C   UNL     1       1.859   8.500  18.213  0.00  0.00    +0.000 A 
ATOM      6  C   UNL     1       2.942   7.927  17.529  0.00  0.00    +0.000 A 
ENDROOT
BRANCH   1   8
ATOM      7  N   UNL     1       5.006   4.980  17.198  0.00  0.00    +0.000 N 
ATOM      8  C   UNL     1       4.941   6.356  17.492  0.00  0.00    +0.000 C 
ATOM      9  O   UNL     1       5.850   7.147  17.238  0.00  0.00    +0.000 OA
BRANCH   7  10
ATOM     10  C   UNL     1       6.261   4.420  16.659  0.00  0.00    +0.000 C 
BRANCH  10  11
ATOM     11  C   UNL     1       6.268   3.608  15.354  0.00  0.00    +0.000 C 
BRANCH  11  13
ATOM     12  C   UNL     1       5.869   3.640  12.878  0.00  0.00    +0.000 C 
ATOM     13  C   UNL     1       6.462   4.402  14.060  0.00  0.00    +0.000 C 
ENDBRANCH  11  13
ENDBRANCH  10  11
ENDBRANCH   7  10
BRANCH   7  14
ATOM     14  C   UNL     1       3.786   4.268  16.752  0.00  0.00    +0.000 C 
BRANCH  14  15
ATOM     15  C   UNL     1       2.909   3.634  17.816  0.00  0.00    +0.000 A 
ATOM     16  C   UNL     1       1.513   3.740  17.843  0.00  0.00    +0.000 A 
ATOM     17  C   UNL     1       0.763   3.014  18.778  0.00  0.00    +0.000 A 
ATOM     18  C   UNL     1       1.398   2.201  19.715  0.00  0.00    +0.000 A 
ATOM     19  C   UNL     1       2.785   2.137  19.742  0.00  0.00    +0.000 A 
ATOM     20  C   UNL     1       3.534   2.853  18.808  0.00  0.00    +0.000 A 
ENDBRANCH  14  15
ENDBRANCH   7  14
ENDBRANCH   1   8
BRANCH   5  21
ATOM     21  C   UNL     1       1.138   9.690  17.621  0.00  0.00    +0.000 C 
BRANCH  21  22
ATOM     22  C   UNL     1       0.450  10.585  18.658  0.00  0.00    +0.000 A 
ATOM     23  N   UNL     1       1.170  11.129  19.596  0.00  0.00    +0.000 NA
ATOM     24  N   UNL     1       0.534  11.883  20.529  0.00  0.00    +0.000 N 
ATOM     25  C   UNL     1      -0.815  12.088  20.609  0.00  0.00    +0.000 A 
ATOM     26  O   UNL     1      -1.327  12.721  21.527  0.00  0.00    +0.000 OA
ATOM     27  C   UNL     1      -1.624  11.513  19.507  0.00  0.00    +0.000 A 
ATOM     28  C   UNL     1      -1.033  10.774  18.551  0.00  0.00    +0.000 A 
ATOM     29  C   UNL     1      -1.802  10.164  17.412  0.00  0.00    +0.000 C 
ATOM     30  C   UNL     1      -3.323  10.233  17.594  0.00  0.00    +0.000 C 
ATOM     31  C   UNL     1      -3.755  11.580  18.163  0.00  0.00    +0.000 C 
ATOM     32  C   UNL     1      -3.093  11.831  19.518  0.00  0.00    +0.000 C 
ATOM     33  H   UNL     1       1.109  12.262  21.273  0.00  0.00    +0.000 HD
ENDBRANCH  21  22
ENDBRANCH   5  21
TORSDOF 8
ENDMDL
