MODEL 1
REMARK VINA RESULT:      -5.6      0.000      0.000
REMARK  Name = 
REMARK  7 active torsions:
REMARK  status: ('A' for Active; 'I' for Inactive)
REMARK    1  A    between atoms: S_2  and  O_3
REMARK    2  A    between atoms: S_2  and  C_4
REMARK    3  A    between atoms: C_4  and  C_5
REMARK    4  A    between atoms: C_5  and  C_6
REMARK    5  A    between atoms: C_6  and  S_7
REMARK    6  A    between atoms: S_7  and  S_8
REMARK    7  A    between atoms: S_8  and  C_9
REMARK                            x       y       z     vdW  Elec       q    Type
REMARK                         _______ _______ _______ _____ _____    ______ ____
ROOT
ATOM      1  S   UNL     1       4.607   4.073  16.834  0.00  0.00    +0.000 S 
ENDROOT
BRANCH   1   2
ATOM      2  C   UNL     1       5.564   5.106  15.670  0.00  0.00    +0.000 C 
BRANCH   2   3
ATOM      3  C   UNL     1       6.967   5.412  16.184  0.00  0.00    +0.000 C 
BRANCH   3   4
ATOM      4  C   UNL     1       6.926   6.384  17.355  0.00  0.00    +0.000 C 
BRANCH   4   6
ATOM      5  O   UNL     1       6.682   5.363  19.836  0.00  0.00    +0.000 OA
ATOM      6  S   UNL     1       7.740   5.656  18.821  0.00  0.00    +0.000 S 
BRANCH   6   7
ATOM      7  O   UNL     1       8.019   4.247  18.107  0.00  0.00    +0.000 OA
ATOM      8  H   UNL     1       7.456   3.582  18.571  0.00  0.00    +0.000 HD
ENDBRANCH   6   7
ENDBRANCH   4   6
ENDBRANCH   3   4
ENDBRANCH   2   3
ENDBRANCH   1   2
BRANCH   1   9
ATOM      9  S   UNL     1       3.373   5.442  17.755  0.00  0.00    +0.000 S 
BRANCH   9  10
ATOM     10  C   UNL     1       2.529   4.453  18.973  0.00  0.00    +0.000 A 
ATOM     11  C   UNL     1       2.865   4.564  20.326  0.00  0.00    +0.000 A 
ATOM     12  C   UNL     1       2.165   3.829  21.289  0.00  0.00    +0.000 A 
ATOM     13  C   UNL     1       1.125   2.984  20.903  0.00  0.00    +0.000 A 
ATOM     14  C   UNL     1       0.783   2.872  19.556  0.00  0.00    +0.000 A 
ATOM     15  C   UNL     1       1.481   3.606  18.595  0.00  0.00    +0.000 A 
ENDBRANCH   9  10
ENDBRANCH   1   9
TORSDOF 7
ENDMDL
MODEL 2
REMARK VINA RESULT:      -5.4      0.807      1.179
REMARK  Name = 
REMARK  7 active torsions:
REMARK  status: ('A' for Active; 'I' for Inactive)
REMARK    1  A    between atoms: S_2  and  O_3
REMARK    2  A    between atoms: S_2  and  C_4
REMARK    3  A    between atoms: C_4  and  C_5
REMARK    4  A    between atoms: C_5  and  C_6
REMARK    5  A    between atoms: C_6  and  S_7
REMARK    6  A    between atoms: S_7  and  S_8
REMARK    7  A    between atoms: S_8  and  C_9
REMARK                            x       y       z     vdW  Elec       q    Type
REMARK                         _______ _______ _______ _____ _____    ______ ____
ROOT
ATOM      1  S   UNL     1       4.416   4.081  16.821  0.00  0.00    +0.000 S 
ENDROOT
BRANCH   1   2
ATOM      2  C   UNL     1       5.384   5.253  15.807  0.00  0.00    +0.000 C 
BRANCH   2   3
ATOM      3  C   UNL     1       6.861   5.267  16.187  0.00  0.00    +0.000 C 
BRANCH   3   4
ATOM      4  C   UNL     1       7.150   6.331  17.238  0.00  0.00    +0.000 C 
BRANCH   4   6
ATOM      5  O   UNL     1       6.611   5.325  19.678  0.00  0.00    +0.000 OA
ATOM      6  S   UNL     1       7.777   5.561  18.773  0.00  0.00    +0.000 S 
BRANCH   6   7
ATOM      7  O   UNL     1       8.050   4.139  18.082  0.00  0.00    +0.000 OA
ATOM      8  H   UNL     1       8.939   4.200  17.657  0.00  0.00    +0.000 HD
ENDBRANCH   6   7
ENDBRANCH   4   6
ENDBRANCH   3   4
ENDBRANCH   2   3
ENDBRANCH   1   2
BRANCH   1   9
ATOM      9  S   UNL     1       3.195   5.324  17.919  0.00  0.00    +0.000 S 
BRANCH   9  10
ATOM     10  C   UNL     1       2.724   4.298  19.296  0.00  0.00    +0.000 A 
ATOM     11  C   UNL     1       1.430   4.373  19.821  0.00  0.00    +0.000 A 
ATOM     12  C   UNL     1       1.043   3.528  20.867  0.00  0.00    +0.000 A 
ATOM     13  C   UNL     1       1.947   2.603  21.388  0.00  0.00    +0.000 A 
ATOM     14  C   UNL     1       3.237   2.520  20.866  0.00  0.00    +0.000 A 
ATOM     15  C   UNL     1       3.623   3.363  19.823  0.00  0.00    +0.000 A 
ENDBRANCH   9  10
ENDBRANCH   1   9
TORSDOF 7
ENDMDL
MODEL 3
REMARK VINA RESULT:      -5.3      2.303      2.928
REMARK  Name = 
REMARK  7 active torsions:
REMARK  status: ('A' for Active; 'I' for Inactive)
REMARK    1  A    between atoms: S_2  and  O_3
REMARK    2  A    between atoms: S_2  and  C_4
REMARK    3  A    between atoms: C_4  and  C_5
REMARK    4  A    between atoms: C_5  and  C_6
REMARK    5  A    between atoms: C_6  and  S_7
REMARK    6  A    between atoms: S_7  and  S_8
REMARK    7  A    between atoms: S_8  and  C_9
REMARK                            x       y       z     vdW  Elec       q    Type
REMARK                         _______ _______ _______ _____ _____    ______ ____
ROOT
ATOM      1  S   UNL     1       4.237   6.116  17.468  0.00  0.00    +0.000 S 
ENDROOT
BRANCH   1   2
ATOM      2  C   UNL     1       5.825   5.715  18.277  0.00  0.00    +0.000 C 
BRANCH   2   3
ATOM      3  C   UNL     1       6.855   5.169  17.294  0.00  0.00    +0.000 C 
BRANCH   3   4
ATOM      4  C   UNL     1       6.217   4.199  16.308  0.00  0.00    +0.000 C 
BRANCH   4   6
ATOM      5  O   UNL     1       7.748   5.346  14.412  0.00  0.00    +0.000 OA
ATOM      6  S   UNL     1       6.355   4.838  14.600  0.00  0.00    +0.000 S 
BRANCH   6   7
ATOM      7  O   UNL     1       6.360   3.378  13.934  0.00  0.00    +0.000 OA
ATOM      8  H   UNL     1       5.688   3.399  13.211  0.00  0.00    +0.000 HD
ENDBRANCH   6   7
ENDBRANCH   4   6
ENDBRANCH   3   4
ENDBRANCH   2   3
ENDBRANCH   1   2
BRANCH   1   9
ATOM      9  S   UNL     1       2.993   6.499  19.066  0.00  0.00    +0.000 S 
BRANCH   9  10
ATOM     10  C   UNL     1       2.110   4.964  19.254  0.00  0.00    +0.000 A 
ATOM     11  C   UNL     1       1.838   4.166  18.138  0.00  0.00    +0.000 A 
ATOM     12  C   UNL     1       1.194   2.934  18.292  0.00  0.00    +0.000 A 
ATOM     13  C   UNL     1       0.823   2.494  19.563  0.00  0.00    +0.000 A 
ATOM     14  C   UNL     1       1.095   3.283  20.679  0.00  0.00    +0.000 A 
ATOM     15  C   UNL     1       1.739   4.512  20.526  0.00  0.00    +0.000 A 
ENDBRANCH   9  10
ENDBRANCH   1   9
TORSDOF 7
ENDMDL
MODEL 4
REMARK VINA RESULT:      -5.2      1.829      2.412
REMARK  Name = 
REMARK  7 active torsions:
REMARK  status: ('A' for Active; 'I' for Inactive)
REMARK    1  A    between atoms: S_2  and  O_3
REMARK    2  A    between atoms: S_2  and  C_4
REMARK    3  A    between atoms: C_4  and  C_5
REMARK    4  A    between atoms: C_5  and  C_6
REMARK    5  A    between atoms: C_6  and  S_7
REMARK    6  A    between atoms: S_7  and  S_8
REMARK    7  A    between atoms: S_8  and  C_9
REMARK                            x       y       z     vdW  Elec       q    Type
REMARK                         _______ _______ _______ _____ _____    ______ ____
ROOT
ATOM      1  S   UNL     1       3.189   7.189  17.872  0.00  0.00    +0.000 S 
ENDROOT
BRANCH   1   2
ATOM      2  C   UNL     1       4.730   6.208  17.832  0.00  0.00    +0.000 C 
BRANCH   2   3
ATOM      3  C   UNL     1       5.652   6.622  16.689  0.00  0.00    +0.000 C 
BRANCH   3   4
ATOM      4  C   UNL     1       5.502   5.690  15.494  0.00  0.00    +0.000 C 
BRANCH   4   6
ATOM      5  O   UNL     1       7.730   4.712  16.650  0.00  0.00    +0.000 OA
ATOM      6  S   UNL     1       6.812   4.416  15.507  0.00  0.00    +0.000 S 
BRANCH   6   7
ATOM      7  O   UNL     1       5.841   3.261  16.055  0.00  0.00    +0.000 OA
ATOM      8  H   UNL     1       5.894   2.520  15.406  0.00  0.00    +0.000 HD
ENDBRANCH   6   7
ENDBRANCH   4   6
ENDBRANCH   3   4
ENDBRANCH   2   3
ENDBRANCH   1   2
BRANCH   1   9
ATOM      9  S   UNL     1       2.430   6.773  19.742  0.00  0.00    +0.000 S 
BRANCH   9  10
ATOM     10  C   UNL     1       1.920   5.073  19.590  0.00  0.00    +0.000 A 
ATOM     11  C   UNL     1       1.586   4.334  20.729  0.00  0.00    +0.000 A 
ATOM     12  C   UNL     1       1.133   3.016  20.606  0.00  0.00    +0.000 A 
ATOM     13  C   UNL     1       1.008   2.435  19.344  0.00  0.00    +0.000 A 
ATOM     14  C   UNL     1       1.335   3.169  18.205  0.00  0.00    +0.000 A 
ATOM     15  C   UNL     1       1.787   4.484  18.328  0.00  0.00    +0.000 A 
ENDBRANCH   9  10
ENDBRANCH   1   9
TORSDOF 7
ENDMDL
MODEL 5
REMARK VINA RESULT:      -5.2      2.985      5.854
REMARK  Name = 
REMARK  7 active torsions:
REMARK  status: ('A' for Active; 'I' for Inactive)
REMARK    1  A    between atoms: S_2  and  O_3
REMARK    2  A    between atoms: S_2  and  C_4
REMARK    3  A    between atoms: C_4  and  C_5
REMARK    4  A    between atoms: C_5  and  C_6
REMARK    5  A    between atoms: C_6  and  S_7
REMARK    6  A    between atoms: S_7  and  S_8
REMARK    7  A    between atoms: S_8  and  C_9
REMARK                            x       y       z     vdW  Elec       q    Type
REMARK                         _______ _______ _______ _____ _____    ______ ____
ROOT
ATOM      1  S   UNL     1       3.865   3.319  17.802  0.00  0.00    +0.000 S 
ENDROOT
BRANCH   1   2
ATOM      2  C   UNL     1       2.156   3.955  17.683  0.00  0.00    +0.000 C 
BRANCH   2   3
ATOM      3  C   UNL     1       1.164   3.104  18.468  0.00  0.00    +0.000 C 
BRANCH   3   4
ATOM      4  C   UNL     1       1.877   2.223  19.486  0.00  0.00    +0.000 C 
BRANCH   4   6
ATOM      5  O   UNL     1       2.630   2.600  22.045  0.00  0.00    +0.000 OA
ATOM      6  S   UNL     1       1.410   2.705  21.187  0.00  0.00    +0.000 S 
BRANCH   6   7
ATOM      7  O   UNL     1       1.294   4.266  20.835  0.00  0.00    +0.000 OA
ATOM      8  H   UNL     1       1.243   4.327  19.850  0.00  0.00    +0.000 HD
ENDBRANCH   6   7
ENDBRANCH   4   6
ENDBRANCH   3   4
ENDBRANCH   2   3
ENDBRANCH   1   2
BRANCH   1   9
ATOM      9  S   UNL     1       4.611   4.317  19.443  0.00  0.00    +0.000 S 
BRANCH   9  10
ATOM     10  C   UNL     1       5.746   5.480  18.714  0.00  0.00    +0.000 A 
ATOM     11  C   UNL     1       7.033   5.631  19.239  0.00  0.00    +0.000 A 
ATOM     12  C   UNL     1       7.943   6.504  18.633  0.00  0.00    +0.000 A 
ATOM     13  C   UNL     1       7.571   7.225  17.498  0.00  0.00    +0.000 A 
ATOM     14  C   UNL     1       6.290   7.075  16.969  0.00  0.00    +0.000 A 
ATOM     15  C   UNL     1       5.382   6.204  17.573  0.00  0.00    +0.000 A 
ENDBRANCH   9  10
ENDBRANCH   1   9
TORSDOF 7
ENDMDL
MODEL 6
REMARK VINA RESULT:      -5.2      2.125      2.823
REMARK  Name = 
REMARK  7 active torsions:
REMARK  status: ('A' for Active; 'I' for Inactive)
REMARK    1  A    between atoms: S_2  and  O_3
REMARK    2  A    between atoms: S_2  and  C_4
REMARK    3  A    between atoms: C_4  and  C_5
REMARK    4  A    between atoms: C_5  and  C_6
REMARK    5  A    between atoms: C_6  and  S_7
REMARK    6  A    between atoms: S_7  and  S_8
REMARK    7  A    between atoms: S_8  and  C_9
REMARK                            x       y       z     vdW  Elec       q    Type
REMARK                         _______ _______ _______ _____ _____    ______ ____
ROOT
ATOM      1  S   UNL     1       5.704   4.702  19.040  0.00  0.00    +0.000 S 
ENDROOT
BRANCH   1   2
ATOM      2  C   UNL     1       7.085   5.843  18.679  0.00  0.00    +0.000 C 
BRANCH   2   3
ATOM      3  C   UNL     1       7.283   6.060  17.182  0.00  0.00    +0.000 C 
BRANCH   3   4
ATOM      4  C   UNL     1       7.115   4.758  16.410  0.00  0.00    +0.000 C 
BRANCH   4   6
ATOM      5  O   UNL     1       5.376   6.344  15.099  0.00  0.00    +0.000 OA
ATOM      6  S   UNL     1       5.744   4.899  15.209  0.00  0.00    +0.000 S 
BRANCH   6   7
ATOM      7  O   UNL     1       6.680   4.620  13.935  0.00  0.00    +0.000 OA
ATOM      8  H   UNL     1       6.879   5.501  13.536  0.00  0.00    +0.000 HD
ENDBRANCH   6   7
ENDBRANCH   4   6
ENDBRANCH   3   4
ENDBRANCH   2   3
ENDBRANCH   1   2
BRANCH   1   9
ATOM      9  S   UNL     1       4.042   5.858  18.652  0.00  0.00    +0.000 S 
BRANCH   9  10
ATOM     10  C   UNL     1       2.698   4.754  19.035  0.00  0.00    +0.000 A 
ATOM     11  C   UNL     1       2.260   3.822  18.089  0.00  0.00    +0.000 A 
ATOM     12  C   UNL     1       1.241   2.918  18.408  0.00  0.00    +0.000 A 
ATOM     13  C   UNL     1       0.659   2.940  19.676  0.00  0.00    +0.000 A 
ATOM     14  C   UNL     1       1.095   3.865  20.625  0.00  0.00    +0.000 A 
ATOM     15  C   UNL     1       2.111   4.766  20.306  0.00  0.00    +0.000 A 
ENDBRANCH   9  10
ENDBRANCH   1   9
TORSDOF 7
ENDMDL
MODEL 7
REMARK VINA RESULT:      -5.2      2.693      5.988
REMARK  Name = 
REMARK  7 active torsions:
REMARK  status: ('A' for Active; 'I' for Inactive)
REMARK    1  A    between atoms: S_2  and  O_3
REMARK    2  A    between atoms: S_2  and  C_4
REMARK    3  A    between atoms: C_4  and  C_5
REMARK    4  A    between atoms: C_5  and  C_6
REMARK    5  A    between atoms: C_6  and  S_7
REMARK    6  A    between atoms: S_7  and  S_8
REMARK    7  A    between atoms: S_8  and  C_9
REMARK                            x       y       z     vdW  Elec       q    Type
REMARK                         _______ _______ _______ _____ _____    ______ ____
ROOT
ATOM      1  S   UNL     1       4.154   3.424  18.385  0.00  0.00    +0.000 S 
ENDROOT
BRANCH   1   2
ATOM      2  C   UNL     1       2.456   2.899  17.960  0.00  0.00    +0.000 C 
BRANCH   2   3
ATOM      3  C   UNL     1       1.766   2.176  19.112  0.00  0.00    +0.000 C 
BRANCH   3   4
ATOM      4  C   UNL     1       1.021   3.155  20.011  0.00  0.00    +0.000 C 
BRANCH   4   6
ATOM      5  O   UNL     1       3.057   2.410  21.610  0.00  0.00    +0.000 OA
ATOM      6  S   UNL     1       1.851   3.293  21.634  0.00  0.00    +0.000 S 
BRANCH   6   7
ATOM      7  O   UNL     1       2.420   4.765  21.345  0.00  0.00    +0.000 OA
ATOM      8  H   UNL     1       1.721   5.398  21.639  0.00  0.00    +0.000 HD
ENDBRANCH   6   7
ENDBRANCH   4   6
ENDBRANCH   3   4
ENDBRANCH   2   3
ENDBRANCH   1   2
BRANCH   1   9
ATOM      9  S   UNL     1       4.713   4.539  16.745  0.00  0.00    +0.000 S 
BRANCH   9  10
ATOM     10  C   UNL     1       6.047   5.533  17.382  0.00  0.00    +0.000 A 
ATOM     11  C   UNL     1       6.267   6.820  16.881  0.00  0.00    +0.000 A 
ATOM     12  C   UNL     1       7.279   7.622  17.419  0.00  0.00    +0.000 A 
ATOM     13  C   UNL     1       8.072   7.142  18.461  0.00  0.00    +0.000 A 
ATOM     14  C   UNL     1       7.855   5.861  18.966  0.00  0.00    +0.000 A 
ATOM     15  C   UNL     1       6.844   5.061  18.431  0.00  0.00    +0.000 A 
ENDBRANCH   9  10
ENDBRANCH   1   9
TORSDOF 7
ENDMDL
MODEL 8
REMARK VINA RESULT:      -5.2      3.153      5.893
REMARK  Name = 
REMARK  7 active torsions:
REMARK  status: ('A' for Active; 'I' for Inactive)
REMARK    1  A    between atoms: S_2  and  O_3
REMARK    2  A    between atoms: S_2  and  C_4
REMARK    3  A    between atoms: C_4  and  C_5
REMARK    4  A    between atoms: C_5  and  C_6
REMARK    5  A    between atoms: C_6  and  S_7
REMARK    6  A    between atoms: S_7  and  S_8
REMARK    7  A    between atoms: S_8  and  C_9
REMARK                            x       y       z     vdW  Elec       q    Type
REMARK                         _______ _______ _______ _____ _____    ______ ____
ROOT
ATOM      1  S   UNL     1       3.539   4.151  17.191  0.00  0.00    +0.000 S 
ENDROOT
BRANCH   1   2
ATOM      2  C   UNL     1       3.922   4.043  18.974  0.00  0.00    +0.000 C 
BRANCH   2   3
ATOM      3  C   UNL     1       3.482   5.288  19.739  0.00  0.00    +0.000 C 
BRANCH   3   4
ATOM      4  C   UNL     1       2.364   4.964  20.722  0.00  0.00    +0.000 C 
BRANCH   4   6
ATOM      5  O   UNL     1       1.861   2.733  22.144  0.00  0.00    +0.000 OA
ATOM      6  S   UNL     1       2.012   3.170  20.723  0.00  0.00    +0.000 S 
BRANCH   6   7
ATOM      7  O   UNL     1       0.508   3.350  20.192  0.00  0.00    +0.000 OA
ATOM      8  H   UNL     1       0.047   2.495  20.364  0.00  0.00    +0.000 HD
ENDBRANCH   6   7
ENDBRANCH   4   6
ENDBRANCH   3   4
ENDBRANCH   2   3
ENDBRANCH   1   2
BRANCH   1   9
ATOM      9  S   UNL     1       5.380   3.869  16.309  0.00  0.00    +0.000 S 
BRANCH   9  10
ATOM     10  C   UNL     1       6.390   5.102  17.103  0.00  0.00    +0.000 A 
ATOM     11  C   UNL     1       6.284   6.446  16.730  0.00  0.00    +0.000 A 
ATOM     12  C   UNL     1       7.037   7.422  17.391  0.00  0.00    +0.000 A 
ATOM     13  C   UNL     1       7.895   7.059  18.430  0.00  0.00    +0.000 A 
ATOM     14  C   UNL     1       8.001   5.722  18.808  0.00  0.00    +0.000 A 
ATOM     15  C   UNL     1       7.249   4.748  18.149  0.00  0.00    +0.000 A 
ENDBRANCH   9  10
ENDBRANCH   1   9
TORSDOF 7
ENDMDL
MODEL 9
REMARK VINA RESULT:      -5.1      0.917      1.589
REMARK  Name = 
REMARK  7 active torsions:
REMARK  status: ('A' for Active; 'I' for Inactive)
REMARK    1  A    between atoms: S_2  and  O_3
REMARK    2  A    between atoms: S_2  and  C_4
REMARK    3  A    between atoms: C_4  and  C_5
REMARK    4  A    between atoms: C_5  and  C_6
REMARK    5  A    between atoms: C_6  and  S_7
REMARK    6  A    between atoms: S_7  and  S_8
REMARK    7  A    between atoms: S_8  and  C_9
REMARK                            x       y       z     vdW  Elec       q    Type
REMARK                         _______ _______ _______ _____ _____    ______ ____
ROOT
ATOM      1  S   UNL     1       4.392   4.480  16.662  0.00  0.00    +0.000 S 
ENDROOT
BRANCH   1   2
ATOM      2  C   UNL     1       5.772   3.997  15.566  0.00  0.00    +0.000 C 
BRANCH   2   3
ATOM      3  C   UNL     1       7.029   4.823  15.816  0.00  0.00    +0.000 C 
BRANCH   3   4
ATOM      4  C   UNL     1       6.797   5.866  16.902  0.00  0.00    +0.000 C 
BRANCH   4   6
ATOM      5  O   UNL     1       6.618   4.857  19.394  0.00  0.00    +0.000 OA
ATOM      6  S   UNL     1       7.648   5.382  18.446  0.00  0.00    +0.000 S 
BRANCH   6   7
ATOM      7  O   UNL     1       8.313   4.071  17.802  0.00  0.00    +0.000 OA
ATOM      8  H   UNL     1       8.853   4.379  17.036  0.00  0.00    +0.000 HD
ENDBRANCH   6   7
ENDBRANCH   4   6
ENDBRANCH   3   4
ENDBRANCH   2   3
ENDBRANCH   1   2
BRANCH   1   9
ATOM      9  S   UNL     1       3.831   2.688  17.510  0.00  0.00    +0.000 S 
BRANCH   9  10
ATOM     10  C   UNL     1       2.872   3.203  18.919  0.00  0.00    +0.000 A 
ATOM     11  C   UNL     1       1.888   2.361  19.447  0.00  0.00    +0.000 A 
ATOM     12  C   UNL     1       1.172   2.741  20.587  0.00  0.00    +0.000 A 
ATOM     13  C   UNL     1       1.440   3.962  21.206  0.00  0.00    +0.000 A 
ATOM     14  C   UNL     1       2.422   4.804  20.686  0.00  0.00    +0.000 A 
ATOM     15  C   UNL     1       3.137   4.424  19.549  0.00  0.00    +0.000 A 
ENDBRANCH   9  10
ENDBRANCH   1   9
TORSDOF 7
ENDMDL
