MODEL 1
REMARK VINA RESULT:      -7.4      0.000      0.000
REMARK  Name = 
REMARK  14 active torsions:
REMARK  status: ('A' for Active; 'I' for Inactive)
REMARK    1  A    between atoms: C_2  and  C_3
REMARK    2  A    between atoms: C_3  and  C_4
REMARK    3  A    between atoms: C_4  and  C_5
REMARK    4  A    between atoms: C_5  and  O_6
REMARK    5  A    between atoms: O_6  and  C_7
REMARK    6  A    between atoms: C_9  and  C_10
REMARK    7  A    between atoms: C_10  and  O_11
REMARK    8  A    between atoms: O_11  and  C_12
REMARK    9  A    between atoms: C_14  and  C_15
REMARK   10  A    between atoms: C_15  and  O_16
REMARK   11  A    between atoms: C_17  and  O_18
REMARK   12  A    between atoms: C_19  and  O_20
REMARK   13  A    between atoms: C_21  and  O_22
REMARK   14  A    between atoms: C_23  and  O_24
REMARK                            x       y       z     vdW  Elec       q    Type
REMARK                         _______ _______ _______ _____ _____    ______ ____
ROOT
ATOM      1  C   UNL     1       6.893   5.607  15.463  0.00  0.00    +0.000 C 
ATOM      2  O   UNL     1       5.611   6.243  15.549  0.00  0.00    +0.000 OA
ATOM      3  C   UNL     1       4.820   5.565  16.540  0.00  0.00    +0.000 C 
ATOM      4  C   UNL     1       5.818   4.842  17.430  0.00  0.00    +0.000 C 
ATOM      5  C   UNL     1       6.859   4.396  16.412  0.00  0.00    +0.000 C 
ENDROOT
BRANCH   4   6
ATOM      6  O   UNL     1       5.235   3.781  18.173  0.00  0.00    +0.000 OA
ATOM      7  H   UNL     1       5.578   3.815  19.085  0.00  0.00    +0.000 HD
ENDBRANCH   4   6
BRANCH   5   8
ATOM      8  O   UNL     1       8.118   4.100  17.016  0.00  0.00    +0.000 OA
ATOM      9  H   UNL     1       8.391   3.200  16.758  0.00  0.00    +0.000 HD
ENDBRANCH   5   8
BRANCH   1  10
ATOM     10  O   UNL     1       7.170   5.193  14.128  0.00  0.00    +0.000 OA
BRANCH  10  11
ATOM     11  C   UNL     1       6.411   4.032  13.786  0.00  0.00    +0.000 C 
BRANCH  11  12
ATOM     12  C   UNL     1       6.699   3.643  12.342  0.00  0.00    +0.000 C 
BRANCH  12  13
ATOM     13  C   UNL     1       5.589   2.739  11.805  0.00  0.00    +0.000 C 
BRANCH  13  15
ATOM     14  C   UNL     1       3.404   3.115  10.636  0.00  0.00    +0.000 C 
ATOM     15  C   UNL     1       4.339   3.514  11.507  0.00  0.00    +0.000 C 
ENDBRANCH  13  15
ENDBRANCH  12  13
ENDBRANCH  11  12
ENDBRANCH  10  11
ENDBRANCH   1  10
BRANCH   3  16
ATOM     16  C   UNL     1       3.979   6.583  17.308  0.00  0.00    +0.000 C 
BRANCH  16  17
ATOM     17  O   UNL     1       3.862   6.158  18.670  0.00  0.00    +0.000 OA
BRANCH  17  18
ATOM     18  C   UNL     1       2.591   5.594  18.954  0.00  0.00    +0.000 C 
ATOM     19  O   UNL     1       2.394   4.338  18.277  0.00  0.00    +0.000 OA
ATOM     20  C   UNL     1       2.070   3.342  19.271  0.00  0.00    +0.000 C 
ATOM     21  C   UNL     1       1.568   4.105  20.485  0.00  0.00    +0.000 C 
ATOM     22  C   UNL     1       2.479   5.321  20.463  0.00  0.00    +0.000 C 
BRANCH  21  23
ATOM     23  O   UNL     1       1.639   3.348  21.684  0.00  0.00    +0.000 OA
ATOM     24  H   UNL     1       0.812   2.844  21.789  0.00  0.00    +0.000 HD
ENDBRANCH  21  23
BRANCH  22  25
ATOM     25  O   UNL     1       1.951   6.416  21.210  0.00  0.00    +0.000 OA
ATOM     26  H   UNL     1       2.676   7.024  21.434  0.00  0.00    +0.000 HD
ENDBRANCH  22  25
BRANCH  20  27
ATOM     27  C   UNL     1       1.023   2.387  18.703  0.00  0.00    +0.000 C 
BRANCH  27  28
ATOM     28  O   UNL     1      -0.164   2.443  19.492  0.00  0.00    +0.000 OA
ATOM     29  H   UNL     1      -0.629   3.257  19.222  0.00  0.00    +0.000 HD
ENDBRANCH  27  28
ENDBRANCH  20  27
ENDBRANCH  17  18
ENDBRANCH  16  17
ENDBRANCH   3  16
TORSDOF 14
ENDMDL
MODEL 2
REMARK VINA RESULT:      -7.0      0.891      1.125
REMARK  Name = 
REMARK  14 active torsions:
REMARK  status: ('A' for Active; 'I' for Inactive)
REMARK    1  A    between atoms: C_2  and  C_3
REMARK    2  A    between atoms: C_3  and  C_4
REMARK    3  A    between atoms: C_4  and  C_5
REMARK    4  A    between atoms: C_5  and  O_6
REMARK    5  A    between atoms: O_6  and  C_7
REMARK    6  A    between atoms: C_9  and  C_10
REMARK    7  A    between atoms: C_10  and  O_11
REMARK    8  A    between atoms: O_11  and  C_12
REMARK    9  A    between atoms: C_14  and  C_15
REMARK   10  A    between atoms: C_15  and  O_16
REMARK   11  A    between atoms: C_17  and  O_18
REMARK   12  A    between atoms: C_19  and  O_20
REMARK   13  A    between atoms: C_21  and  O_22
REMARK   14  A    between atoms: C_23  and  O_24
REMARK                            x       y       z     vdW  Elec       q    Type
REMARK                         _______ _______ _______ _____ _____    ______ ____
ROOT
ATOM      1  C   UNL     1       6.956   5.662  16.049  0.00  0.00    +0.000 C 
ATOM      2  O   UNL     1       5.693   6.282  16.325  0.00  0.00    +0.000 OA
ATOM      3  C   UNL     1       5.006   5.512  17.327  0.00  0.00    +0.000 C 
ATOM      4  C   UNL     1       6.088   4.715  18.039  0.00  0.00    +0.000 C 
ATOM      5  C   UNL     1       7.015   4.369  16.881  0.00  0.00    +0.000 C 
ENDROOT
BRANCH   4   6
ATOM      6  O   UNL     1       5.580   3.587  18.738  0.00  0.00    +0.000 OA
ATOM      7  H   UNL     1       4.754   3.845  19.185  0.00  0.00    +0.000 HD
ENDBRANCH   4   6
BRANCH   5   8
ATOM      8  O   UNL     1       8.328   4.025  17.321  0.00  0.00    +0.000 OA
ATOM      9  H   UNL     1       8.451   3.061  17.232  0.00  0.00    +0.000 HD
ENDBRANCH   5   8
BRANCH   1  10
ATOM     10  O   UNL     1       7.091   5.374  14.659  0.00  0.00    +0.000 OA
BRANCH  10  11
ATOM     11  C   UNL     1       6.302   4.240  14.296  0.00  0.00    +0.000 C 
BRANCH  11  12
ATOM     12  C   UNL     1       6.614   3.843  12.858  0.00  0.00    +0.000 C 
BRANCH  12  13
ATOM     13  C   UNL     1       5.379   3.234  12.196  0.00  0.00    +0.000 C 
BRANCH  13  15
ATOM     14  C   UNL     1       6.950   1.621  11.096  0.00  0.00    +0.000 C 
ATOM     15  C   UNL     1       5.710   1.968  11.463  0.00  0.00    +0.000 C 
ENDBRANCH  13  15
ENDBRANCH  12  13
ENDBRANCH  11  12
ENDBRANCH  10  11
ENDBRANCH   1  10
BRANCH   3  16
ATOM     16  C   UNL     1       4.254   6.451  18.269  0.00  0.00    +0.000 C 
BRANCH  16  17
ATOM     17  O   UNL     1       2.944   6.686  17.744  0.00  0.00    +0.000 OA
BRANCH  17  18
ATOM     18  C   UNL     1       1.944   5.958  18.440  0.00  0.00    +0.000 C 
ATOM     19  O   UNL     1       1.771   4.632  17.906  0.00  0.00    +0.000 OA
ATOM     20  C   UNL     1       1.951   3.690  18.984  0.00  0.00    +0.000 C 
ATOM     21  C   UNL     1       1.724   4.470  20.269  0.00  0.00    +0.000 C 
ATOM     22  C   UNL     1       2.355   5.805  19.914  0.00  0.00    +0.000 C 
BRANCH  21  23
ATOM     23  O   UNL     1       2.295   3.841  21.407  0.00  0.00    +0.000 OA
ATOM     24  H   UNL     1       1.602   3.717  22.080  0.00  0.00    +0.000 HD
ENDBRANCH  21  23
BRANCH  22  25
ATOM     25  O   UNL     1       1.900   6.867  20.753  0.00  0.00    +0.000 OA
ATOM     26  H   UNL     1       0.938   6.785  20.872  0.00  0.00    +0.000 HD
ENDBRANCH  22  25
BRANCH  20  27
ATOM     27  C   UNL     1       0.965   2.537  18.815  0.00  0.00    +0.000 C 
BRANCH  27  28
ATOM     28  O   UNL     1      -0.034   2.598  19.833  0.00  0.00    +0.000 OA
ATOM     29  H   UNL     1       0.009   1.745  20.304  0.00  0.00    +0.000 HD
ENDBRANCH  27  28
ENDBRANCH  20  27
ENDBRANCH  17  18
ENDBRANCH  16  17
ENDBRANCH   3  16
TORSDOF 14
ENDMDL
MODEL 3
REMARK VINA RESULT:      -6.9      0.915      1.106
REMARK  Name = 
REMARK  14 active torsions:
REMARK  status: ('A' for Active; 'I' for Inactive)
REMARK    1  A    between atoms: C_2  and  C_3
REMARK    2  A    between atoms: C_3  and  C_4
REMARK    3  A    between atoms: C_4  and  C_5
REMARK    4  A    between atoms: C_5  and  O_6
REMARK    5  A    between atoms: O_6  and  C_7
REMARK    6  A    between atoms: C_9  and  C_10
REMARK    7  A    between atoms: C_10  and  O_11
REMARK    8  A    between atoms: O_11  and  C_12
REMARK    9  A    between atoms: C_14  and  C_15
REMARK   10  A    between atoms: C_15  and  O_16
REMARK   11  A    between atoms: C_17  and  O_18
REMARK   12  A    between atoms: C_19  and  O_20
REMARK   13  A    between atoms: C_21  and  O_22
REMARK   14  A    between atoms: C_23  and  O_24
REMARK                            x       y       z     vdW  Elec       q    Type
REMARK                         _______ _______ _______ _____ _____    ______ ____
ROOT
ATOM      1  C   UNL     1       7.034   5.623  16.545  0.00  0.00    +0.000 C 
ATOM      2  O   UNL     1       5.711   6.143  16.735  0.00  0.00    +0.000 OA
ATOM      3  C   UNL     1       5.006   5.296  17.658  0.00  0.00    +0.000 C 
ATOM      4  C   UNL     1       6.084   4.555  18.434  0.00  0.00    +0.000 C 
ATOM      5  C   UNL     1       7.121   4.312  17.346  0.00  0.00    +0.000 C 
ENDROOT
BRANCH   4   6
ATOM      6  O   UNL     1       5.606   3.373  19.061  0.00  0.00    +0.000 OA
ATOM      7  H   UNL     1       5.710   2.629  18.441  0.00  0.00    +0.000 HD
ENDBRANCH   4   6
BRANCH   5   8
ATOM      8  O   UNL     1       8.418   4.047  17.882  0.00  0.00    +0.000 OA
ATOM      9  H   UNL     1       8.883   4.893  18.021  0.00  0.00    +0.000 HD
ENDBRANCH   5   8
BRANCH   1  10
ATOM     10  O   UNL     1       7.298   5.389  15.164  0.00  0.00    +0.000 OA
BRANCH  10  11
ATOM     11  C   UNL     1       6.081   5.321  14.418  0.00  0.00    +0.000 C 
BRANCH  11  12
ATOM     12  C   UNL     1       5.834   3.884  13.976  0.00  0.00    +0.000 C 
BRANCH  12  13
ATOM     13  C   UNL     1       6.482   3.629  12.615  0.00  0.00    +0.000 C 
BRANCH  13  15
ATOM     14  C   UNL     1       4.270   3.226  11.508  0.00  0.00    +0.000 C 
ATOM     15  C   UNL     1       5.556   2.898  11.689  0.00  0.00    +0.000 C 
ENDBRANCH  13  15
ENDBRANCH  12  13
ENDBRANCH  11  12
ENDBRANCH  10  11
ENDBRANCH   1  10
BRANCH   3  16
ATOM     16  C   UNL     1       4.117   6.149  18.560  0.00  0.00    +0.000 C 
BRANCH  16  17
ATOM     17  O   UNL     1       2.794   6.180  18.015  0.00  0.00    +0.000 OA
BRANCH  17  18
ATOM     18  C   UNL     1       1.869   5.438  18.795  0.00  0.00    +0.000 C 
ATOM     19  O   UNL     1       1.831   4.050  18.412  0.00  0.00    +0.000 OA
ATOM     20  C   UNL     1       2.101   3.255  19.585  0.00  0.00    +0.000 C 
ATOM     21  C   UNL     1       1.794   4.146  20.778  0.00  0.00    +0.000 C 
ATOM     22  C   UNL     1       2.290   5.490  20.273  0.00  0.00    +0.000 C 
BRANCH  21  23
ATOM     23  O   UNL     1       2.422   3.706  21.974  0.00  0.00    +0.000 OA
ATOM     24  H   UNL     1       3.112   4.347  22.223  0.00  0.00    +0.000 HD
ENDBRANCH  21  23
BRANCH  22  25
ATOM     25  O   UNL     1       1.730   6.587  20.994  0.00  0.00    +0.000 OA
ATOM     26  H   UNL     1       0.761   6.553  20.919  0.00  0.00    +0.000 HD
ENDBRANCH  22  25
BRANCH  20  27
ATOM     27  C   UNL     1       1.235   1.999  19.553  0.00  0.00    +0.000 C 
BRANCH  27  28
ATOM     28  O   UNL     1       0.602   1.877  18.279  0.00  0.00    +0.000 OA
ATOM     29  H   UNL     1      -0.358   1.938  18.449  0.00  0.00    +0.000 HD
ENDBRANCH  27  28
ENDBRANCH  20  27
ENDBRANCH  17  18
ENDBRANCH  16  17
ENDBRANCH   3  16
TORSDOF 14
ENDMDL
MODEL 4
REMARK VINA RESULT:      -6.8      1.136      1.914
REMARK  Name = 
REMARK  14 active torsions:
REMARK  status: ('A' for Active; 'I' for Inactive)
REMARK    1  A    between atoms: C_2  and  C_3
REMARK    2  A    between atoms: C_3  and  C_4
REMARK    3  A    between atoms: C_4  and  C_5
REMARK    4  A    between atoms: C_5  and  O_6
REMARK    5  A    between atoms: O_6  and  C_7
REMARK    6  A    between atoms: C_9  and  C_10
REMARK    7  A    between atoms: C_10  and  O_11
REMARK    8  A    between atoms: O_11  and  C_12
REMARK    9  A    between atoms: C_14  and  C_15
REMARK   10  A    between atoms: C_15  and  O_16
REMARK   11  A    between atoms: C_17  and  O_18
REMARK   12  A    between atoms: C_19  and  O_20
REMARK   13  A    between atoms: C_21  and  O_22
REMARK   14  A    between atoms: C_23  and  O_24
REMARK                            x       y       z     vdW  Elec       q    Type
REMARK                         _______ _______ _______ _____ _____    ______ ____
ROOT
ATOM      1  C   UNL     1       6.359   4.762  15.647  0.00  0.00    +0.000 C 
ATOM      2  O   UNL     1       5.061   5.336  15.852  0.00  0.00    +0.000 OA
ATOM      3  C   UNL     1       4.780   5.359  17.262  0.00  0.00    +0.000 C 
ATOM      4  C   UNL     1       6.135   5.279  17.947  0.00  0.00    +0.000 C 
ATOM      5  C   UNL     1       6.880   4.322  17.027  0.00  0.00    +0.000 C 
ENDROOT
BRANCH   4   6
ATOM      6  O   UNL     1       6.052   4.845  19.297  0.00  0.00    +0.000 OA
ATOM      7  H   UNL     1       5.748   5.591  19.845  0.00  0.00    +0.000 HD
ENDBRANCH   4   6
BRANCH   5   8
ATOM      8  O   UNL     1       8.297   4.424  17.169  0.00  0.00    +0.000 OA
ATOM      9  H   UNL     1       8.522   4.427  18.117  0.00  0.00    +0.000 HD
ENDBRANCH   5   8
BRANCH   1  10
ATOM     10  O   UNL     1       6.291   3.651  14.756  0.00  0.00    +0.000 OA
BRANCH  10  11
ATOM     11  C   UNL     1       5.970   4.080  13.432  0.00  0.00    +0.000 C 
BRANCH  11  12
ATOM     12  C   UNL     1       5.037   3.066  12.781  0.00  0.00    +0.000 C 
BRANCH  12  13
ATOM     13  C   UNL     1       4.929   3.332  11.280  0.00  0.00    +0.000 C 
BRANCH  13  15
ATOM     14  C   UNL     1       3.076   3.977   9.721  0.00  0.00    +0.000 C 
ATOM     15  C   UNL     1       3.501   3.340  10.819  0.00  0.00    +0.000 C 
ENDBRANCH  13  15
ENDBRANCH  12  13
ENDBRANCH  11  12
ENDBRANCH  10  11
ENDBRANCH   1  10
BRANCH   3  16
ATOM     16  C   UNL     1       4.020   6.637  17.612  0.00  0.00    +0.000 C 
BRANCH  16  17
ATOM     17  O   UNL     1       2.852   6.294  18.363  0.00  0.00    +0.000 OA
BRANCH  17  18
ATOM     18  C   UNL     1       2.838   4.927  18.748  0.00  0.00    +0.000 C 
ATOM     19  O   UNL     1       3.007   4.765  20.169  0.00  0.00    +0.000 OA
ATOM     20  C   UNL     1       1.891   3.998  20.667  0.00  0.00    +0.000 C 
ATOM     21  C   UNL     1       1.317   3.261  19.467  0.00  0.00    +0.000 C 
ATOM     22  C   UNL     1       1.481   4.306  18.378  0.00  0.00    +0.000 C 
BRANCH  21  23
ATOM     23  O   UNL     1      -0.023   2.835  19.667  0.00  0.00    +0.000 OA
ATOM     24  H   UNL     1      -0.126   2.540  20.590  0.00  0.00    +0.000 HD
ENDBRANCH  21  23
BRANCH  22  25
ATOM     25  O   UNL     1       1.444   3.743  17.067  0.00  0.00    +0.000 OA
ATOM     26  H   UNL     1       1.450   4.463  16.413  0.00  0.00    +0.000 HD
ENDBRANCH  22  25
BRANCH  20  27
ATOM     27  C   UNL     1       2.378   3.050  21.759  0.00  0.00    +0.000 C 
BRANCH  27  28
ATOM     28  O   UNL     1       1.272   2.349  22.325  0.00  0.00    +0.000 OA
ATOM     29  H   UNL     1       1.615   1.904  23.123  0.00  0.00    +0.000 HD
ENDBRANCH  27  28
ENDBRANCH  20  27
ENDBRANCH  17  18
ENDBRANCH  16  17
ENDBRANCH   3  16
TORSDOF 14
ENDMDL
MODEL 5
REMARK VINA RESULT:      -6.8      1.218      1.968
REMARK  Name = 
REMARK  14 active torsions:
REMARK  status: ('A' for Active; 'I' for Inactive)
REMARK    1  A    between atoms: C_2  and  C_3
REMARK    2  A    between atoms: C_3  and  C_4
REMARK    3  A    between atoms: C_4  and  C_5
REMARK    4  A    between atoms: C_5  and  O_6
REMARK    5  A    between atoms: O_6  and  C_7
REMARK    6  A    between atoms: C_9  and  C_10
REMARK    7  A    between atoms: C_10  and  O_11
REMARK    8  A    between atoms: O_11  and  C_12
REMARK    9  A    between atoms: C_14  and  C_15
REMARK   10  A    between atoms: C_15  and  O_16
REMARK   11  A    between atoms: C_17  and  O_18
REMARK   12  A    between atoms: C_19  and  O_20
REMARK   13  A    between atoms: C_21  and  O_22
REMARK   14  A    between atoms: C_23  and  O_24
REMARK                            x       y       z     vdW  Elec       q    Type
REMARK                         _______ _______ _______ _____ _____    ______ ____
ROOT
ATOM      1  C   UNL     1       7.129   5.745  16.371  0.00  0.00    +0.000 C 
ATOM      2  O   UNL     1       5.850   6.351  16.599  0.00  0.00    +0.000 OA
ATOM      3  C   UNL     1       5.137   5.577  17.580  0.00  0.00    +0.000 C 
ATOM      4  C   UNL     1       6.202   4.796  18.333  0.00  0.00    +0.000 C 
ATOM      5  C   UNL     1       7.173   4.456  17.211  0.00  0.00    +0.000 C 
ENDROOT
BRANCH   4   6
ATOM      6  O   UNL     1       5.684   3.665  19.019  0.00  0.00    +0.000 OA
ATOM      7  H   UNL     1       5.871   3.766  19.970  0.00  0.00    +0.000 HD
ENDBRANCH   4   6
BRANCH   5   8
ATOM      8  O   UNL     1       8.475   4.129  17.698  0.00  0.00    +0.000 OA
ATOM      9  H   UNL     1       8.490   4.247  18.666  0.00  0.00    +0.000 HD
ENDBRANCH   5   8
BRANCH   1  10
ATOM     10  O   UNL     1       7.316   5.453  14.988  0.00  0.00    +0.000 OA
BRANCH  10  11
ATOM     11  C   UNL     1       6.812   4.154  14.670  0.00  0.00    +0.000 C 
BRANCH  11  12
ATOM     12  C   UNL     1       5.623   4.288  13.726  0.00  0.00    +0.000 C 
BRANCH  12  13
ATOM     13  C   UNL     1       5.815   3.392  12.502  0.00  0.00    +0.000 C 
BRANCH  13  15
ATOM     14  C   UNL     1       4.081   3.540  10.698  0.00  0.00    +0.000 C 
ATOM     15  C   UNL     1       4.503   3.037  11.865  0.00  0.00    +0.000 C 
ENDBRANCH  13  15
ENDBRANCH  12  13
ENDBRANCH  11  12
ENDBRANCH  10  11
ENDBRANCH   1  10
BRANCH   3  16
ATOM     16  C   UNL     1       4.342   6.511  18.491  0.00  0.00    +0.000 C 
BRANCH  16  17
ATOM     17  O   UNL     1       2.983   6.067  18.541  0.00  0.00    +0.000 OA
BRANCH  17  18
ATOM     18  C   UNL     1       2.878   4.674  18.795  0.00  0.00    +0.000 C 
ATOM     19  O   UNL     1       3.177   4.351  20.166  0.00  0.00    +0.000 OA
ATOM     20  C   UNL     1       2.050   3.634  20.712  0.00  0.00    +0.000 C 
ATOM     21  C   UNL     1       1.287   3.078  19.522  0.00  0.00    +0.000 C 
ATOM     22  C   UNL     1       1.437   4.213  18.523  0.00  0.00    +0.000 C 
BRANCH  21  23
ATOM     23  O   UNL     1      -0.059   2.749  19.831  0.00  0.00    +0.000 OA
ATOM     24  H   UNL     1      -0.449   2.269  19.078  0.00  0.00    +0.000 HD
ENDBRANCH  21  23
BRANCH  22  25
ATOM     25  O   UNL     1       1.209   3.793  17.178  0.00  0.00    +0.000 OA
ATOM     26  H   UNL     1       2.027   3.402  16.827  0.00  0.00    +0.000 HD
ENDBRANCH  22  25
BRANCH  20  27
ATOM     27  C   UNL     1       2.555   2.540  21.649  0.00  0.00    +0.000 C 
BRANCH  27  28
ATOM     28  O   UNL     1       3.910   2.218  21.336  0.00  0.00    +0.000 OA
ATOM     29  H   UNL     1       4.035   2.463  20.400  0.00  0.00    +0.000 HD
ENDBRANCH  27  28
ENDBRANCH  20  27
ENDBRANCH  17  18
ENDBRANCH  16  17
ENDBRANCH   3  16
TORSDOF 14
ENDMDL
MODEL 6
REMARK VINA RESULT:      -6.8      1.169      1.556
REMARK  Name = 
REMARK  14 active torsions:
REMARK  status: ('A' for Active; 'I' for Inactive)
REMARK    1  A    between atoms: C_2  and  C_3
REMARK    2  A    between atoms: C_3  and  C_4
REMARK    3  A    between atoms: C_4  and  C_5
REMARK    4  A    between atoms: C_5  and  O_6
REMARK    5  A    between atoms: O_6  and  C_7
REMARK    6  A    between atoms: C_9  and  C_10
REMARK    7  A    between atoms: C_10  and  O_11
REMARK    8  A    between atoms: O_11  and  C_12
REMARK    9  A    between atoms: C_14  and  C_15
REMARK   10  A    between atoms: C_15  and  O_16
REMARK   11  A    between atoms: C_17  and  O_18
REMARK   12  A    between atoms: C_19  and  O_20
REMARK   13  A    between atoms: C_21  and  O_22
REMARK   14  A    between atoms: C_23  and  O_24
REMARK                            x       y       z     vdW  Elec       q    Type
REMARK                         _______ _______ _______ _____ _____    ______ ____
ROOT
ATOM      1  C   UNL     1       5.605   4.795  14.774  0.00  0.00    +0.000 C 
ATOM      2  O   UNL     1       4.735   4.771  15.913  0.00  0.00    +0.000 OA
ATOM      3  C   UNL     1       5.530   4.849  17.109  0.00  0.00    +0.000 C 
ATOM      4  C   UNL     1       6.857   5.451  16.675  0.00  0.00    +0.000 C 
ATOM      5  C   UNL     1       7.048   4.804  15.310  0.00  0.00    +0.000 C 
ENDROOT
BRANCH   4   6
ATOM      6  O   UNL     1       7.910   5.199  17.594  0.00  0.00    +0.000 OA
ATOM      7  H   UNL     1       7.733   4.355  18.046  0.00  0.00    +0.000 HD
ENDBRANCH   4   6
BRANCH   5   8
ATOM      8  O   UNL     1       7.965   5.527  14.489  0.00  0.00    +0.000 OA
ATOM      9  H   UNL     1       8.870   5.210  14.668  0.00  0.00    +0.000 HD
ENDBRANCH   5   8
BRANCH   1  10
ATOM     10  O   UNL     1       5.384   3.662  13.938  0.00  0.00    +0.000 OA
BRANCH  10  11
ATOM     11  C   UNL     1       5.849   3.911  12.610  0.00  0.00    +0.000 C 
BRANCH  11  12
ATOM     12  C   UNL     1       5.457   2.747  11.708  0.00  0.00    +0.000 C 
BRANCH  12  13
ATOM     13  C   UNL     1       3.987   2.858  11.308  0.00  0.00    +0.000 C 
BRANCH  13  15
ATOM     14  C   UNL     1       2.848   4.155   9.490  0.00  0.00    +0.000 C 
ATOM     15  C   UNL     1       3.724   4.096  10.501  0.00  0.00    +0.000 C 
ENDBRANCH  13  15
ENDBRANCH  12  13
ENDBRANCH  11  12
ENDBRANCH  10  11
ENDBRANCH   1  10
BRANCH   3  16
ATOM     16  C   UNL     1       4.809   5.705  18.149  0.00  0.00    +0.000 C 
BRANCH  16  17
ATOM     17  O   UNL     1       3.617   6.239  17.567  0.00  0.00    +0.000 OA
BRANCH  17  18
ATOM     18  C   UNL     1       2.445   5.813  18.245  0.00  0.00    +0.000 C 
ATOM     19  O   UNL     1       2.078   4.465  17.895  0.00  0.00    +0.000 OA
ATOM     20  C   UNL     1       1.991   3.696  19.113  0.00  0.00    +0.000 C 
ATOM     21  C   UNL     1       1.803   4.703  20.236  0.00  0.00    +0.000 C 
ATOM     22  C   UNL     1       2.695   5.838  19.762  0.00  0.00    +0.000 C 
BRANCH  21  23
ATOM     23  O   UNL     1       2.151   4.183  21.510  0.00  0.00    +0.000 OA
ATOM     24  H   UNL     1       2.298   3.224  21.431  0.00  0.00    +0.000 HD
ENDBRANCH  21  23
BRANCH  22  25
ATOM     25  O   UNL     1       2.373   7.083  20.380  0.00  0.00    +0.000 OA
ATOM     26  H   UNL     1       3.088   7.326  20.993  0.00  0.00    +0.000 HD
ENDBRANCH  22  25
BRANCH  20  27
ATOM     27  C   UNL     1       0.828   2.713  19.005  0.00  0.00    +0.000 C 
BRANCH  27  28
ATOM     28  O   UNL     1       1.314   1.422  18.640  0.00  0.00    +0.000 OA
ATOM     29  H   UNL     1       1.765   1.071  19.431  0.00  0.00    +0.000 HD
ENDBRANCH  27  28
ENDBRANCH  20  27
ENDBRANCH  17  18
ENDBRANCH  16  17
ENDBRANCH   3  16
TORSDOF 14
ENDMDL
MODEL 7
REMARK VINA RESULT:      -6.7      1.848      2.956
REMARK  Name = 
REMARK  14 active torsions:
REMARK  status: ('A' for Active; 'I' for Inactive)
REMARK    1  A    between atoms: C_2  and  C_3
REMARK    2  A    between atoms: C_3  and  C_4
REMARK    3  A    between atoms: C_4  and  C_5
REMARK    4  A    between atoms: C_5  and  O_6
REMARK    5  A    between atoms: O_6  and  C_7
REMARK    6  A    between atoms: C_9  and  C_10
REMARK    7  A    between atoms: C_10  and  O_11
REMARK    8  A    between atoms: O_11  and  C_12
REMARK    9  A    between atoms: C_14  and  C_15
REMARK   10  A    between atoms: C_15  and  O_16
REMARK   11  A    between atoms: C_17  and  O_18
REMARK   12  A    between atoms: C_19  and  O_20
REMARK   13  A    between atoms: C_21  and  O_22
REMARK   14  A    between atoms: C_23  and  O_24
REMARK                            x       y       z     vdW  Elec       q    Type
REMARK                         _______ _______ _______ _____ _____    ______ ____
ROOT
ATOM      1  C   UNL     1       6.322   5.908  16.201  0.00  0.00    +0.000 C 
ATOM      2  O   UNL     1       5.720   4.864  16.977  0.00  0.00    +0.000 OA
ATOM      3  C   UNL     1       6.362   4.810  18.263  0.00  0.00    +0.000 C 
ATOM      4  C   UNL     1       7.002   6.175  18.453  0.00  0.00    +0.000 C 
ATOM      5  C   UNL     1       7.477   6.484  17.040  0.00  0.00    +0.000 C 
ENDROOT
BRANCH   4   6
ATOM      6  O   UNL     1       8.035   6.175  19.429  0.00  0.00    +0.000 OA
ATOM      7  H   UNL     1       8.734   6.790  19.142  0.00  0.00    +0.000 HD
ENDBRANCH   4   6
BRANCH   5   8
ATOM      8  O   UNL     1       7.700   7.879  16.834  0.00  0.00    +0.000 OA
ATOM      9  H   UNL     1       6.930   8.260  16.373  0.00  0.00    +0.000 HD
ENDBRANCH   5   8
BRANCH   1  10
ATOM     10  O   UNL     1       6.805   5.406  14.956  0.00  0.00    +0.000 OA
BRANCH  10  11
ATOM     11  C   UNL     1       5.816   4.598  14.316  0.00  0.00    +0.000 C 
BRANCH  11  12
ATOM     12  C   UNL     1       6.500   3.579  13.413  0.00  0.00    +0.000 C 
BRANCH  12  13
ATOM     13  C   UNL     1       5.698   3.389  12.126  0.00  0.00    +0.000 C 
BRANCH  13  15
ATOM     14  C   UNL     1       6.764   1.493  10.880  0.00  0.00    +0.000 C 
ATOM     15  C   UNL     1       5.767   1.973  11.634  0.00  0.00    +0.000 C 
ENDBRANCH  13  15
ENDBRANCH  12  13
ENDBRANCH  11  12
ENDBRANCH  10  11
ENDBRANCH   1  10
BRANCH   3  16
ATOM     16  C   UNL     1       5.326   4.493  19.339  0.00  0.00    +0.000 C 
BRANCH  16  17
ATOM     17  O   UNL     1       5.478   3.129  19.745  0.00  0.00    +0.000 OA
BRANCH  17  18
ATOM     18  C   UNL     1       4.231   2.475  19.925  0.00  0.00    +0.000 C 
ATOM     19  O   UNL     1       3.213   3.376  20.399  0.00  0.00    +0.000 OA
ATOM     20  C   UNL     1       2.103   3.318  19.479  0.00  0.00    +0.000 C 
ATOM     21  C   UNL     1       2.242   2.001  18.732  0.00  0.00    +0.000 C 
ATOM     22  C   UNL     1       3.750   1.912  18.578  0.00  0.00    +0.000 C 
BRANCH  21  23
ATOM     23  O   UNL     1       1.529   1.983  17.504  0.00  0.00    +0.000 OA
ATOM     24  H   UNL     1       0.917   2.740  17.482  0.00  0.00    +0.000 HD
ENDBRANCH  21  23
BRANCH  22  25
ATOM     25  O   UNL     1       4.197   0.582  18.316  0.00  0.00    +0.000 OA
ATOM     26  H   UNL     1       4.119   0.405  17.363  0.00  0.00    +0.000 HD
ENDBRANCH  22  25
BRANCH  20  27
ATOM     27  C   UNL     1       0.795   3.414  20.260  0.00  0.00    +0.000 C 
BRANCH  27  28
ATOM     28  O   UNL     1      -0.233   2.694  19.581  0.00  0.00    +0.000 OA
ATOM     29  H   UNL     1       0.188   1.880  19.243  0.00  0.00    +0.000 HD
ENDBRANCH  27  28
ENDBRANCH  20  27
ENDBRANCH  17  18
ENDBRANCH  16  17
ENDBRANCH   3  16
TORSDOF 14
ENDMDL
MODEL 8
REMARK VINA RESULT:      -6.7      1.218      2.224
REMARK  Name = 
REMARK  14 active torsions:
REMARK  status: ('A' for Active; 'I' for Inactive)
REMARK    1  A    between atoms: C_2  and  C_3
REMARK    2  A    between atoms: C_3  and  C_4
REMARK    3  A    between atoms: C_4  and  C_5
REMARK    4  A    between atoms: C_5  and  O_6
REMARK    5  A    between atoms: O_6  and  C_7
REMARK    6  A    between atoms: C_9  and  C_10
REMARK    7  A    between atoms: C_10  and  O_11
REMARK    8  A    between atoms: O_11  and  C_12
REMARK    9  A    between atoms: C_14  and  C_15
REMARK   10  A    between atoms: C_15  and  O_16
REMARK   11  A    between atoms: C_17  and  O_18
REMARK   12  A    between atoms: C_19  and  O_20
REMARK   13  A    between atoms: C_21  and  O_22
REMARK   14  A    between atoms: C_23  and  O_24
REMARK                            x       y       z     vdW  Elec       q    Type
REMARK                         _______ _______ _______ _____ _____    ______ ____
ROOT
ATOM      1  C   UNL     1       6.593   5.517  15.598  0.00  0.00    +0.000 C 
ATOM      2  O   UNL     1       5.307   6.054  15.938  0.00  0.00    +0.000 OA
ATOM      3  C   UNL     1       4.831   5.403  17.129  0.00  0.00    +0.000 C 
ATOM      4  C   UNL     1       6.071   4.841  17.807  0.00  0.00    +0.000 C 
ATOM      5  C   UNL     1       6.892   4.393  16.606  0.00  0.00    +0.000 C 
ENDROOT
BRANCH   4   6
ATOM      6  O   UNL     1       5.778   3.804  18.733  0.00  0.00    +0.000 OA
ATOM      7  H   UNL     1       6.194   4.023  19.586  0.00  0.00    +0.000 HD
ENDBRANCH   4   6
BRANCH   5   8
ATOM      8  O   UNL     1       8.278   4.252  16.918  0.00  0.00    +0.000 OA
ATOM      9  H   UNL     1       8.546   3.327  16.764  0.00  0.00    +0.000 HD
ENDBRANCH   5   8
BRANCH   1  10
ATOM     10  O   UNL     1       6.599   5.014  14.264  0.00  0.00    +0.000 OA
BRANCH  10  11
ATOM     11  C   UNL     1       5.810   3.827  14.164  0.00  0.00    +0.000 C 
BRANCH  11  12
ATOM     12  C   UNL     1       5.665   3.435  12.699  0.00  0.00    +0.000 C 
BRANCH  12  13
ATOM     13  C   UNL     1       7.017   3.519  11.991  0.00  0.00    +0.000 C 
BRANCH  13  15
ATOM     14  C   UNL     1       6.467   1.240  11.104  0.00  0.00    +0.000 C 
ATOM     15  C   UNL     1       7.276   2.306  11.146  0.00  0.00    +0.000 C 
ENDBRANCH  13  15
ENDBRANCH  12  13
ENDBRANCH  11  12
ENDBRANCH  10  11
ENDBRANCH   1  10
BRANCH   3  16
ATOM     16  C   UNL     1       4.091   6.412  18.004  0.00  0.00    +0.000 C 
BRANCH  16  17
ATOM     17  O   UNL     1       2.768   5.928  18.256  0.00  0.00    +0.000 OA
BRANCH  17  18
ATOM     18  C   UNL     1       2.757   4.568  18.661  0.00  0.00    +0.000 C 
ATOM     19  O   UNL     1       2.442   4.423  20.059  0.00  0.00    +0.000 OA
ATOM     20  C   UNL     1       1.304   3.543  20.171  0.00  0.00    +0.000 C 
ATOM     21  C   UNL     1       1.254   2.751  18.874  0.00  0.00    +0.000 C 
ATOM     22  C   UNL     1       1.679   3.808  17.870  0.00  0.00    +0.000 C 
BRANCH  21  23
ATOM     23  O   UNL     1      -0.024   2.186  18.619  0.00  0.00    +0.000 OA
ATOM     24  H   UNL     1      -0.489   2.060  19.465  0.00  0.00    +0.000 HD
ENDBRANCH  21  23
BRANCH  22  25
ATOM     25  O   UNL     1       2.151   3.244  16.647  0.00  0.00    +0.000 OA
ATOM     26  H   UNL     1       3.039   2.875  16.791  0.00  0.00    +0.000 HD
ENDBRANCH  22  25
BRANCH  20  27
ATOM     27  C   UNL     1       1.477   2.651  21.397  0.00  0.00    +0.000 C 
BRANCH  27  28
ATOM     28  O   UNL     1       2.253   3.327  22.385  0.00  0.00    +0.000 OA
ATOM     29  H   UNL     1       2.926   3.837  21.896  0.00  0.00    +0.000 HD
ENDBRANCH  27  28
ENDBRANCH  20  27
ENDBRANCH  17  18
ENDBRANCH  16  17
ENDBRANCH   3  16
TORSDOF 14
ENDMDL
MODEL 9
REMARK VINA RESULT:      -6.6      1.507      2.810
REMARK  Name = 
REMARK  14 active torsions:
REMARK  status: ('A' for Active; 'I' for Inactive)
REMARK    1  A    between atoms: C_2  and  C_3
REMARK    2  A    between atoms: C_3  and  C_4
REMARK    3  A    between atoms: C_4  and  C_5
REMARK    4  A    between atoms: C_5  and  O_6
REMARK    5  A    between atoms: O_6  and  C_7
REMARK    6  A    between atoms: C_9  and  C_10
REMARK    7  A    between atoms: C_10  and  O_11
REMARK    8  A    between atoms: O_11  and  C_12
REMARK    9  A    between atoms: C_14  and  C_15
REMARK   10  A    between atoms: C_15  and  O_16
REMARK   11  A    between atoms: C_17  and  O_18
REMARK   12  A    between atoms: C_19  and  O_20
REMARK   13  A    between atoms: C_21  and  O_22
REMARK   14  A    between atoms: C_23  and  O_24
REMARK                            x       y       z     vdW  Elec       q    Type
REMARK                         _______ _______ _______ _____ _____    ______ ____
ROOT
ATOM      1  C   UNL     1       6.510   5.183  15.738  0.00  0.00    +0.000 C 
ATOM      2  O   UNL     1       6.816   4.719  17.059  0.00  0.00    +0.000 OA
ATOM      3  C   UNL     1       6.331   5.679  18.014  0.00  0.00    +0.000 C 
ATOM      4  C   UNL     1       5.263   6.475  17.281  0.00  0.00    +0.000 C 
ATOM      5  C   UNL     1       5.865   6.572  15.886  0.00  0.00    +0.000 C 
ENDROOT
BRANCH   4   6
ATOM      6  O   UNL     1       4.989   7.730  17.888  0.00  0.00    +0.000 OA
ATOM      7  H   UNL     1       5.637   7.879  18.600  0.00  0.00    +0.000 HD
ENDBRANCH   4   6
BRANCH   5   8
ATOM      8  O   UNL     1       4.884   6.863  14.890  0.00  0.00    +0.000 OA
ATOM      9  H   UNL     1       4.004   6.890  15.309  0.00  0.00    +0.000 HD
ENDBRANCH   5   8
BRANCH   1  10
ATOM     10  O   UNL     1       7.688   5.257  14.937  0.00  0.00    +0.000 OA
BRANCH  10  11
ATOM     11  C   UNL     1       7.380   5.041  13.559  0.00  0.00    +0.000 C 
BRANCH  11  12
ATOM     12  C   UNL     1       6.344   3.931  13.436  0.00  0.00    +0.000 C 
BRANCH  12  13
ATOM     13  C   UNL     1       6.544   3.161  12.131  0.00  0.00    +0.000 C 
BRANCH  13  15
ATOM     14  C   UNL     1       4.140   3.337  11.446  0.00  0.00    +0.000 C 
ATOM     15  C   UNL     1       5.250   2.607  11.611  0.00  0.00    +0.000 C 
ENDBRANCH  13  15
ENDBRANCH  12  13
ENDBRANCH  11  12
ENDBRANCH  10  11
ENDBRANCH   1  10
BRANCH   3  16
ATOM     16  C   UNL     1       5.784   4.951  19.240  0.00  0.00    +0.000 C 
BRANCH  16  17
ATOM     17  O   UNL     1       5.588   3.572  18.914  0.00  0.00    +0.000 OA
BRANCH  17  18
ATOM     18  C   UNL     1       4.441   3.024  19.546  0.00  0.00    +0.000 C 
ATOM     19  O   UNL     1       3.504   4.043  19.943  0.00  0.00    +0.000 OA
ATOM     20  C   UNL     1       2.228   3.733  19.345  0.00  0.00    +0.000 C 
ATOM     21  C   UNL     1       2.268   2.251  19.008  0.00  0.00    +0.000 C 
ATOM     22  C   UNL     1       3.712   2.093  18.563  0.00  0.00    +0.000 C 
BRANCH  21  23
ATOM     23  O   UNL     1       1.313   1.880  18.026  0.00  0.00    +0.000 OA
ATOM     24  H   UNL     1       1.599   2.221  17.160  0.00  0.00    +0.000 HD
ENDBRANCH  21  23
BRANCH  22  25
ATOM     25  O   UNL     1       4.156   0.738  18.615  0.00  0.00    +0.000 OA
ATOM     26  H   UNL     1       4.861   0.662  19.281  0.00  0.00    +0.000 HD
ENDBRANCH  22  25
BRANCH  20  27
ATOM     27  C   UNL     1       1.113   4.081  20.328  0.00  0.00    +0.000 C 
BRANCH  27  28
ATOM     28  O   UNL     1       0.422   2.896  20.721  0.00  0.00    +0.000 OA
ATOM     29  H   UNL     1      -0.522   3.061  20.534  0.00  0.00    +0.000 HD
ENDBRANCH  27  28
ENDBRANCH  20  27
ENDBRANCH  17  18
ENDBRANCH  16  17
ENDBRANCH   3  16
TORSDOF 14
ENDMDL
