MODEL 1
REMARK VINA RESULT:     -10.1      0.000      0.000
REMARK  Name = 
REMARK  2 active torsions:
REMARK  status: ('A' for Active; 'I' for Inactive)
REMARK    1  A    between atoms: C_4  and  C_5
REMARK    2  A    between atoms: C_8  and  C_9
REMARK                            x       y       z     vdW  Elec       q    Type
REMARK                         _______ _______ _______ _____ _____    ______ ____
ROOT
ATOM      1  O   UNL     1       4.227   2.256  20.359  0.00  0.00    +0.000 OA
ATOM      2  C   UNL     1       4.468   2.917  19.354  0.00  0.00    +0.000 C 
ATOM      3  C   UNL     1       3.615   2.801  18.097  0.00  0.00    +0.000 C 
ATOM      4  C   UNL     1       3.585   4.163  17.402  0.00  0.00    +0.000 C 
ATOM      5  C   UNL     1       5.047   4.350  17.006  0.00  0.00    +0.000 A 
ATOM      6  C   UNL     1       5.946   4.382  18.082  0.00  0.00    +0.000 A 
ATOM      7  C   UNL     1       7.221   4.893  17.928  0.00  0.00    +0.000 A 
ATOM      8  C   UNL     1       7.678   5.154  16.638  0.00  0.00    +0.000 A 
ATOM      9  C   UNL     1       6.896   4.814  15.519  0.00  0.00    +0.000 A 
ATOM     10  C   UNL     1       7.459   4.807  14.232  0.00  0.00    +0.000 A 
ATOM     11  C   UNL     1       6.735   4.336  13.136  0.00  0.00    +0.000 A 
ATOM     12  C   UNL     1       5.418   3.926  13.299  0.00  0.00    +0.000 A 
ATOM     13  C   UNL     1       4.818   3.997  14.558  0.00  0.00    +0.000 A 
ATOM     14  C   UNL     1       5.549   4.413  15.693  0.00  0.00    +0.000 A 
ATOM     15  N   UNL     1       5.552   3.765  19.280  0.00  0.00    +0.000 N 
ATOM     16  H   UNL     1       6.162   3.774  20.087  0.00  0.00    +0.000 HD
ENDROOT
BRANCH   4  17
ATOM     17  C   UNL     1       3.059   5.334  18.274  0.00  0.00    +0.000 A 
ATOM     18  C   UNL     1       2.360   5.085  19.468  0.00  0.00    +0.000 A 
ATOM     19  C   UNL     1       1.749   6.125  20.192  0.00  0.00    +0.000 A 
ATOM     20  C   UNL     1       1.838   7.466  19.783  0.00  0.00    +0.000 A 
ATOM     21  C   UNL     1       2.583   7.711  18.619  0.00  0.00    +0.000 A 
ATOM     22  C   UNL     1       3.188   6.676  17.886  0.00  0.00    +0.000 A 
BRANCH  20  23
ATOM     23  C   UNL     1       1.185   8.570  20.539  0.00  0.00    +0.000 A 
ATOM     24  C   UNL     1       0.695   9.721  19.892  0.00  0.00    +0.000 A 
ATOM     25  C   UNL     1       0.062  10.750  20.600  0.00  0.00    +0.000 A 
ATOM     26  C   UNL     1      -0.107  10.651  21.976  0.00  0.00    +0.000 A 
ATOM     27  C   UNL     1       0.370   9.530  22.646  0.00  0.00    +0.000 A 
ATOM     28  C   UNL     1       1.014   8.509  21.936  0.00  0.00    +0.000 A 
ENDBRANCH  20  23
ENDBRANCH   4  17
TORSDOF 2
ENDMDL
MODEL 2
REMARK VINA RESULT:      -9.7      0.256      1.327
REMARK  Name = 
REMARK  2 active torsions:
REMARK  status: ('A' for Active; 'I' for Inactive)
REMARK    1  A    between atoms: C_4  and  C_5
REMARK    2  A    between atoms: C_8  and  C_9
REMARK                            x       y       z     vdW  Elec       q    Type
REMARK                         _______ _______ _______ _____ _____    ______ ____
ROOT
ATOM      1  O   UNL     1       4.269   2.402  20.504  0.00  0.00    +0.000 OA
ATOM      2  C   UNL     1       4.484   3.035  19.476  0.00  0.00    +0.000 C 
ATOM      3  C   UNL     1       3.730   2.744  18.185  0.00  0.00    +0.000 C 
ATOM      4  C   UNL     1       3.569   4.052  17.410  0.00  0.00    +0.000 C 
ATOM      5  C   UNL     1       5.017   4.406  17.080  0.00  0.00    +0.000 A 
ATOM      6  C   UNL     1       5.838   4.610  18.199  0.00  0.00    +0.000 A 
ATOM      7  C   UNL     1       7.046   5.273  18.082  0.00  0.00    +0.000 A 
ATOM      8  C   UNL     1       7.542   5.523  16.804  0.00  0.00    +0.000 A 
ATOM      9  C   UNL     1       6.879   5.026  15.668  0.00  0.00    +0.000 A 
ATOM     10  C   UNL     1       7.514   5.025  14.415  0.00  0.00    +0.000 A 
ATOM     11  C   UNL     1       6.923   4.407  13.313  0.00  0.00    +0.000 A 
ATOM     12  C   UNL     1       5.660   3.839  13.430  0.00  0.00    +0.000 A 
ATOM     13  C   UNL     1       4.982   3.898  14.649  0.00  0.00    +0.000 A 
ATOM     14  C   UNL     1       5.585   4.464  15.794  0.00  0.00    +0.000 A 
ATOM     15  N   UNL     1       5.455   4.011  19.409  0.00  0.00    +0.000 N 
ATOM     16  H   UNL     1       6.010   4.142  20.245  0.00  0.00    +0.000 HD
ENDROOT
BRANCH   4  17
ATOM     17  C   UNL     1       2.848   5.190  18.181  0.00  0.00    +0.000 A 
ATOM     18  C   UNL     1       2.996   6.530  17.789  0.00  0.00    +0.000 A 
ATOM     19  C   UNL     1       2.472   7.583  18.562  0.00  0.00    +0.000 A 
ATOM     20  C   UNL     1       1.745   7.349  19.740  0.00  0.00    +0.000 A 
ATOM     21  C   UNL     1       1.557   6.004  20.096  0.00  0.00    +0.000 A 
ATOM     22  C   UNL     1       2.085   4.948  19.333  0.00  0.00    +0.000 A 
BRANCH  20  23
ATOM     23  C   UNL     1       1.197   8.458  20.568  0.00  0.00    +0.000 A 
ATOM     24  C   UNL     1       1.052   8.339  21.963  0.00  0.00    +0.000 A 
ATOM     25  C   UNL     1       0.557   9.390  22.745  0.00  0.00    +0.000 A 
ATOM     26  C   UNL     1       0.202  10.596  22.152  0.00  0.00    +0.000 A 
ATOM     27  C   UNL     1       0.328  10.745  20.775  0.00  0.00    +0.000 A 
ATOM     28  C   UNL     1       0.811   9.686  19.995  0.00  0.00    +0.000 A 
ENDBRANCH  20  23
ENDBRANCH   4  17
TORSDOF 2
ENDMDL
MODEL 3
REMARK VINA RESULT:      -9.1      0.870      1.353
REMARK  Name = 
REMARK  2 active torsions:
REMARK  status: ('A' for Active; 'I' for Inactive)
REMARK    1  A    between atoms: C_4  and  C_5
REMARK    2  A    between atoms: C_8  and  C_9
REMARK                            x       y       z     vdW  Elec       q    Type
REMARK                         _______ _______ _______ _____ _____    ______ ____
ROOT
ATOM      1  O   UNL     1       3.207   2.473  20.923  0.00  0.00    +0.000 OA
ATOM      2  C   UNL     1       3.632   3.145  19.989  0.00  0.00    +0.000 C 
ATOM      3  C   UNL     1       3.050   3.024  18.587  0.00  0.00    +0.000 C 
ATOM      4  C   UNL     1       3.134   4.391  17.905  0.00  0.00    +0.000 C 
ATOM      5  C   UNL     1       4.642   4.606  17.810  0.00  0.00    +0.000 A 
ATOM      6  C   UNL     1       5.307   4.645  19.044  0.00  0.00    +0.000 A 
ATOM      7  C   UNL     1       6.577   5.179  19.151  0.00  0.00    +0.000 A 
ATOM      8  C   UNL     1       7.278   5.458  17.979  0.00  0.00    +0.000 A 
ATOM      9  C   UNL     1       6.743   5.113  16.725  0.00  0.00    +0.000 A 
ATOM     10  C   UNL     1       7.551   5.126  15.577  0.00  0.00    +0.000 A 
ATOM     11  C   UNL     1       7.071   4.650  14.357  0.00  0.00    +0.000 A 
ATOM     12  C   UNL     1       5.755   4.217  14.251  0.00  0.00    +0.000 A 
ATOM     13  C   UNL     1       4.914   4.268  15.364  0.00  0.00    +0.000 A 
ATOM     14  C   UNL     1       5.395   4.687  16.624  0.00  0.00    +0.000 A 
ATOM     15  N   UNL     1       4.693   4.013  20.138  0.00  0.00    +0.000 N 
ATOM     16  H   UNL     1       5.130   4.026  21.049  0.00  0.00    +0.000 HD
ENDROOT
BRANCH   4  17
ATOM     17  C   UNL     1       2.423   5.546  18.659  0.00  0.00    +0.000 A 
ATOM     18  C   UNL     1       2.559   6.877  18.229  0.00  0.00    +0.000 A 
ATOM     19  C   UNL     1       2.046   7.948  18.983  0.00  0.00    +0.000 A 
ATOM     20  C   UNL     1       1.340   7.742  20.180  0.00  0.00    +0.000 A 
ATOM     21  C   UNL     1       1.162   6.407  20.573  0.00  0.00    +0.000 A 
ATOM     22  C   UNL     1       1.680   5.333  19.829  0.00  0.00    +0.000 A 
BRANCH  20  23
ATOM     23  C   UNL     1       0.802   8.872  20.987  0.00  0.00    +0.000 A 
ATOM     24  C   UNL     1       0.855  10.202  20.526  0.00  0.00    +0.000 A 
ATOM     25  C   UNL     1       0.330  11.262  21.275  0.00  0.00    +0.000 A 
ATOM     26  C   UNL     1      -0.272  11.020  22.504  0.00  0.00    +0.000 A 
ATOM     27  C   UNL     1      -0.336   9.719  22.990  0.00  0.00    +0.000 A 
ATOM     28  C   UNL     1       0.202   8.663  22.244  0.00  0.00    +0.000 A 
ENDBRANCH  20  23
ENDBRANCH   4  17
TORSDOF 2
ENDMDL
MODEL 4
REMARK VINA RESULT:      -8.9      1.037      1.545
REMARK  Name = 
REMARK  2 active torsions:
REMARK  status: ('A' for Active; 'I' for Inactive)
REMARK    1  A    between atoms: C_4  and  C_5
REMARK    2  A    between atoms: C_8  and  C_9
REMARK                            x       y       z     vdW  Elec       q    Type
REMARK                         _______ _______ _______ _____ _____    ______ ____
ROOT
ATOM      1  O   UNL     1       2.626   2.903  20.868  0.00  0.00    +0.000 OA
ATOM      2  C   UNL     1       3.186   3.516  19.966  0.00  0.00    +0.000 C 
ATOM      3  C   UNL     1       2.614   3.563  18.555  0.00  0.00    +0.000 C 
ATOM      4  C   UNL     1       2.969   4.913  17.930  0.00  0.00    +0.000 C 
ATOM      5  C   UNL     1       4.491   4.839  17.855  0.00  0.00    +0.000 A 
ATOM      6  C   UNL     1       5.132   4.702  19.095  0.00  0.00    +0.000 A 
ATOM      7  C   UNL     1       6.479   4.978  19.233  0.00  0.00    +0.000 A 
ATOM      8  C   UNL     1       7.238   5.162  18.079  0.00  0.00    +0.000 A 
ATOM      9  C   UNL     1       6.666   4.974  16.808  0.00  0.00    +0.000 A 
ATOM     10  C   UNL     1       7.480   4.875  15.668  0.00  0.00    +0.000 A 
ATOM     11  C   UNL     1       6.935   4.548  14.426  0.00  0.00    +0.000 A 
ATOM     12  C   UNL     1       5.563   4.380  14.292  0.00  0.00    +0.000 A 
ATOM     13  C   UNL     1       4.731   4.549  15.400  0.00  0.00    +0.000 A 
ATOM     14  C   UNL     1       5.264   4.819  16.680  0.00  0.00    +0.000 A 
ATOM     15  N   UNL     1       4.392   4.158  20.157  0.00  0.00    +0.000 N 
ATOM     16  H   UNL     1       4.808   4.052  21.072  0.00  0.00    +0.000 HD
ENDROOT
BRANCH   4  17
ATOM     17  C   UNL     1       2.480   6.154  18.725  0.00  0.00    +0.000 A 
ATOM     18  C   UNL     1       2.013   6.025  20.044  0.00  0.00    +0.000 A 
ATOM     19  C   UNL     1       1.430   7.109  20.725  0.00  0.00    +0.000 A 
ATOM     20  C   UNL     1       1.320   8.381  20.140  0.00  0.00    +0.000 A 
ATOM     21  C   UNL     1       1.838   8.514  18.842  0.00  0.00    +0.000 A 
ATOM     22  C   UNL     1       2.413   7.433  18.153  0.00  0.00    +0.000 A 
BRANCH  20  23
ATOM     23  C   UNL     1       0.695   9.530  20.852  0.00  0.00    +0.000 A 
ATOM     24  C   UNL     1      -0.011   9.357  22.059  0.00  0.00    +0.000 A 
ATOM     25  C   UNL     1      -0.580  10.439  22.741  0.00  0.00    +0.000 A 
ATOM     26  C   UNL     1      -0.449  11.729  22.239  0.00  0.00    +0.000 A 
ATOM     27  C   UNL     1       0.237  11.933  21.047  0.00  0.00    +0.000 A 
ATOM     28  C   UNL     1       0.794  10.846  20.361  0.00  0.00    +0.000 A 
ENDBRANCH  20  23
ENDBRANCH   4  17
TORSDOF 2
ENDMDL
MODEL 5
REMARK VINA RESULT:      -8.4      1.306      1.815
REMARK  Name = 
REMARK  2 active torsions:
REMARK  status: ('A' for Active; 'I' for Inactive)
REMARK    1  A    between atoms: C_4  and  C_5
REMARK    2  A    between atoms: C_8  and  C_9
REMARK                            x       y       z     vdW  Elec       q    Type
REMARK                         _______ _______ _______ _____ _____    ______ ____
ROOT
ATOM      1  O   UNL     1       2.327   3.787  21.006  0.00  0.00    +0.000 OA
ATOM      2  C   UNL     1       2.947   4.267  20.063  0.00  0.00    +0.000 C 
ATOM      3  C   UNL     1       2.419   4.190  18.636  0.00  0.00    +0.000 C 
ATOM      4  C   UNL     1       2.870   5.442  17.882  0.00  0.00    +0.000 C 
ATOM      5  C   UNL     1       4.387   5.277  17.870  0.00  0.00    +0.000 A 
ATOM      6  C   UNL     1       4.982   5.243  19.139  0.00  0.00    +0.000 A 
ATOM      7  C   UNL     1       6.339   5.459  19.294  0.00  0.00    +0.000 A 
ATOM      8  C   UNL     1       7.141   5.474  18.154  0.00  0.00    +0.000 A 
ATOM      9  C   UNL     1       6.596   5.179  16.891  0.00  0.00    +0.000 A 
ATOM     10  C   UNL     1       7.435   4.912  15.797  0.00  0.00    +0.000 A 
ATOM     11  C   UNL     1       6.910   4.481  14.580  0.00  0.00    +0.000 A 
ATOM     12  C   UNL     1       5.534   4.373  14.416  0.00  0.00    +0.000 A 
ATOM     13  C   UNL     1       4.681   4.707  15.470  0.00  0.00    +0.000 A 
ATOM     14  C   UNL     1       5.191   5.087  16.731  0.00  0.00    +0.000 A 
ATOM     15  N   UNL     1       4.181   4.859  20.226  0.00  0.00    +0.000 N 
ATOM     16  H   UNL     1       4.564   4.832  21.162  0.00  0.00    +0.000 HD
ENDROOT
BRANCH   4  17
ATOM     17  C   UNL     1       2.430   6.787  18.521  0.00  0.00    +0.000 A 
ATOM     18  C   UNL     1       1.979   6.838  19.850  0.00  0.00    +0.000 A 
ATOM     19  C   UNL     1       1.438   8.017  20.397  0.00  0.00    +0.000 A 
ATOM     20  C   UNL     1       1.359   9.209  19.659  0.00  0.00    +0.000 A 
ATOM     21  C   UNL     1       1.862   9.162  18.349  0.00  0.00    +0.000 A 
ATOM     22  C   UNL     1       2.394   7.986  17.794  0.00  0.00    +0.000 A 
BRANCH  20  23
ATOM     23  C   UNL     1       0.780  10.457  20.228  0.00  0.00    +0.000 A 
ATOM     24  C   UNL     1       0.875  11.691  19.556  0.00  0.00    +0.000 A 
ATOM     25  C   UNL     1       0.312  12.860  20.080  0.00  0.00    +0.000 A 
ATOM     26  C   UNL     1      -0.373  12.826  21.290  0.00  0.00    +0.000 A 
ATOM     27  C   UNL     1      -0.481  11.625  21.981  0.00  0.00    +0.000 A 
ATOM     28  C   UNL     1       0.095  10.459  21.459  0.00  0.00    +0.000 A 
ENDBRANCH  20  23
ENDBRANCH   4  17
TORSDOF 2
ENDMDL
MODEL 6
REMARK VINA RESULT:      -8.2      4.038      6.729
REMARK  Name = 
REMARK  2 active torsions:
REMARK  status: ('A' for Active; 'I' for Inactive)
REMARK    1  A    between atoms: C_4  and  C_5
REMARK    2  A    between atoms: C_8  and  C_9
REMARK                            x       y       z     vdW  Elec       q    Type
REMARK                         _______ _______ _______ _____ _____    ______ ____
ROOT
ATOM      1  O   UNL     1       5.787   5.903  14.366  0.00  0.00    +0.000 OA
ATOM      2  C   UNL     1       5.521   5.703  15.547  0.00  0.00    +0.000 C 
ATOM      3  C   UNL     1       6.149   4.553  16.324  0.00  0.00    +0.000 C 
ATOM      4  C   UNL     1       6.314   4.984  17.782  0.00  0.00    +0.000 C 
ATOM      5  C   UNL     1       4.865   5.163  18.226  0.00  0.00    +0.000 A 
ATOM      6  C   UNL     1       4.151   6.139  17.517  0.00  0.00    +0.000 A 
ATOM      7  C   UNL     1       2.976   6.666  18.019  0.00  0.00    +0.000 A 
ATOM      8  C   UNL     1       2.389   6.043  19.118  0.00  0.00    +0.000 A 
ATOM      9  C   UNL     1       2.928   4.853  19.641  0.00  0.00    +0.000 A 
ATOM     10  C   UNL     1       2.192   4.076  20.549  0.00  0.00    +0.000 A 
ATOM     11  C   UNL     1       2.656   2.827  20.962  0.00  0.00    +0.000 A 
ATOM     12  C   UNL     1       3.892   2.366  20.526  0.00  0.00    +0.000 A 
ATOM     13  C   UNL     1       4.671   3.159  19.682  0.00  0.00    +0.000 A 
ATOM     14  C   UNL     1       4.196   4.400  19.201  0.00  0.00    +0.000 A 
ATOM     15  N   UNL     1       4.601   6.471  16.229  0.00  0.00    +0.000 N 
ATOM     16  H   UNL     1       4.126   7.178  15.685  0.00  0.00    +0.000 HD
ENDROOT
BRANCH   4  17
ATOM     17  C   UNL     1       7.156   6.270  17.996  0.00  0.00    +0.000 A 
ATOM     18  C   UNL     1       8.028   6.385  19.092  0.00  0.00    +0.000 A 
ATOM     19  C   UNL     1       8.685   7.594  19.385  0.00  0.00    +0.000 A 
ATOM     20  C   UNL     1       8.536   8.734  18.577  0.00  0.00    +0.000 A 
ATOM     21  C   UNL     1       7.705   8.594  17.454  0.00  0.00    +0.000 A 
ATOM     22  C   UNL     1       7.039   7.391  17.162  0.00  0.00    +0.000 A 
BRANCH  20  23
ATOM     23  C   UNL     1       9.221  10.019  18.886  0.00  0.00    +0.000 A 
ATOM     24  C   UNL     1       9.653  10.890  17.867  0.00  0.00    +0.000 A 
ATOM     25  C   UNL     1      10.278  12.109  18.157  0.00  0.00    +0.000 A 
ATOM     26  C   UNL     1      10.479  12.496  19.477  0.00  0.00    +0.000 A 
ATOM     27  C   UNL     1      10.068  11.657  20.506  0.00  0.00    +0.000 A 
ATOM     28  C   UNL     1       9.455  10.432  20.212  0.00  0.00    +0.000 A 
ENDBRANCH  20  23
ENDBRANCH   4  17
TORSDOF 2
ENDMDL
MODEL 7
REMARK VINA RESULT:      -7.9      4.083      9.995
REMARK  Name = 
REMARK  2 active torsions:
REMARK  status: ('A' for Active; 'I' for Inactive)
REMARK    1  A    between atoms: C_4  and  C_5
REMARK    2  A    between atoms: C_8  and  C_9
REMARK                            x       y       z     vdW  Elec       q    Type
REMARK                         _______ _______ _______ _____ _____    ______ ____
ROOT
ATOM      1  O   UNL     1       2.453  13.764  19.277  0.00  0.00    +0.000 OA
ATOM      2  C   UNL     1       1.382  13.259  19.595  0.00  0.00    +0.000 C 
ATOM      3  C   UNL     1       0.289  12.989  18.568  0.00  0.00    +0.000 C 
ATOM      4  C   UNL     1      -0.480  11.737  18.993  0.00  0.00    +0.000 C 
ATOM      5  C   UNL     1      -1.118  12.186  20.304  0.00  0.00    +0.000 A 
ATOM      6  C   UNL     1      -0.205  12.550  21.305  0.00  0.00    +0.000 A 
ATOM      7  C   UNL     1      -0.596  12.628  22.629  0.00  0.00    +0.000 A 
ATOM      8  C   UNL     1      -1.957  12.574  22.922  0.00  0.00    +0.000 A 
ATOM      9  C   UNL     1      -2.911  12.539  21.888  0.00  0.00    +0.000 A 
ATOM     10  C   UNL     1      -4.268  12.772  22.163  0.00  0.00    +0.000 A 
ATOM     11  C   UNL     1      -5.200  12.880  21.130  0.00  0.00    +0.000 A 
ATOM     12  C   UNL     1      -4.801  12.692  19.812  0.00  0.00    +0.000 A 
ATOM     13  C   UNL     1      -3.469  12.384  19.527  0.00  0.00    +0.000 A 
ATOM     14  C   UNL     1      -2.496  12.330  20.550  0.00  0.00    +0.000 A 
ATOM     15  N   UNL     1       1.079  12.952  20.904  0.00  0.00    +0.000 N 
ATOM     16  H   UNL     1       1.774  13.211  21.591  0.00  0.00    +0.000 HD
ENDROOT
BRANCH   4  17
ATOM     17  C   UNL     1       0.387  10.461  19.169  0.00  0.00    +0.000 A 
ATOM     18  C   UNL     1       1.229  10.016  18.136  0.00  0.00    +0.000 A 
ATOM     19  C   UNL     1       1.907   8.786  18.219  0.00  0.00    +0.000 A 
ATOM     20  C   UNL     1       1.809   7.960  19.351  0.00  0.00    +0.000 A 
ATOM     21  C   UNL     1       1.008   8.438  20.400  0.00  0.00    +0.000 A 
ATOM     22  C   UNL     1       0.321   9.661  20.319  0.00  0.00    +0.000 A 
BRANCH  20  23
ATOM     23  C   UNL     1       2.516   6.653  19.442  0.00  0.00    +0.000 A 
ATOM     24  C   UNL     1       2.110   5.654  20.348  0.00  0.00    +0.000 A 
ATOM     25  C   UNL     1       2.760   4.416  20.419  0.00  0.00    +0.000 A 
ATOM     26  C   UNL     1       3.831   4.139  19.577  0.00  0.00    +0.000 A 
ATOM     27  C   UNL     1       4.260   5.106  18.675  0.00  0.00    +0.000 A 
ATOM     28  C   UNL     1       3.615   6.348  18.616  0.00  0.00    +0.000 A 
ENDBRANCH  20  23
ENDBRANCH   4  17
TORSDOF 2
ENDMDL
MODEL 8
REMARK VINA RESULT:      -7.8      4.176     10.265
REMARK  Name = 
REMARK  2 active torsions:
REMARK  status: ('A' for Active; 'I' for Inactive)
REMARK    1  A    between atoms: C_4  and  C_5
REMARK    2  A    between atoms: C_8  and  C_9
REMARK                            x       y       z     vdW  Elec       q    Type
REMARK                         _______ _______ _______ _____ _____    ______ ____
ROOT
ATOM      1  O   UNL     1       1.949  14.322  19.182  0.00  0.00    +0.000 OA
ATOM      2  C   UNL     1       0.943  13.733  19.563  0.00  0.00    +0.000 C 
ATOM      3  C   UNL     1      -0.215  13.435  18.618  0.00  0.00    +0.000 C 
ATOM      4  C   UNL     1      -0.863  12.117  19.044  0.00  0.00    +0.000 C 
ATOM      5  C   UNL     1      -1.413  12.464  20.424  0.00  0.00    +0.000 A 
ATOM      6  C   UNL     1      -0.442  12.844  21.362  0.00  0.00    +0.000 A 
ATOM      7  C   UNL     1      -0.721  12.837  22.716  0.00  0.00    +0.000 A 
ATOM      8  C   UNL     1      -2.046  12.679  23.118  0.00  0.00    +0.000 A 
ATOM      9  C   UNL     1      -3.082  12.625  22.167  0.00  0.00    +0.000 A 
ATOM     10  C   UNL     1      -4.422  12.754  22.565  0.00  0.00    +0.000 A 
ATOM     11  C   UNL     1      -5.444  12.845  21.620  0.00  0.00    +0.000 A 
ATOM     12  C   UNL     1      -5.149  12.742  20.266  0.00  0.00    +0.000 A 
ATOM     13  C   UNL     1      -3.830  12.538  19.856  0.00  0.00    +0.000 A 
ATOM     14  C   UNL     1      -2.771  12.504  20.790  0.00  0.00    +0.000 A 
ATOM     15  N   UNL     1       0.774  13.348  20.876  0.00  0.00    +0.000 N 
ATOM     16  H   UNL     1       1.508  13.623  21.515  0.00  0.00    +0.000 HD
ENDROOT
BRANCH   4  17
ATOM     17  C   UNL     1       0.095  10.896  19.083  0.00  0.00    +0.000 A 
ATOM     18  C   UNL     1       0.871  10.555  17.963  0.00  0.00    +0.000 A 
ATOM     19  C   UNL     1       1.630   9.371  17.928  0.00  0.00    +0.000 A 
ATOM     20  C   UNL     1       1.682   8.491  19.022  0.00  0.00    +0.000 A 
ATOM     21  C   UNL     1       0.945   8.866  20.156  0.00  0.00    +0.000 A 
ATOM     22  C   UNL     1       0.178  10.043  20.193  0.00  0.00    +0.000 A 
BRANCH  20  23
ATOM     23  C   UNL     1       2.475   7.231  18.988  0.00  0.00    +0.000 A 
ATOM     24  C   UNL     1       3.420   6.978  17.975  0.00  0.00    +0.000 A 
ATOM     25  C   UNL     1       4.182   5.804  17.954  0.00  0.00    +0.000 A 
ATOM     26  C   UNL     1       4.028   4.853  18.956  0.00  0.00    +0.000 A 
ATOM     27  C   UNL     1       3.100   5.070  19.969  0.00  0.00    +0.000 A 
ATOM     28  C   UNL     1       2.330   6.240  19.978  0.00  0.00    +0.000 A 
ENDBRANCH  20  23
ENDBRANCH   4  17
TORSDOF 2
ENDMDL
MODEL 9
REMARK VINA RESULT:      -7.6      1.512      2.441
REMARK  Name = 
REMARK  2 active torsions:
REMARK  status: ('A' for Active; 'I' for Inactive)
REMARK    1  A    between atoms: C_4  and  C_5
REMARK    2  A    between atoms: C_8  and  C_9
REMARK                            x       y       z     vdW  Elec       q    Type
REMARK                         _______ _______ _______ _____ _____    ______ ____
ROOT
ATOM      1  O   UNL     1       1.007   3.960  20.098  0.00  0.00    +0.000 OA
ATOM      2  C   UNL     1       1.917   4.457  19.443  0.00  0.00    +0.000 C 
ATOM      3  C   UNL     1       1.783   4.704  17.946  0.00  0.00    +0.000 C 
ATOM      4  C   UNL     1       2.590   5.952  17.585  0.00  0.00    +0.000 C 
ATOM      5  C   UNL     1       4.017   5.510  17.898  0.00  0.00    +0.000 A 
ATOM      6  C   UNL     1       4.242   5.167  19.239  0.00  0.00    +0.000 A 
ATOM      7  C   UNL     1       5.525   5.098  19.749  0.00  0.00    +0.000 A 
ATOM      8  C   UNL     1       6.595   5.140  18.858  0.00  0.00    +0.000 A 
ATOM      9  C   UNL     1       6.370   5.154  17.469  0.00  0.00    +0.000 A 
ATOM     10  C   UNL     1       7.423   4.909  16.574  0.00  0.00    +0.000 A 
ATOM     11  C   UNL     1       7.185   4.780  15.206  0.00  0.00    +0.000 A 
ATOM     12  C   UNL     1       5.902   4.959  14.704  0.00  0.00    +0.000 A 
ATOM     13  C   UNL     1       4.855   5.278  15.572  0.00  0.00    +0.000 A 
ATOM     14  C   UNL     1       5.060   5.354  16.967  0.00  0.00    +0.000 A 
ATOM     15  N   UNL     1       3.135   4.774  20.008  0.00  0.00    +0.000 N 
ATOM     16  H   UNL     1       3.247   4.530  20.983  0.00  0.00    +0.000 HD
ENDROOT
BRANCH   4  17
ATOM     17  C   UNL     1       2.191   7.239  18.356  0.00  0.00    +0.000 A 
ATOM     18  C   UNL     1       2.111   7.241  19.759  0.00  0.00    +0.000 A 
ATOM     19  C   UNL     1       1.610   8.350  20.465  0.00  0.00    +0.000 A 
ATOM     20  C   UNL     1       1.202   9.523  19.809  0.00  0.00    +0.000 A 
ATOM     21  C   UNL     1       1.336   9.532  18.412  0.00  0.00    +0.000 A 
ATOM     22  C   UNL     1       1.827   8.425  17.701  0.00  0.00    +0.000 A 
BRANCH  20  23
ATOM     23  C   UNL     1       0.661  10.697  20.549  0.00  0.00    +0.000 A 
ATOM     24  C   UNL     1      -0.446  10.582  21.412  0.00  0.00    +0.000 A 
ATOM     25  C   UNL     1      -0.942  11.681  22.125  0.00  0.00    +0.000 A 
ATOM     26  C   UNL     1      -0.335  12.926  22.002  0.00  0.00    +0.000 A 
ATOM     27  C   UNL     1       0.757  13.074  21.154  0.00  0.00    +0.000 A 
ATOM     28  C   UNL     1       1.242  11.975  20.433  0.00  0.00    +0.000 A 
ENDBRANCH  20  23
ENDBRANCH   4  17
TORSDOF 2
ENDMDL
