MODEL 1
REMARK VINA RESULT:      -7.1      0.000      0.000
REMARK  Name = 
REMARK  11 active torsions:
REMARK  status: ('A' for Active; 'I' for Inactive)
REMARK    1  A    between atoms: C_1  and  C_2
REMARK    2  A    between atoms: C_4  and  C_5
REMARK    3  A    between atoms: C_5  and  C_6
REMARK    4  A    between atoms: C_5  and  C_7
REMARK    5  A    between atoms: C_10  and  C_11
REMARK    6  A    between atoms: C_16  and  C_17
REMARK    7  A    between atoms: C_16  and  O_18
REMARK    8  A    between atoms: C_19  and  C_20
REMARK    9  A    between atoms: C_20  and  C_21
REMARK   10  A    between atoms: C_21  and  C_22
REMARK   11  A    between atoms: C_21  and  C_23
REMARK                            x       y       z     vdW  Elec       q    Type
REMARK                         _______ _______ _______ _____ _____    ______ ____
ROOT
ATOM      1  C   UNL     1       1.542   9.257  18.441  0.00  0.00    +0.000 C 
ATOM      2  O   UNL     1       1.783   9.635  17.293  0.00  0.00    +0.000 OA
ATOM      3  N   UNL     1       1.978   7.999  18.895  0.00  0.00    +0.000 N 
ATOM      4  C   UNL     1       1.795   7.501  20.243  0.00  0.00    +0.000 C 
ATOM      5  C   UNL     1       1.650   5.996  20.308  0.00  0.00    +0.000 C 
ATOM      6  C   UNL     1       2.808   5.259  19.617  0.00  0.00    +0.000 C 
ATOM      7  C   UNL     1       2.520   3.764  19.793  0.00  0.00    +0.000 C 
ATOM      8  C   UNL     1       2.924   5.749  18.144  0.00  0.00    +0.000 C 
ATOM      9  C   UNL     1       3.006   7.309  18.107  0.00  0.00    +0.000 C 
ENDROOT
BRANCH   1  16
ATOM     10  C   UNL     1      -1.517  10.103  18.003  0.00  0.00    +0.000 C 
ATOM     11  C   UNL     1      -0.615  10.541  19.109  0.00  0.00    +0.000 A 
ATOM     12  N   UNL     1      -1.264  11.330  20.009  0.00  0.00    +0.000 NA
ATOM     13  C   UNL     1      -0.610  11.723  21.116  0.00  0.00    +0.000 A 
ATOM     14  N   UNL     1       0.670  11.415  21.369  0.00  0.00    +0.000 NA
ATOM     15  C   UNL     1       1.295  10.649  20.437  0.00  0.00    +0.000 A 
ATOM     16  C   UNL     1       0.719  10.192  19.257  0.00  0.00    +0.000 A 
BRANCH  13  17
ATOM     17  C   UNL     1      -1.422  12.486  22.138  0.00  0.00    +0.000 C 
ATOM     18  C   UNL     1      -1.888  11.565  23.266  0.00  0.00    +0.000 C 
ATOM     19  C   UNL     1      -0.664  13.695  22.677  0.00  0.00    +0.000 C 
ENDBRANCH  13  17
ENDBRANCH   1  16
BRANCH   6  20
ATOM     20  O   UNL     1       4.030   5.562  20.298  0.00  0.00    +0.000 OA
ATOM     21  H   UNL     1       3.853   5.598  21.254  0.00  0.00    +0.000 HD
ENDBRANCH   6  20
BRANCH   8  22
ATOM     22  C   UNL     1       4.147   5.210  17.339  0.00  0.00    +0.000 C 
BRANCH  22  23
ATOM     23  C   UNL     1       5.176   6.215  16.786  0.00  0.00    +0.000 C 
ATOM     24  C   UNL     1       6.489   6.208  17.564  0.00  0.00    +0.000 C 
ATOM     25  C   UNL     1       5.443   5.938  15.302  0.00  0.00    +0.000 C 
ENDBRANCH  22  23
ENDBRANCH   8  22
TORSDOF 5
ENDMDL
MODEL 2
REMARK VINA RESULT:      -6.9      2.009      8.043
REMARK  Name = 
REMARK  11 active torsions:
REMARK  status: ('A' for Active; 'I' for Inactive)
REMARK    1  A    between atoms: C_1  and  C_2
REMARK    2  A    between atoms: C_4  and  C_5
REMARK    3  A    between atoms: C_5  and  C_6
REMARK    4  A    between atoms: C_5  and  C_7
REMARK    5  A    between atoms: C_10  and  C_11
REMARK    6  A    between atoms: C_16  and  C_17
REMARK    7  A    between atoms: C_16  and  O_18
REMARK    8  A    between atoms: C_19  and  C_20
REMARK    9  A    between atoms: C_20  and  C_21
REMARK   10  A    between atoms: C_21  and  C_22
REMARK   11  A    between atoms: C_21  and  C_23
REMARK                            x       y       z     vdW  Elec       q    Type
REMARK                         _______ _______ _______ _____ _____    ______ ____
ROOT
ATOM      1  C   UNL     1       2.570   6.665  19.699  0.00  0.00    +0.000 C 
ATOM      2  O   UNL     1       2.433   6.198  20.832  0.00  0.00    +0.000 OA
ATOM      3  N   UNL     1       1.996   7.902  19.353  0.00  0.00    +0.000 N 
ATOM      4  C   UNL     1       2.158   8.555  18.070  0.00  0.00    +0.000 C 
ATOM      5  C   UNL     1       0.963   9.392  17.672  0.00  0.00    +0.000 C 
ATOM      6  C   UNL     1       0.573  10.417  18.749  0.00  0.00    +0.000 C 
ATOM      7  C   UNL     1      -0.625  11.187  18.183  0.00  0.00    +0.000 C 
ATOM      8  C   UNL     1       0.318   9.678  20.094  0.00  0.00    +0.000 C 
ATOM      9  C   UNL     1       1.542   8.772  20.444  0.00  0.00    +0.000 C 
ENDROOT
BRANCH   1  16
ATOM     10  C   UNL     1       1.404   4.420  17.733  0.00  0.00    +0.000 C 
ATOM     11  C   UNL     1       2.828   4.853  17.855  0.00  0.00    +0.000 A 
ATOM     12  N   UNL     1       3.629   4.218  16.957  0.00  0.00    +0.000 NA
ATOM     13  C   UNL     1       4.923   4.574  16.877  0.00  0.00    +0.000 A 
ATOM     14  N   UNL     1       5.486   5.500  17.667  0.00  0.00    +0.000 NA
ATOM     15  C   UNL     1       4.664   6.095  18.570  0.00  0.00    +0.000 A 
ATOM     16  C   UNL     1       3.315   5.801  18.742  0.00  0.00    +0.000 A 
BRANCH  13  17
ATOM     17  C   UNL     1       5.729   3.928  15.774  0.00  0.00    +0.000 C 
ATOM     18  C   UNL     1       5.209   4.344  14.398  0.00  0.00    +0.000 C 
ATOM     19  C   UNL     1       7.221   4.211  15.921  0.00  0.00    +0.000 C 
ENDBRANCH  13  17
ENDBRANCH   1  16
BRANCH   6  20
ATOM     20  O   UNL     1       1.652  11.340  18.930  0.00  0.00    +0.000 OA
ATOM     21  H   UNL     1       2.384  10.880  19.376  0.00  0.00    +0.000 HD
ENDBRANCH   6  20
BRANCH   8  22
ATOM     22  C   UNL     1       0.056  10.587  21.335  0.00  0.00    +0.000 C 
BRANCH  22  23
ATOM     23  C   UNL     1      -0.759  10.022  22.514  0.00  0.00    +0.000 C 
ATOM     24  C   UNL     1       0.114   9.359  23.576  0.00  0.00    +0.000 C 
ATOM     25  C   UNL     1      -1.609  11.129  23.148  0.00  0.00    +0.000 C 
ENDBRANCH  22  23
ENDBRANCH   8  22
TORSDOF 5
ENDMDL
MODEL 3
REMARK VINA RESULT:      -6.8      2.097      7.774
REMARK  Name = 
REMARK  11 active torsions:
REMARK  status: ('A' for Active; 'I' for Inactive)
REMARK    1  A    between atoms: C_1  and  C_2
REMARK    2  A    between atoms: C_4  and  C_5
REMARK    3  A    between atoms: C_5  and  C_6
REMARK    4  A    between atoms: C_5  and  C_7
REMARK    5  A    between atoms: C_10  and  C_11
REMARK    6  A    between atoms: C_16  and  C_17
REMARK    7  A    between atoms: C_16  and  O_18
REMARK    8  A    between atoms: C_19  and  C_20
REMARK    9  A    between atoms: C_20  and  C_21
REMARK   10  A    between atoms: C_21  and  C_22
REMARK   11  A    between atoms: C_21  and  C_23
REMARK                            x       y       z     vdW  Elec       q    Type
REMARK                         _______ _______ _______ _____ _____    ______ ____
ROOT
ATOM      1  C   UNL     1       2.404   8.239  18.084  0.00  0.00    +0.000 C 
ATOM      2  O   UNL     1       2.266   9.024  17.145  0.00  0.00    +0.000 OA
ATOM      3  N   UNL     1       1.696   8.416  19.287  0.00  0.00    +0.000 N 
ATOM      4  C   UNL     1       1.748   7.510  20.416  0.00  0.00    +0.000 C 
ATOM      5  C   UNL     1       1.556   8.204  21.747  0.00  0.00    +0.000 C 
ATOM      6  C   UNL     1       0.272   9.046  21.795  0.00  0.00    +0.000 C 
ATOM      7  C   UNL     1       0.219   9.653  23.201  0.00  0.00    +0.000 C 
ATOM      8  C   UNL     1       0.284  10.071  20.624  0.00  0.00    +0.000 C 
ATOM      9  C   UNL     1       0.550   9.332  19.273  0.00  0.00    +0.000 C 
ENDROOT
BRANCH   1  16
ATOM     10  C   UNL     1       1.903   5.078  17.926  0.00  0.00    +0.000 C 
ATOM     11  C   UNL     1       3.205   5.789  17.754  0.00  0.00    +0.000 A 
ATOM     12  N   UNL     1       4.213   4.930  17.440  0.00  0.00    +0.000 NA
ATOM     13  C   UNL     1       5.428   5.433  17.157  0.00  0.00    +0.000 A 
ATOM     14  N   UNL     1       5.718   6.741  17.206  0.00  0.00    +0.000 NA
ATOM     15  C   UNL     1       4.695   7.567  17.549  0.00  0.00    +0.000 A 
ATOM     16  C   UNL     1       3.404   7.157  17.865  0.00  0.00    +0.000 A 
BRANCH  13  17
ATOM     17  C   UNL     1       6.470   4.443  16.689  0.00  0.00    +0.000 C 
ATOM     18  C   UNL     1       6.808   4.659  15.215  0.00  0.00    +0.000 C 
ATOM     19  C   UNL     1       7.719   4.478  17.564  0.00  0.00    +0.000 C 
ENDBRANCH  13  17
ENDBRANCH   1  16
BRANCH   6  20
ATOM     20  O   UNL     1      -0.861   8.185  21.638  0.00  0.00    +0.000 OA
ATOM     21  H   UNL     1      -1.414   8.248  22.436  0.00  0.00    +0.000 HD
ENDBRANCH   6  20
BRANCH   8  22
ATOM     22  C   UNL     1      -1.018  10.909  20.435  0.00  0.00    +0.000 C 
BRANCH  22  23
ATOM     23  C   UNL     1      -1.054  12.359  20.955  0.00  0.00    +0.000 C 
ATOM     24  C   UNL     1      -1.922  12.523  22.200  0.00  0.00    +0.000 C 
ATOM     25  C   UNL     1       0.369  12.855  21.239  0.00  0.00    +0.000 C 
ENDBRANCH  22  23
ENDBRANCH   8  22
TORSDOF 5
ENDMDL
MODEL 4
REMARK VINA RESULT:      -6.8      1.843      2.634
REMARK  Name = 
REMARK  11 active torsions:
REMARK  status: ('A' for Active; 'I' for Inactive)
REMARK    1  A    between atoms: C_1  and  C_2
REMARK    2  A    between atoms: C_4  and  C_5
REMARK    3  A    between atoms: C_5  and  C_6
REMARK    4  A    between atoms: C_5  and  C_7
REMARK    5  A    between atoms: C_10  and  C_11
REMARK    6  A    between atoms: C_16  and  C_17
REMARK    7  A    between atoms: C_16  and  O_18
REMARK    8  A    between atoms: C_19  and  C_20
REMARK    9  A    between atoms: C_20  and  C_21
REMARK   10  A    between atoms: C_21  and  C_22
REMARK   11  A    between atoms: C_21  and  C_23
REMARK                            x       y       z     vdW  Elec       q    Type
REMARK                         _______ _______ _______ _____ _____    ______ ____
ROOT
ATOM      1  C   UNL     1       2.870   7.392  18.107  0.00  0.00    +0.000 C 
ATOM      2  O   UNL     1       3.118   7.989  17.058  0.00  0.00    +0.000 OA
ATOM      3  N   UNL     1       3.242   6.046  18.278  0.00  0.00    +0.000 N 
ATOM      4  C   UNL     1       3.048   5.286  19.496  0.00  0.00    +0.000 C 
ATOM      5  C   UNL     1       2.821   3.811  19.249  0.00  0.00    +0.000 C 
ATOM      6  C   UNL     1       3.929   3.177  18.392  0.00  0.00    +0.000 C 
ATOM      7  C   UNL     1       3.562   1.695  18.259  0.00  0.00    +0.000 C 
ATOM      8  C   UNL     1       4.054   3.958  17.052  0.00  0.00    +0.000 C 
ATOM      9  C   UNL     1       4.221   5.485  17.340  0.00  0.00    +0.000 C 
ENDROOT
BRANCH   1  16
ATOM     10  C   UNL     1       1.490  10.263  17.763  0.00  0.00    +0.000 C 
ATOM     11  C   UNL     1       1.471   9.399  18.981  0.00  0.00    +0.000 A 
ATOM     12  N   UNL     1       0.715   9.941  19.974  0.00  0.00    +0.000 NA
ATOM     13  C   UNL     1       0.520   9.233  21.100  0.00  0.00    +0.000 A 
ATOM     14  N   UNL     1       1.065   8.028  21.321  0.00  0.00    +0.000 NA
ATOM     15  C   UNL     1       1.837   7.529  20.320  0.00  0.00    +0.000 A 
ATOM     16  C   UNL     1       2.109   8.175  19.119  0.00  0.00    +0.000 A 
BRANCH  13  17
ATOM     17  C   UNL     1      -0.434   9.829  22.111  0.00  0.00    +0.000 C 
ATOM     18  C   UNL     1      -0.010   9.479  23.537  0.00  0.00    +0.000 C 
ATOM     19  C   UNL     1      -0.590  11.334  21.924  0.00  0.00    +0.000 C 
ENDBRANCH  13  17
ENDBRANCH   1  16
BRANCH   6  20
ATOM     20  O   UNL     1       5.174   3.267  19.093  0.00  0.00    +0.000 OA
ATOM     21  H   UNL     1       5.018   3.700  19.951  0.00  0.00    +0.000 HD
ENDBRANCH   6  20
BRANCH   8  22
ATOM     22  C   UNL     1       5.236   3.539  16.124  0.00  0.00    +0.000 C 
BRANCH  22  23
ATOM     23  C   UNL     1       5.773   4.554  15.097  0.00  0.00    +0.000 C 
ATOM     24  C   UNL     1       7.210   4.984  15.384  0.00  0.00    +0.000 C 
ATOM     25  C   UNL     1       5.670   3.980  13.680  0.00  0.00    +0.000 C 
ENDBRANCH  22  23
ENDBRANCH   8  22
TORSDOF 5
ENDMDL
MODEL 5
REMARK VINA RESULT:      -6.7      1.680      2.565
REMARK  Name = 
REMARK  11 active torsions:
REMARK  status: ('A' for Active; 'I' for Inactive)
REMARK    1  A    between atoms: C_1  and  C_2
REMARK    2  A    between atoms: C_4  and  C_5
REMARK    3  A    between atoms: C_5  and  C_6
REMARK    4  A    between atoms: C_5  and  C_7
REMARK    5  A    between atoms: C_10  and  C_11
REMARK    6  A    between atoms: C_16  and  C_17
REMARK    7  A    between atoms: C_16  and  O_18
REMARK    8  A    between atoms: C_19  and  C_20
REMARK    9  A    between atoms: C_20  and  C_21
REMARK   10  A    between atoms: C_21  and  C_22
REMARK   11  A    between atoms: C_21  and  C_23
REMARK                            x       y       z     vdW  Elec       q    Type
REMARK                         _______ _______ _______ _____ _____    ______ ____
ROOT
ATOM      1  C   UNL     1       2.621   7.843  18.230  0.00  0.00    +0.000 C 
ATOM      2  O   UNL     1       3.465   8.489  17.608  0.00  0.00    +0.000 OA
ATOM      3  N   UNL     1       2.697   6.440  18.309  0.00  0.00    +0.000 N 
ATOM      4  C   UNL     1       1.788   5.606  19.068  0.00  0.00    +0.000 C 
ATOM      5  C   UNL     1       1.586   4.236  18.460  0.00  0.00    +0.000 C 
ATOM      6  C   UNL     1       2.911   3.497  18.213  0.00  0.00    +0.000 C 
ATOM      7  C   UNL     1       2.529   2.134  17.624  0.00  0.00    +0.000 C 
ATOM      8  C   UNL     1       3.832   4.377  17.320  0.00  0.00    +0.000 C 
ATOM      9  C   UNL     1       3.968   5.805  17.940  0.00  0.00    +0.000 C 
ENDROOT
BRANCH   1  16
ATOM     10  C   UNL     1       1.779   8.101  21.311  0.00  0.00    +0.000 C 
ATOM     11  C   UNL     1       1.156   8.803  20.150  0.00  0.00    +0.000 A 
ATOM     12  N   UNL     1       0.180   9.665  20.543  0.00  0.00    +0.000 NA
ATOM     13  C   UNL     1      -0.408  10.445  19.619  0.00  0.00    +0.000 A 
ATOM     14  N   UNL     1      -0.115  10.393  18.312  0.00  0.00    +0.000 NA
ATOM     15  C   UNL     1       0.845   9.501  17.950  0.00  0.00    +0.000 A 
ATOM     16  C   UNL     1       1.513   8.645  18.818  0.00  0.00    +0.000 A 
BRANCH  13  17
ATOM     17  C   UNL     1      -1.389  11.472  20.134  0.00  0.00    +0.000 C 
ATOM     18  C   UNL     1      -0.662  12.635  20.810  0.00  0.00    +0.000 C 
ATOM     19  C   UNL     1      -2.330  11.959  19.037  0.00  0.00    +0.000 C 
ENDBRANCH  13  17
ENDBRANCH   1  16
BRANCH   6  20
ATOM     20  O   UNL     1       3.564   3.274  19.467  0.00  0.00    +0.000 OA
ATOM     21  H   UNL     1       2.912   3.378  20.181  0.00  0.00    +0.000 HD
ENDBRANCH   6  20
BRANCH   8  22
ATOM     22  C   UNL     1       5.280   3.841  17.094  0.00  0.00    +0.000 C 
BRANCH  22  23
ATOM     23  C   UNL     1       6.407   4.845  16.785  0.00  0.00    +0.000 C 
ATOM     24  C   UNL     1       7.612   4.689  17.709  0.00  0.00    +0.000 C 
ATOM     25  C   UNL     1       6.847   4.715  15.323  0.00  0.00    +0.000 C 
ENDBRANCH  22  23
ENDBRANCH   8  22
TORSDOF 5
ENDMDL
MODEL 6
REMARK VINA RESULT:      -6.7      2.004      3.484
REMARK  Name = 
REMARK  11 active torsions:
REMARK  status: ('A' for Active; 'I' for Inactive)
REMARK    1  A    between atoms: C_1  and  C_2
REMARK    2  A    between atoms: C_4  and  C_5
REMARK    3  A    between atoms: C_5  and  C_6
REMARK    4  A    between atoms: C_5  and  C_7
REMARK    5  A    between atoms: C_10  and  C_11
REMARK    6  A    between atoms: C_16  and  C_17
REMARK    7  A    between atoms: C_16  and  O_18
REMARK    8  A    between atoms: C_19  and  C_20
REMARK    9  A    between atoms: C_20  and  C_21
REMARK   10  A    between atoms: C_21  and  C_22
REMARK   11  A    between atoms: C_21  and  C_23
REMARK                            x       y       z     vdW  Elec       q    Type
REMARK                         _______ _______ _______ _____ _____    ______ ____
ROOT
ATOM      1  C   UNL     1       1.100   8.893  20.343  0.00  0.00    +0.000 C 
ATOM      2  O   UNL     1       0.738   8.635  21.492  0.00  0.00    +0.000 OA
ATOM      3  N   UNL     1       1.835   7.959  19.589  0.00  0.00    +0.000 N 
ATOM      4  C   UNL     1       2.246   8.151  18.213  0.00  0.00    +0.000 C 
ATOM      5  C   UNL     1       3.546   7.455  17.876  0.00  0.00    +0.000 C 
ATOM      6  C   UNL     1       3.524   5.959  18.224  0.00  0.00    +0.000 C 
ATOM      7  C   UNL     1       4.891   5.408  17.803  0.00  0.00    +0.000 C 
ATOM      8  C   UNL     1       3.168   5.786  19.729  0.00  0.00    +0.000 C 
ATOM      9  C   UNL     1       1.857   6.569  20.059  0.00  0.00    +0.000 C 
ENDROOT
BRANCH   1  16
ATOM     10  C   UNL     1      -0.999   9.727  18.071  0.00  0.00    +0.000 C 
ATOM     11  C   UNL     1      -0.173  10.646  18.909  0.00  0.00    +0.000 A 
ATOM     12  N   UNL     1      -0.453  11.953  18.654  0.00  0.00    +0.000 NA
ATOM     13  C   UNL     1       0.140  12.900  19.401  0.00  0.00    +0.000 A 
ATOM     14  N   UNL     1       1.031  12.633  20.366  0.00  0.00    +0.000 NA
ATOM     15  C   UNL     1       1.308  11.319  20.576  0.00  0.00    +0.000 A 
ATOM     16  C   UNL     1       0.759  10.260  19.861  0.00  0.00    +0.000 A 
BRANCH  13  17
ATOM     17  C   UNL     1      -0.310  14.323  19.159  0.00  0.00    +0.000 C 
ATOM     18  C   UNL     1      -1.226  14.808  20.282  0.00  0.00    +0.000 C 
ATOM     19  C   UNL     1       0.872  15.265  18.953  0.00  0.00    +0.000 C 
ENDBRANCH  13  17
ENDBRANCH   1  16
BRANCH   6  20
ATOM     20  O   UNL     1       2.519   5.309  17.438  0.00  0.00    +0.000 OA
ATOM     21  H   UNL     1       2.410   4.398  17.762  0.00  0.00    +0.000 HD
ENDBRANCH   6  20
BRANCH   8  22
ATOM     22  C   UNL     1       2.955   4.319  20.217  0.00  0.00    +0.000 C 
BRANCH  22  23
ATOM     23  C   UNL     1       1.521   3.821  20.478  0.00  0.00    +0.000 C 
ATOM     24  C   UNL     1       0.925   3.074  19.288  0.00  0.00    +0.000 C 
ATOM     25  C   UNL     1       1.487   2.932  21.727  0.00  0.00    +0.000 C 
ENDBRANCH  22  23
ENDBRANCH   8  22
TORSDOF 5
ENDMDL
MODEL 7
REMARK VINA RESULT:      -6.6      0.910      1.216
REMARK  Name = 
REMARK  11 active torsions:
REMARK  status: ('A' for Active; 'I' for Inactive)
REMARK    1  A    between atoms: C_1  and  C_2
REMARK    2  A    between atoms: C_4  and  C_5
REMARK    3  A    between atoms: C_5  and  C_6
REMARK    4  A    between atoms: C_5  and  C_7
REMARK    5  A    between atoms: C_10  and  C_11
REMARK    6  A    between atoms: C_16  and  C_17
REMARK    7  A    between atoms: C_16  and  O_18
REMARK    8  A    between atoms: C_19  and  C_20
REMARK    9  A    between atoms: C_20  and  C_21
REMARK   10  A    between atoms: C_21  and  C_22
REMARK   11  A    between atoms: C_21  and  C_23
REMARK                            x       y       z     vdW  Elec       q    Type
REMARK                         _______ _______ _______ _____ _____    ______ ____
ROOT
ATOM      1  C   UNL     1       1.721   9.083  18.553  0.00  0.00    +0.000 C 
ATOM      2  O   UNL     1       1.846   9.431  17.377  0.00  0.00    +0.000 OA
ATOM      3  N   UNL     1       2.117   7.800  18.974  0.00  0.00    +0.000 N 
ATOM      4  C   UNL     1       2.065   7.330  20.343  0.00  0.00    +0.000 C 
ATOM      5  C   UNL     1       1.820   5.841  20.453  0.00  0.00    +0.000 C 
ATOM      6  C   UNL     1       2.829   5.014  19.640  0.00  0.00    +0.000 C 
ATOM      7  C   UNL     1       2.459   3.546  19.878  0.00  0.00    +0.000 C 
ATOM      8  C   UNL     1       2.799   5.480  18.156  0.00  0.00    +0.000 C 
ATOM      9  C   UNL     1       2.989   7.029  18.081  0.00  0.00    +0.000 C 
ENDROOT
BRANCH   1  16
ATOM     10  C   UNL     1       2.110  12.263  18.578  0.00  0.00    +0.000 C 
ATOM     11  C   UNL     1       1.196  11.465  19.448  0.00  0.00    +0.000 A 
ATOM     12  N   UNL     1       0.448  12.261  20.260  0.00  0.00    +0.000 NA
ATOM     13  C   UNL     1      -0.494  11.693  21.033  0.00  0.00    +0.000 A 
ATOM     14  N   UNL     1      -0.715  10.372  21.082  0.00  0.00    +0.000 NA
ATOM     15  C   UNL     1       0.068   9.605  20.279  0.00  0.00    +0.000 A 
ATOM     16  C   UNL     1       1.073  10.083  19.445  0.00  0.00    +0.000 A 
BRANCH  13  17
ATOM     17  C   UNL     1      -1.379  12.639  21.813  0.00  0.00    +0.000 C 
ATOM     18  C   UNL     1      -2.076  11.913  22.964  0.00  0.00    +0.000 C 
ATOM     19  C   UNL     1      -0.611  13.862  22.303  0.00  0.00    +0.000 C 
ENDBRANCH  13  17
ENDBRANCH   1  16
BRANCH   6  20
ATOM     20  O   UNL     1       4.144   5.232  20.163  0.00  0.00    +0.000 OA
ATOM     21  H   UNL     1       4.173   4.910  21.081  0.00  0.00    +0.000 HD
ENDBRANCH   6  20
BRANCH   8  22
ATOM     22  C   UNL     1       3.873   4.845  17.218  0.00  0.00    +0.000 C 
BRANCH  22  23
ATOM     23  C   UNL     1       5.154   5.642  16.905  0.00  0.00    +0.000 C 
ATOM     24  C   UNL     1       6.394   5.062  17.580  0.00  0.00    +0.000 C 
ATOM     25  C   UNL     1       5.370   5.723  15.390  0.00  0.00    +0.000 C 
ENDBRANCH  22  23
ENDBRANCH   8  22
TORSDOF 5
ENDMDL
MODEL 8
REMARK VINA RESULT:      -6.6      1.003      1.171
REMARK  Name = 
REMARK  11 active torsions:
REMARK  status: ('A' for Active; 'I' for Inactive)
REMARK    1  A    between atoms: C_1  and  C_2
REMARK    2  A    between atoms: C_4  and  C_5
REMARK    3  A    between atoms: C_5  and  C_6
REMARK    4  A    between atoms: C_5  and  C_7
REMARK    5  A    between atoms: C_10  and  C_11
REMARK    6  A    between atoms: C_16  and  C_17
REMARK    7  A    between atoms: C_16  and  O_18
REMARK    8  A    between atoms: C_19  and  C_20
REMARK    9  A    between atoms: C_20  and  C_21
REMARK   10  A    between atoms: C_21  and  C_22
REMARK   11  A    between atoms: C_21  and  C_23
REMARK                            x       y       z     vdW  Elec       q    Type
REMARK                         _______ _______ _______ _____ _____    ______ ____
ROOT
ATOM      1  C   UNL     1       1.977   8.512  18.327  0.00  0.00    +0.000 C 
ATOM      2  O   UNL     1       2.269   8.944  17.210  0.00  0.00    +0.000 OA
ATOM      3  N   UNL     1       2.311   7.198  18.703  0.00  0.00    +0.000 N 
ATOM      4  C   UNL     1       2.065   6.628  20.012  0.00  0.00    +0.000 C 
ATOM      5  C   UNL     1       1.809   5.137  19.975  0.00  0.00    +0.000 C 
ATOM      6  C   UNL     1       2.924   4.363  19.254  0.00  0.00    +0.000 C 
ATOM      7  C   UNL     1       2.525   2.885  19.327  0.00  0.00    +0.000 C 
ATOM      8  C   UNL     1       3.105   4.937  17.820  0.00  0.00    +0.000 C 
ATOM      9  C   UNL     1       3.302   6.486  17.888  0.00  0.00    +0.000 C 
ENDROOT
BRANCH   1  16
ATOM     10  C   UNL     1      -0.863   9.871  17.738  0.00  0.00    +0.000 C 
ATOM     11  C   UNL     1      -0.039  10.018  18.974  0.00  0.00    +0.000 A 
ATOM     12  N   UNL     1      -0.666  10.775  19.914  0.00  0.00    +0.000 NA
ATOM     13  C   UNL     1      -0.091  10.916  21.122  0.00  0.00    +0.000 A 
ATOM     14  N   UNL     1       1.096  10.383  21.444  0.00  0.00    +0.000 NA
ATOM     15  C   UNL     1       1.707   9.656  20.472  0.00  0.00    +0.000 A 
ATOM     16  C   UNL     1       1.208   9.449  19.191  0.00  0.00    +0.000 A 
BRANCH  13  17
ATOM     17  C   UNL     1      -0.897  11.657  22.164  0.00  0.00    +0.000 C 
ATOM     18  C   UNL     1      -2.059  12.415  21.523  0.00  0.00    +0.000 C 
ATOM     19  C   UNL     1      -1.376  10.730  23.277  0.00  0.00    +0.000 C 
ENDBRANCH  13  17
ENDBRANCH   1  16
BRANCH   6  20
ATOM     20  O   UNL     1       4.151   4.529  19.973  0.00  0.00    +0.000 OA
ATOM     21  H   UNL     1       4.021   4.225  20.888  0.00  0.00    +0.000 HD
ENDBRANCH   6  20
BRANCH   8  22
ATOM     22  C   UNL     1       4.302   4.363  17.000  0.00  0.00    +0.000 C 
BRANCH  22  23
ATOM     23  C   UNL     1       5.380   5.332  16.478  0.00  0.00    +0.000 C 
ATOM     24  C   UNL     1       6.710   5.193  17.214  0.00  0.00    +0.000 C 
ATOM     25  C   UNL     1       5.590   5.130  14.973  0.00  0.00    +0.000 C 
ENDBRANCH  22  23
ENDBRANCH   8  22
TORSDOF 5
ENDMDL
MODEL 9
REMARK VINA RESULT:      -6.6      1.903      8.075
REMARK  Name = 
REMARK  11 active torsions:
REMARK  status: ('A' for Active; 'I' for Inactive)
REMARK    1  A    between atoms: C_1  and  C_2
REMARK    2  A    between atoms: C_4  and  C_5
REMARK    3  A    between atoms: C_5  and  C_6
REMARK    4  A    between atoms: C_5  and  C_7
REMARK    5  A    between atoms: C_10  and  C_11
REMARK    6  A    between atoms: C_16  and  C_17
REMARK    7  A    between atoms: C_16  and  O_18
REMARK    8  A    between atoms: C_19  and  C_20
REMARK    9  A    between atoms: C_20  and  C_21
REMARK   10  A    between atoms: C_21  and  C_22
REMARK   11  A    between atoms: C_21  and  C_23
REMARK                            x       y       z     vdW  Elec       q    Type
REMARK                         _______ _______ _______ _____ _____    ______ ____
ROOT
ATOM      1  C   UNL     1       2.390   6.488  19.890  0.00  0.00    +0.000 C 
ATOM      2  O   UNL     1       2.141   5.927  20.959  0.00  0.00    +0.000 OA
ATOM      3  N   UNL     1       1.880   7.769  19.610  0.00  0.00    +0.000 N 
ATOM      4  C   UNL     1       2.172   8.528  18.410  0.00  0.00    +0.000 C 
ATOM      5  C   UNL     1       1.037   9.435  17.988  0.00  0.00    +0.000 C 
ATOM      6  C   UNL     1       0.578  10.373  19.117  0.00  0.00    +0.000 C 
ATOM      7  C   UNL     1      -0.545  11.229  18.522  0.00  0.00    +0.000 C 
ATOM      8  C   UNL     1       0.186   9.526  20.362  0.00  0.00    +0.000 C 
ATOM      9  C   UNL     1       1.352   8.553  20.732  0.00  0.00    +0.000 C 
ENDROOT
BRANCH   1  16
ATOM     10  C   UNL     1       1.350   4.446  17.651  0.00  0.00    +0.000 C 
ATOM     11  C   UNL     1       2.766   4.831  17.925  0.00  0.00    +0.000 A 
ATOM     12  N   UNL     1       3.628   4.253  17.043  0.00  0.00    +0.000 NA
ATOM     13  C   UNL     1       4.930   4.582  17.100  0.00  0.00    +0.000 A 
ATOM     14  N   UNL     1       5.443   5.424  18.008  0.00  0.00    +0.000 NA
ATOM     15  C   UNL     1       4.559   5.962  18.890  0.00  0.00    +0.000 A 
ATOM     16  C   UNL     1       3.196   5.689  18.926  0.00  0.00    +0.000 A 
BRANCH  13  17
ATOM     17  C   UNL     1       5.813   4.010  16.014  0.00  0.00    +0.000 C 
ATOM     18  C   UNL     1       5.330   4.442  14.630  0.00  0.00    +0.000 C 
ATOM     19  C   UNL     1       7.281   4.362  16.233  0.00  0.00    +0.000 C 
ENDBRANCH  13  17
ENDBRANCH   1  16
BRANCH   6  20
ATOM     20  O   UNL     1       1.659  11.240  19.474  0.00  0.00    +0.000 OA
ATOM     21  H   UNL     1       2.117  11.520  18.662  0.00  0.00    +0.000 HD
ENDBRANCH   6  20
BRANCH   8  22
ATOM     22  C   UNL     1      -0.162  10.329  21.653  0.00  0.00    +0.000 C 
BRANCH  22  23
ATOM     23  C   UNL     1      -0.956  11.643  21.521  0.00  0.00    +0.000 C 
ATOM     24  C   UNL     1      -2.156  11.709  22.463  0.00  0.00    +0.000 C 
ATOM     25  C   UNL     1      -0.035  12.845  21.759  0.00  0.00    +0.000 C 
ENDBRANCH  22  23
ENDBRANCH   8  22
TORSDOF 5
ENDMDL
