MODEL 1
REMARK VINA RESULT:      -6.1      0.000      0.000
REMARK  Name = 
REMARK  2 active torsions:
REMARK  status: ('A' for Active; 'I' for Inactive)
REMARK    1  A    between atoms: N_1  and  C_2
REMARK    2  A    between atoms: C_10  and  O_11
REMARK                            x       y       z     vdW  Elec       q    Type
REMARK                         _______ _______ _______ _____ _____    ______ ____
ROOT
ATOM      1  C   UNL     1       2.253   2.615  20.606  0.00  0.00    +0.000 C 
ATOM      2  C   UNL     1       0.902   3.328  20.425  0.00  0.00    +0.000 C 
ATOM      3  C   UNL     1       1.214   4.813  20.206  0.00  0.00    +0.000 C 
ATOM      4  C   UNL     1       2.592   4.756  19.641  0.00  0.00    +0.000 A 
ATOM      5  C   UNL     1       3.313   5.794  19.042  0.00  0.00    +0.000 A 
ATOM      6 CL   UNL     1       2.591   7.374  18.786  0.00  0.00    +0.000 Cl
ATOM      7  C   UNL     1       4.640   5.555  18.651  0.00  0.00    +0.000 A 
ATOM      8  C   UNL     1       5.235   4.301  18.883  0.00  0.00    +0.000 A 
ATOM      9  C   UNL     1       4.504   3.275  19.508  0.00  0.00    +0.000 A 
ATOM     10  C   UNL     1       3.177   3.523  19.866  0.00  0.00    +0.000 A 
ENDROOT
BRANCH   1  11
ATOM     11  N   UNL     1       2.666   2.531  22.009  0.00  0.00    +0.000 NA
ATOM     12  H   UNL     1       2.317   3.374  22.518  0.00  0.00    +0.000 HD
ATOM     13  H   UNL     1       3.709   2.498  22.086  0.00  0.00    +0.000 HD
ENDBRANCH   1  11
BRANCH   9  14
ATOM     14  O   UNL     1       5.066   2.076  19.763  0.00  0.00    +0.000 OA
ATOM     15  H   UNL     1       4.651   1.428  20.348  0.00  0.00    +0.000 HD
ENDBRANCH   9  14
TORSDOF 2
ENDMDL
MODEL 2
REMARK VINA RESULT:      -5.9      2.305      2.594
REMARK  Name = 
REMARK  2 active torsions:
REMARK  status: ('A' for Active; 'I' for Inactive)
REMARK    1  A    between atoms: N_1  and  C_2
REMARK    2  A    between atoms: C_10  and  O_11
REMARK                            x       y       z     vdW  Elec       q    Type
REMARK                         _______ _______ _______ _____ _____    ______ ____
ROOT
ATOM      1  C   UNL     1       3.301   2.623  17.657  0.00  0.00    +0.000 C 
ATOM      2  C   UNL     1       1.868   2.953  18.107  0.00  0.00    +0.000 C 
ATOM      3  C   UNL     1       1.887   4.400  18.611  0.00  0.00    +0.000 C 
ATOM      4  C   UNL     1       3.038   4.973  17.856  0.00  0.00    +0.000 A 
ATOM      5  C   UNL     1       3.400   6.319  17.742  0.00  0.00    +0.000 A 
ATOM      6 CL   UNL     1       2.416   7.588  18.451  0.00  0.00    +0.000 Cl
ATOM      7  C   UNL     1       4.579   6.643  17.052  0.00  0.00    +0.000 A 
ATOM      8  C   UNL     1       5.389   5.628  16.510  0.00  0.00    +0.000 A 
ATOM      9  C   UNL     1       5.022   4.278  16.654  0.00  0.00    +0.000 A 
ATOM     10  C   UNL     1       3.833   3.976  17.321  0.00  0.00    +0.000 A 
ENDROOT
BRANCH   1  11
ATOM     11  N   UNL     1       4.108   2.029  18.726  0.00  0.00    +0.000 NA
ATOM     12  H   UNL     1       4.551   2.794  19.283  0.00  0.00    +0.000 HD
ATOM     13  H   UNL     1       4.862   1.422  18.327  0.00  0.00    +0.000 HD
ENDBRANCH   1  11
BRANCH   9  14
ATOM     14  O   UNL     1       5.800   3.290  16.166  0.00  0.00    +0.000 OA
ATOM     15  H   UNL     1       5.622   2.358  16.349  0.00  0.00    +0.000 HD
ENDBRANCH   9  14
TORSDOF 2
ENDMDL
MODEL 3
REMARK VINA RESULT:      -5.8      2.314      3.058
REMARK  Name = 
REMARK  2 active torsions:
REMARK  status: ('A' for Active; 'I' for Inactive)
REMARK    1  A    between atoms: N_1  and  C_2
REMARK    2  A    between atoms: C_10  and  O_11
REMARK                            x       y       z     vdW  Elec       q    Type
REMARK                         _______ _______ _______ _____ _____    ______ ____
ROOT
ATOM      1  C   UNL     1       2.177   2.077  18.823  0.00  0.00    +0.000 C 
ATOM      2  C   UNL     1       3.270   2.121  17.741  0.00  0.00    +0.000 C 
ATOM      3  C   UNL     1       3.365   3.576  17.270  0.00  0.00    +0.000 C 
ATOM      4  C   UNL     1       2.871   4.319  18.464  0.00  0.00    +0.000 A 
ATOM      5  C   UNL     1       2.936   5.695  18.702  0.00  0.00    +0.000 A 
ATOM      6 CL   UNL     1       3.749   6.774  17.582  0.00  0.00    +0.000 Cl
ATOM      7  C   UNL     1       2.329   6.209  19.859  0.00  0.00    +0.000 A 
ATOM      8  C   UNL     1       1.647   5.353  20.745  0.00  0.00    +0.000 A 
ATOM      9  C   UNL     1       1.570   3.974  20.479  0.00  0.00    +0.000 A 
ATOM     10  C   UNL     1       2.202   3.478  19.336  0.00  0.00    +0.000 A 
ENDROOT
BRANCH   1  11
ATOM     11  N   UNL     1       0.851   1.778  18.277  0.00  0.00    +0.000 NA
ATOM     12  H   UNL     1       0.134   2.323  18.807  0.00  0.00    +0.000 HD
ATOM     13  H   UNL     1       0.635   0.758  18.369  0.00  0.00    +0.000 HD
ENDBRANCH   1  11
BRANCH   9  14
ATOM     14  O   UNL     1       0.898   3.143  21.301  0.00  0.00    +0.000 OA
ATOM     15  H   UNL     1       0.539   2.299  20.997  0.00  0.00    +0.000 HD
ENDBRANCH   9  14
TORSDOF 2
ENDMDL
MODEL 4
REMARK VINA RESULT:      -5.8      1.185      1.185
REMARK  Name = 
REMARK  2 active torsions:
REMARK  status: ('A' for Active; 'I' for Inactive)
REMARK    1  A    between atoms: N_1  and  C_2
REMARK    2  A    between atoms: C_10  and  O_11
REMARK                            x       y       z     vdW  Elec       q    Type
REMARK                         _______ _______ _______ _____ _____    ______ ____
ROOT
ATOM      1  C   UNL     1       2.205   2.640  20.390  0.00  0.00    +0.000 C 
ATOM      2  C   UNL     1       1.159   3.696  20.787  0.00  0.00    +0.000 C 
ATOM      3  C   UNL     1       1.677   5.044  20.273  0.00  0.00    +0.000 C 
ATOM      4  C   UNL     1       2.543   4.626  19.135  0.00  0.00    +0.000 A 
ATOM      5  C   UNL     1       3.109   5.440  18.149  0.00  0.00    +0.000 A 
ATOM      6 CL   UNL     1       2.766   7.160  18.082  0.00  0.00    +0.000 Cl
ATOM      7  C   UNL     1       3.973   4.857  17.208  0.00  0.00    +0.000 A 
ATOM      8  C   UNL     1       4.278   3.485  17.276  0.00  0.00    +0.000 A 
ATOM      9  C   UNL     1       3.718   2.685  18.288  0.00  0.00    +0.000 A 
ATOM     10  C   UNL     1       2.841   3.277  19.200  0.00  0.00    +0.000 A 
ENDROOT
BRANCH   1  11
ATOM     11  N   UNL     1       3.214   2.423  21.429  0.00  0.00    +0.000 NA
ATOM     12  H   UNL     1       3.067   1.480  21.855  0.00  0.00    +0.000 HD
ATOM     13  H   UNL     1       3.135   3.148  22.180  0.00  0.00    +0.000 HD
ENDBRANCH   1  11
BRANCH   9  14
ATOM     14  O   UNL     1       4.021   1.374  18.386  0.00  0.00    +0.000 OA
ATOM     15  H   UNL     1       4.828   1.003  18.006  0.00  0.00    +0.000 HD
ENDBRANCH   9  14
TORSDOF 2
ENDMDL
MODEL 5
REMARK VINA RESULT:      -5.7      3.002      3.709
REMARK  Name = 
REMARK  2 active torsions:
REMARK  status: ('A' for Active; 'I' for Inactive)
REMARK    1  A    between atoms: N_1  and  C_2
REMARK    2  A    between atoms: C_10  and  O_11
REMARK                            x       y       z     vdW  Elec       q    Type
REMARK                         _______ _______ _______ _____ _____    ______ ____
ROOT
ATOM      1  C   UNL     1       4.244   4.321  19.406  0.00  0.00    +0.000 C 
ATOM      2  C   UNL     1       3.267   3.492  18.555  0.00  0.00    +0.000 C 
ATOM      3  C   UNL     1       3.557   3.836  17.090  0.00  0.00    +0.000 C 
ATOM      4  C   UNL     1       4.984   4.262  17.152  0.00  0.00    +0.000 A 
ATOM      5  C   UNL     1       5.857   4.483  16.082  0.00  0.00    +0.000 A 
ATOM      6 CL   UNL     1       5.362   4.174  14.426  0.00  0.00    +0.000 Cl
ATOM      7  C   UNL     1       7.146   4.969  16.352  0.00  0.00    +0.000 A 
ATOM      8  C   UNL     1       7.538   5.250  17.675  0.00  0.00    +0.000 A 
ATOM      9  C   UNL     1       6.640   5.044  18.737  0.00  0.00    +0.000 A 
ATOM     10  C   UNL     1       5.371   4.536  18.451  0.00  0.00    +0.000 A 
ENDROOT
BRANCH   1  11
ATOM     11  N   UNL     1       3.688   5.616  19.808  0.00  0.00    +0.000 NA
ATOM     12  H   UNL     1       3.583   5.633  20.848  0.00  0.00    +0.000 HD
ATOM     13  H   UNL     1       2.748   5.767  19.372  0.00  0.00    +0.000 HD
ENDBRANCH   1  11
BRANCH   9  14
ATOM     14  O   UNL     1       6.988   5.334  20.008  0.00  0.00    +0.000 OA
ATOM     15  H   UNL     1       6.723   6.158  20.438  0.00  0.00    +0.000 HD
ENDBRANCH   9  14
TORSDOF 2
ENDMDL
MODEL 6
REMARK VINA RESULT:      -5.7      2.381      3.972
REMARK  Name = 
REMARK  2 active torsions:
REMARK  status: ('A' for Active; 'I' for Inactive)
REMARK    1  A    between atoms: N_1  and  C_2
REMARK    2  A    between atoms: C_10  and  O_11
REMARK                            x       y       z     vdW  Elec       q    Type
REMARK                         _______ _______ _______ _____ _____    ______ ____
ROOT
ATOM      1  C   UNL     1       6.252   4.649  17.277  0.00  0.00    +0.000 C 
ATOM      2  C   UNL     1       6.461   6.017  16.607  0.00  0.00    +0.000 C 
ATOM      3  C   UNL     1       5.099   6.719  16.604  0.00  0.00    +0.000 C 
ATOM      4  C   UNL     1       4.420   6.078  17.765  0.00  0.00    +0.000 A 
ATOM      5  C   UNL     1       3.229   6.471  18.384  0.00  0.00    +0.000 A 
ATOM      6 CL   UNL     1       2.383   7.926  17.884  0.00  0.00    +0.000 Cl
ATOM      7  C   UNL     1       2.710   5.674  19.416  0.00  0.00    +0.000 A 
ATOM      8  C   UNL     1       3.366   4.489  19.798  0.00  0.00    +0.000 A 
ATOM      9  C   UNL     1       4.550   4.095  19.150  0.00  0.00    +0.000 A 
ATOM     10  C   UNL     1       5.066   4.914  18.144  0.00  0.00    +0.000 A 
ENDROOT
BRANCH   1  11
ATOM     11  N   UNL     1       5.931   3.590  16.317  0.00  0.00    +0.000 NA
ATOM     12  H   UNL     1       5.674   4.026  15.403  0.00  0.00    +0.000 HD
ATOM     13  H   UNL     1       5.125   3.015  16.655  0.00  0.00    +0.000 HD
ENDBRANCH   1  11
BRANCH   9  14
ATOM     14  O   UNL     1       5.178   2.948  19.484  0.00  0.00    +0.000 OA
ATOM     15  H   UNL     1       4.997   2.113  19.033  0.00  0.00    +0.000 HD
ENDBRANCH   9  14
TORSDOF 2
ENDMDL
MODEL 7
REMARK VINA RESULT:      -5.6      2.236      2.463
REMARK  Name = 
REMARK  2 active torsions:
REMARK  status: ('A' for Active; 'I' for Inactive)
REMARK    1  A    between atoms: N_1  and  C_2
REMARK    2  A    between atoms: C_10  and  O_11
REMARK                            x       y       z     vdW  Elec       q    Type
REMARK                         _______ _______ _______ _____ _____    ______ ____
ROOT
ATOM      1  C   UNL     1       2.580   2.313  17.822  0.00  0.00    +0.000 C 
ATOM      2  C   UNL     1       1.296   2.200  18.662  0.00  0.00    +0.000 C 
ATOM      3  C   UNL     1       1.337   3.342  19.683  0.00  0.00    +0.000 C 
ATOM      4  C   UNL     1       2.197   4.343  18.990  0.00  0.00    +0.000 A 
ATOM      5  C   UNL     1       2.410   5.679  19.345  0.00  0.00    +0.000 A 
ATOM      6 CL   UNL     1       1.554   6.409  20.693  0.00  0.00    +0.000 Cl
ATOM      7  C   UNL     1       3.334   6.434  18.605  0.00  0.00    +0.000 A 
ATOM      8  C   UNL     1       4.048   5.845  17.545  0.00  0.00    +0.000 A 
ATOM      9  C   UNL     1       3.839   4.494  17.216  0.00  0.00    +0.000 A 
ATOM     10  C   UNL     1       2.897   3.765  17.946  0.00  0.00    +0.000 A 
ENDROOT
BRANCH   1  11
ATOM     11  N   UNL     1       3.686   1.521  18.367  0.00  0.00    +0.000 NA
ATOM     12  H   UNL     1       3.329   0.934  19.155  0.00  0.00    +0.000 HD
ATOM     13  H   UNL     1       4.446   2.144  18.727  0.00  0.00    +0.000 HD
ENDBRANCH   1  11
BRANCH   9  14
ATOM     14  O   UNL     1       4.534   3.905  16.220  0.00  0.00    +0.000 OA
ATOM     15  H   UNL     1       4.427   2.969  16.004  0.00  0.00    +0.000 HD
ENDBRANCH   9  14
TORSDOF 2
ENDMDL
MODEL 8
REMARK VINA RESULT:      -5.6      1.732      2.017
REMARK  Name = 
REMARK  2 active torsions:
REMARK  status: ('A' for Active; 'I' for Inactive)
REMARK    1  A    between atoms: N_1  and  C_2
REMARK    2  A    between atoms: C_10  and  O_11
REMARK                            x       y       z     vdW  Elec       q    Type
REMARK                         _______ _______ _______ _____ _____    ______ ____
ROOT
ATOM      1  C   UNL     1       3.731   2.524  19.136  0.00  0.00    +0.000 C 
ATOM      2  C   UNL     1       2.548   2.681  20.106  0.00  0.00    +0.000 C 
ATOM      3  C   UNL     1       2.452   4.173  20.446  0.00  0.00    +0.000 C 
ATOM      4  C   UNL     1       3.072   4.801  19.245  0.00  0.00    +0.000 A 
ATOM      5  C   UNL     1       3.066   6.154  18.890  0.00  0.00    +0.000 A 
ATOM      6 CL   UNL     1       2.187   7.340  19.839  0.00  0.00    +0.000 Cl
ATOM      7  C   UNL     1       3.788   6.556  17.755  0.00  0.00    +0.000 A 
ATOM      8  C   UNL     1       4.522   5.615  17.009  0.00  0.00    +0.000 A 
ATOM      9  C   UNL     1       4.537   4.262  17.393  0.00  0.00    +0.000 A 
ATOM     10  C   UNL     1       3.791   3.877  18.509  0.00  0.00    +0.000 A 
ENDROOT
BRANCH   1  11
ATOM     11  N   UNL     1       4.994   2.244  19.823  0.00  0.00    +0.000 NA
ATOM     12  H   UNL     1       5.622   3.076  19.735  0.00  0.00    +0.000 HD
ATOM     13  H   UNL     1       5.471   1.415  19.398  0.00  0.00    +0.000 HD
ENDBRANCH   1  11
BRANCH   9  14
ATOM     14  O   UNL     1       5.257   3.351  16.706  0.00  0.00    +0.000 OA
ATOM     15  H   UNL     1       4.838   2.653  16.185  0.00  0.00    +0.000 HD
ENDBRANCH   9  14
TORSDOF 2
ENDMDL
MODEL 9
REMARK VINA RESULT:      -5.6      1.941      2.248
REMARK  Name = 
REMARK  2 active torsions:
REMARK  status: ('A' for Active; 'I' for Inactive)
REMARK    1  A    between atoms: N_1  and  C_2
REMARK    2  A    between atoms: C_10  and  O_11
REMARK                            x       y       z     vdW  Elec       q    Type
REMARK                         _______ _______ _______ _____ _____    ______ ____
ROOT
ATOM      1  C   UNL     1       1.429   3.873  20.693  0.00  0.00    +0.000 C 
ATOM      2  C   UNL     1       1.459   5.406  20.825  0.00  0.00    +0.000 C 
ATOM      3  C   UNL     1       2.647   5.896  19.990  0.00  0.00    +0.000 C 
ATOM      4  C   UNL     1       2.786   4.805  18.984  0.00  0.00    +0.000 A 
ATOM      5  C   UNL     1       3.567   4.808  17.823  0.00  0.00    +0.000 A 
ATOM      6 CL   UNL     1       4.466   6.234  17.336  0.00  0.00    +0.000 Cl
ATOM      7  C   UNL     1       3.627   3.638  17.049  0.00  0.00    +0.000 A 
ATOM      8  C   UNL     1       2.935   2.481  17.452  0.00  0.00    +0.000 A 
ATOM      9  C   UNL     1       2.173   2.488  18.635  0.00  0.00    +0.000 A 
ATOM     10  C   UNL     1       2.103   3.669  19.378  0.00  0.00    +0.000 A 
ENDROOT
BRANCH   1  11
ATOM     11  N   UNL     1       2.191   3.198  21.746  0.00  0.00    +0.000 NA
ATOM     12  H   UNL     1       1.628   3.199  22.627  0.00  0.00    +0.000 HD
ATOM     13  H   UNL     1       3.096   3.693  21.924  0.00  0.00    +0.000 HD
ENDBRANCH   1  11
BRANCH   9  14
ATOM     14  O   UNL     1       1.525   1.381  19.051  0.00  0.00    +0.000 OA
ATOM     15  H   UNL     1       1.895   0.791  19.721  0.00  0.00    +0.000 HD
ENDBRANCH   9  14
TORSDOF 2
ENDMDL
