MODEL 1
REMARK VINA RESULT:      -7.3      0.000      0.000
REMARK  Name = 
REMARK  5 active torsions:
REMARK  status: ('A' for Active; 'I' for Inactive)
REMARK    1  A    between atoms: C_2  and  C_4
REMARK    2  A    between atoms: C_7  and  C_8
REMARK    3  A    between atoms: C_8  and  O_9
REMARK    4  A    between atoms: O_9  and  C_10
REMARK    5  A    between atoms: C_13  and  C_14
REMARK                            x       y       z     vdW  Elec       q    Type
REMARK                         _______ _______ _______ _____ _____    ______ ____
ROOT
ATOM      1  C   UNL     1       2.994   5.307  19.522  0.00  0.00    +0.000 C 
ENDROOT
BRANCH   1   5
ATOM      2  C   UNL     1       1.276   9.271  19.292  0.00  0.00    +0.000 A 
ATOM      3  C   UNL     1       1.262   8.568  20.502  0.00  0.00    +0.000 A 
ATOM      4  C   UNL     1       1.823   7.290  20.572  0.00  0.00    +0.000 A 
ATOM      5  C   UNL     1       2.395   6.694  19.437  0.00  0.00    +0.000 A 
ATOM      6  C   UNL     1       2.392   7.401  18.226  0.00  0.00    +0.000 A 
ATOM      7  C   UNL     1       1.830   8.680  18.152  0.00  0.00    +0.000 A 
BRANCH   2   9
ATOM      8  N   UNL     1       0.089  10.949  17.993  0.00  0.00    +0.000 N 
ATOM      9  C   UNL     1       0.698  10.635  19.177  0.00  0.00    +0.000 C 
ATOM     10  O   UNL     1       0.722  11.430  20.107  0.00  0.00    +0.000 OA
ATOM     11  H   UNL     1      -0.403  11.834  17.964  0.00  0.00    +0.000 HD
ATOM     12  H   UNL     1      -0.173  10.244  17.320  0.00  0.00    +0.000 HD
ENDBRANCH   2   9
ENDBRANCH   1   5
BRANCH   1  13
ATOM     13  O   UNL     1       4.415   5.443  19.556  0.00  0.00    +0.000 OA
BRANCH  13  14
ATOM     14  C   UNL     1       5.072   5.293  18.369  0.00  0.00    +0.000 A 
ATOM     15  C   UNL     1       4.504   4.362  17.499  0.00  0.00    +0.000 A 
ATOM     16  C   UNL     1       5.058   4.124  16.237  0.00  0.00    +0.000 A 
ATOM     17  C   UNL     1       6.188   4.838  15.822  0.00  0.00    +0.000 A 
ATOM     18  C   UNL     1       6.744   5.787  16.694  0.00  0.00    +0.000 A 
ATOM     19  C   UNL     1       6.191   6.014  17.961  0.00  0.00    +0.000 A 
BRANCH  17  20
ATOM     20  C   UNL     1       6.831   4.652  14.489  0.00  0.00    +0.000 C 
ATOM     21  N   UNL     1       6.438   3.600  13.709  0.00  0.00    +0.000 N 
ATOM     22  O   UNL     1       7.699   5.417  14.087  0.00  0.00    +0.000 OA
ATOM     23  H   UNL     1       5.729   2.925  13.946  0.00  0.00    +0.000 HD
ATOM     24  H   UNL     1       6.893   3.509  12.809  0.00  0.00    +0.000 HD
ENDBRANCH  17  20
ENDBRANCH  13  14
ENDBRANCH   1  13
TORSDOF 5
ENDMDL
MODEL 2
REMARK VINA RESULT:      -7.3      1.939      8.140
REMARK  Name = 
REMARK  5 active torsions:
REMARK  status: ('A' for Active; 'I' for Inactive)
REMARK    1  A    between atoms: C_2  and  C_4
REMARK    2  A    between atoms: C_7  and  C_8
REMARK    3  A    between atoms: C_8  and  O_9
REMARK    4  A    between atoms: O_9  and  C_10
REMARK    5  A    between atoms: C_13  and  C_14
REMARK                            x       y       z     vdW  Elec       q    Type
REMARK                         _______ _______ _______ _____ _____    ______ ____
ROOT
ATOM      1  C   UNL     1       2.750   6.370  18.601  0.00  0.00    +0.000 C 
ENDROOT
BRANCH   1   5
ATOM      2  C   UNL     1       5.664   5.118  15.659  0.00  0.00    +0.000 A 
ATOM      3  C   UNL     1       5.455   6.479  15.907  0.00  0.00    +0.000 A 
ATOM      4  C   UNL     1       4.516   6.878  16.862  0.00  0.00    +0.000 A 
ATOM      5  C   UNL     1       3.768   5.928  17.573  0.00  0.00    +0.000 A 
ATOM      6  C   UNL     1       3.974   4.566  17.308  0.00  0.00    +0.000 A 
ATOM      7  C   UNL     1       4.912   4.164  16.351  0.00  0.00    +0.000 A 
BRANCH   2   9
ATOM      8  N   UNL     1       6.334   3.532  13.941  0.00  0.00    +0.000 N 
ATOM      9  C   UNL     1       6.657   4.652  14.658  0.00  0.00    +0.000 C 
ATOM     10  O   UNL     1       7.698   5.260  14.446  0.00  0.00    +0.000 OA
ATOM     11  H   UNL     1       6.960   3.289  13.183  0.00  0.00    +0.000 HD
ATOM     12  H   UNL     1       5.392   3.170  13.907  0.00  0.00    +0.000 HD
ENDBRANCH   2   9
ENDBRANCH   1   5
BRANCH   1  13
ATOM     13  O   UNL     1       2.347   7.701  18.279  0.00  0.00    +0.000 OA
BRANCH  13  14
ATOM     14  C   UNL     1       1.677   8.390  19.248  0.00  0.00    +0.000 A 
ATOM     15  C   UNL     1       1.691   7.790  20.508  0.00  0.00    +0.000 A 
ATOM     16  C   UNL     1       1.065   8.398  21.602  0.00  0.00    +0.000 A 
ATOM     17  C   UNL     1       0.430   9.635  21.447  0.00  0.00    +0.000 A 
ATOM     18  C   UNL     1       0.436  10.243  20.182  0.00  0.00    +0.000 A 
ATOM     19  C   UNL     1       1.055   9.625  19.087  0.00  0.00    +0.000 A 
BRANCH  17  20
ATOM     20  C   UNL     1      -0.249  10.352  22.564  0.00  0.00    +0.000 C 
ATOM     21  N   UNL     1      -1.093  11.386  22.268  0.00  0.00    +0.000 N 
ATOM     22  O   UNL     1      -0.061  10.036  23.733  0.00  0.00    +0.000 OA
ATOM     23  H   UNL     1      -1.318  11.713  21.343  0.00  0.00    +0.000 HD
ATOM     24  H   UNL     1      -1.539  11.846  23.052  0.00  0.00    +0.000 HD
ENDBRANCH  17  20
ENDBRANCH  13  14
ENDBRANCH   1  13
TORSDOF 5
ENDMDL
MODEL 3
REMARK VINA RESULT:      -7.2      2.064      8.110
REMARK  Name = 
REMARK  5 active torsions:
REMARK  status: ('A' for Active; 'I' for Inactive)
REMARK    1  A    between atoms: C_2  and  C_4
REMARK    2  A    between atoms: C_7  and  C_8
REMARK    3  A    between atoms: C_8  and  O_9
REMARK    4  A    between atoms: O_9  and  C_10
REMARK    5  A    between atoms: C_13  and  C_14
REMARK                            x       y       z     vdW  Elec       q    Type
REMARK                         _______ _______ _______ _____ _____    ______ ____
ROOT
ATOM      1  C   UNL     1       3.001   6.448  18.655  0.00  0.00    +0.000 C 
ENDROOT
BRANCH   1   5
ATOM      2  C   UNL     1       5.617   5.048  15.506  0.00  0.00    +0.000 A 
ATOM      3  C   UNL     1       4.866   4.135  16.254  0.00  0.00    +0.000 A 
ATOM      4  C   UNL     1       4.018   4.592  17.266  0.00  0.00    +0.000 A 
ATOM      5  C   UNL     1       3.917   5.962  17.552  0.00  0.00    +0.000 A 
ATOM      6  C   UNL     1       4.685   6.869  16.807  0.00  0.00    +0.000 A 
ATOM      7  C   UNL     1       5.535   6.414  15.794  0.00  0.00    +0.000 A 
BRANCH   2   9
ATOM      8  N   UNL     1       7.665   5.332  14.227  0.00  0.00    +0.000 N 
ATOM      9  C   UNL     1       6.524   4.603  14.416  0.00  0.00    +0.000 C 
ATOM     10  O   UNL     1       6.290   3.607  13.745  0.00  0.00    +0.000 OA
ATOM     11  H   UNL     1       8.332   4.957  13.563  0.00  0.00    +0.000 HD
ATOM     12  H   UNL     1       8.008   5.984  14.918  0.00  0.00    +0.000 HD
ENDBRANCH   2   9
ENDBRANCH   1   5
BRANCH   1  13
ATOM     13  O   UNL     1       2.357   7.638  18.201  0.00  0.00    +0.000 OA
BRANCH  13  14
ATOM     14  C   UNL     1       1.698   8.374  19.142  0.00  0.00    +0.000 A 
ATOM     15  C   UNL     1       1.693   7.819  20.423  0.00  0.00    +0.000 A 
ATOM     16  C   UNL     1       1.076   8.477  21.491  0.00  0.00    +0.000 A 
ATOM     17  C   UNL     1       0.467   9.721  21.290  0.00  0.00    +0.000 A 
ATOM     18  C   UNL     1       0.492  10.285  20.004  0.00  0.00    +0.000 A 
ATOM     19  C   UNL     1       1.102   9.616  18.935  0.00  0.00    +0.000 A 
BRANCH  17  20
ATOM     20  C   UNL     1      -0.201  10.492  22.378  0.00  0.00    +0.000 C 
ATOM     21  N   UNL     1      -0.833   9.807  23.378  0.00  0.00    +0.000 N 
ATOM     22  O   UNL     1      -0.194  11.717  22.389  0.00  0.00    +0.000 OA
ATOM     23  H   UNL     1      -0.885   8.805  23.463  0.00  0.00    +0.000 HD
ATOM     24  H   UNL     1      -1.271  10.364  24.102  0.00  0.00    +0.000 HD
ENDBRANCH  17  20
ENDBRANCH  13  14
ENDBRANCH   1  13
TORSDOF 5
ENDMDL
MODEL 4
REMARK VINA RESULT:      -7.2      0.878      1.391
REMARK  Name = 
REMARK  5 active torsions:
REMARK  status: ('A' for Active; 'I' for Inactive)
REMARK    1  A    between atoms: C_2  and  C_4
REMARK    2  A    between atoms: C_7  and  C_8
REMARK    3  A    between atoms: C_8  and  O_9
REMARK    4  A    between atoms: O_9  and  C_10
REMARK    5  A    between atoms: C_13  and  C_14
REMARK                            x       y       z     vdW  Elec       q    Type
REMARK                         _______ _______ _______ _____ _____    ______ ____
ROOT
ATOM      1  C   UNL     1       2.984   5.454  19.487  0.00  0.00    +0.000 C 
ENDROOT
BRANCH   1   5
ATOM      2  C   UNL     1       1.359   9.429  18.968  0.00  0.00    +0.000 A 
ATOM      3  C   UNL     1       2.003   8.789  17.904  0.00  0.00    +0.000 A 
ATOM      4  C   UNL     1       2.522   7.503  18.076  0.00  0.00    +0.000 A 
ATOM      5  C   UNL     1       2.414   6.844  19.310  0.00  0.00    +0.000 A 
ATOM      6  C   UNL     1       1.779   7.500  20.375  0.00  0.00    +0.000 A 
ATOM      7  C   UNL     1       1.260   8.788  20.207  0.00  0.00    +0.000 A 
BRANCH   2   9
ATOM      8  N   UNL     1       1.517  11.697  18.104  0.00  0.00    +0.000 N 
ATOM      9  C   UNL     1       0.787  10.793  18.825  0.00  0.00    +0.000 C 
ATOM     10  O   UNL     1      -0.306  11.089  19.290  0.00  0.00    +0.000 OA
ATOM     11  H   UNL     1       1.068  12.585  17.913  0.00  0.00    +0.000 HD
ATOM     12  H   UNL     1       2.276  11.415  17.501  0.00  0.00    +0.000 HD
ENDBRANCH   2   9
ENDBRANCH   1   5
BRANCH   1  13
ATOM     13  O   UNL     1       4.408   5.560  19.502  0.00  0.00    +0.000 OA
BRANCH  13  14
ATOM     14  C   UNL     1       5.047   5.391  18.308  0.00  0.00    +0.000 A 
ATOM     15  C   UNL     1       4.524   4.379  17.502  0.00  0.00    +0.000 A 
ATOM     16  C   UNL     1       5.065   4.112  16.240  0.00  0.00    +0.000 A 
ATOM     17  C   UNL     1       6.133   4.877  15.759  0.00  0.00    +0.000 A 
ATOM     18  C   UNL     1       6.643   5.907  16.566  0.00  0.00    +0.000 A 
ATOM     19  C   UNL     1       6.104   6.163  17.834  0.00  0.00    +0.000 A 
BRANCH  17  20
ATOM     20  C   UNL     1       6.757   4.664  14.422  0.00  0.00    +0.000 C 
ATOM     21  N   UNL     1       7.778   5.485  14.033  0.00  0.00    +0.000 N 
ATOM     22  O   UNL     1       6.370   3.776  13.672  0.00  0.00    +0.000 OA
ATOM     23  H   UNL     1       8.172   6.233  14.579  0.00  0.00    +0.000 HD
ATOM     24  H   UNL     1       8.180   5.306  13.120  0.00  0.00    +0.000 HD
ENDBRANCH  17  20
ENDBRANCH  13  14
ENDBRANCH   1  13
TORSDOF 5
ENDMDL
MODEL 5
REMARK VINA RESULT:      -7.2      2.675      3.384
REMARK  Name = 
REMARK  5 active torsions:
REMARK  status: ('A' for Active; 'I' for Inactive)
REMARK    1  A    between atoms: C_2  and  C_4
REMARK    2  A    between atoms: C_7  and  C_8
REMARK    3  A    between atoms: C_8  and  O_9
REMARK    4  A    between atoms: O_9  and  C_10
REMARK    5  A    between atoms: C_13  and  C_14
REMARK                            x       y       z     vdW  Elec       q    Type
REMARK                         _______ _______ _______ _____ _____    ______ ____
ROOT
ATOM      1  C   UNL     1       2.168   8.219  17.835  0.00  0.00    +0.000 C 
ENDROOT
BRANCH   1   5
ATOM      2  C   UNL     1       0.317   9.859  21.385  0.00  0.00    +0.000 A 
ATOM      3  C   UNL     1       0.228  10.540  20.167  0.00  0.00    +0.000 A 
ATOM      4  C   UNL     1       0.823  10.004  19.022  0.00  0.00    +0.000 A 
ATOM      5  C   UNL     1       1.522   8.789  19.079  0.00  0.00    +0.000 A 
ATOM      6  C   UNL     1       1.618   8.119  20.308  0.00  0.00    +0.000 A 
ATOM      7  C   UNL     1       1.025   8.655  21.456  0.00  0.00    +0.000 A 
BRANCH   2   9
ATOM      8  N   UNL     1      -0.807   9.472  23.507  0.00  0.00    +0.000 N 
ATOM      9  C   UNL     1      -0.308  10.390  22.624  0.00  0.00    +0.000 C 
ATOM     10  O   UNL     1      -0.340  11.588  22.871  0.00  0.00    +0.000 OA
ATOM     11  H   UNL     1      -1.124   9.834  24.397  0.00  0.00    +0.000 HD
ATOM     12  H   UNL     1      -0.566   8.493  23.457  0.00  0.00    +0.000 HD
ENDBRANCH   2   9
ENDBRANCH   1   5
BRANCH   1  13
ATOM     13  O   UNL     1       2.286   6.807  18.007  0.00  0.00    +0.000 OA
BRANCH  13  14
ATOM     14  C   UNL     1       3.549   6.313  18.162  0.00  0.00    +0.000 A 
ATOM     15  C   UNL     1       4.480   6.783  17.234  0.00  0.00    +0.000 A 
ATOM     16  C   UNL     1       5.818   6.380  17.289  0.00  0.00    +0.000 A 
ATOM     17  C   UNL     1       6.247   5.508  18.296  0.00  0.00    +0.000 A 
ATOM     18  C   UNL     1       5.310   5.053  19.238  0.00  0.00    +0.000 A 
ATOM     19  C   UNL     1       3.969   5.452  19.172  0.00  0.00    +0.000 A 
BRANCH  17  20
ATOM     20  C   UNL     1       7.657   5.041  18.430  0.00  0.00    +0.000 C 
ATOM     21  N   UNL     1       8.365   5.397  19.544  0.00  0.00    +0.000 N 
ATOM     22  O   UNL     1       8.186   4.353  17.566  0.00  0.00    +0.000 OA
ATOM     23  H   UNL     1       8.018   5.949  20.311  0.00  0.00    +0.000 HD
ATOM     24  H   UNL     1       9.318   5.057  19.602  0.00  0.00    +0.000 HD
ENDBRANCH  17  20
ENDBRANCH  13  14
ENDBRANCH   1  13
TORSDOF 5
ENDMDL
MODEL 6
REMARK VINA RESULT:      -7.2      0.521      7.373
REMARK  Name = 
REMARK  5 active torsions:
REMARK  status: ('A' for Active; 'I' for Inactive)
REMARK    1  A    between atoms: C_2  and  C_4
REMARK    2  A    between atoms: C_7  and  C_8
REMARK    3  A    between atoms: C_8  and  O_9
REMARK    4  A    between atoms: O_9  and  C_10
REMARK    5  A    between atoms: C_13  and  C_14
REMARK                            x       y       z     vdW  Elec       q    Type
REMARK                         _______ _______ _______ _____ _____    ______ ____
ROOT
ATOM      1  C   UNL     1       4.260   5.516  19.444  0.00  0.00    +0.000 C 
ENDROOT
BRANCH   1   5
ATOM      2  C   UNL     1       6.249   4.915  15.649  0.00  0.00    +0.000 A 
ATOM      3  C   UNL     1       6.808   5.766  16.609  0.00  0.00    +0.000 A 
ATOM      4  C   UNL     1       6.163   5.953  17.835  0.00  0.00    +0.000 A 
ATOM      5  C   UNL     1       4.952   5.302  18.115  0.00  0.00    +0.000 A 
ATOM      6  C   UNL     1       4.393   4.462  17.142  0.00  0.00    +0.000 A 
ATOM      7  C   UNL     1       5.034   4.275  15.913  0.00  0.00    +0.000 A 
BRANCH   2   9
ATOM      8  N   UNL     1       6.475   3.606  13.613  0.00  0.00    +0.000 N 
ATOM      9  C   UNL     1       6.906   4.683  14.337  0.00  0.00    +0.000 C 
ATOM     10  O   UNL     1       7.760   5.441  13.897  0.00  0.00    +0.000 OA
ATOM     11  H   UNL     1       6.843   3.522  12.673  0.00  0.00    +0.000 HD
ATOM     12  H   UNL     1       5.611   3.127  13.823  0.00  0.00    +0.000 HD
ENDBRANCH   2   9
ENDBRANCH   1   5
BRANCH   1  13
ATOM     13  O   UNL     1       2.860   5.647  19.195  0.00  0.00    +0.000 OA
BRANCH  13  14
ATOM     14  C   UNL     1       2.332   6.900  19.311  0.00  0.00    +0.000 A 
ATOM     15  C   UNL     1       2.293   7.632  18.124  0.00  0.00    +0.000 A 
ATOM     16  C   UNL     1       1.755   8.922  18.090  0.00  0.00    +0.000 A 
ATOM     17  C   UNL     1       1.228   9.492  19.254  0.00  0.00    +0.000 A 
ATOM     18  C   UNL     1       1.252   8.744  20.442  0.00  0.00    +0.000 A 
ATOM     19  C   UNL     1       1.802   7.456  20.473  0.00  0.00    +0.000 A 
BRANCH  17  20
ATOM     20  C   UNL     1       0.626  10.856  19.299  0.00  0.00    +0.000 C 
ATOM     21  N   UNL     1       0.107  11.385  18.151  0.00  0.00    +0.000 N 
ATOM     22  O   UNL     1       0.593  11.505  20.338  0.00  0.00    +0.000 OA
ATOM     23  H   UNL     1       0.078  10.929  17.254  0.00  0.00    +0.000 HD
ATOM     24  H   UNL     1      -0.297  12.311  18.222  0.00  0.00    +0.000 HD
ENDBRANCH  17  20
ENDBRANCH  13  14
ENDBRANCH   1  13
TORSDOF 5
ENDMDL
MODEL 7
REMARK VINA RESULT:      -7.2      0.547      1.203
REMARK  Name = 
REMARK  5 active torsions:
REMARK  status: ('A' for Active; 'I' for Inactive)
REMARK    1  A    between atoms: C_2  and  C_4
REMARK    2  A    between atoms: C_7  and  C_8
REMARK    3  A    between atoms: C_8  and  O_9
REMARK    4  A    between atoms: O_9  and  C_10
REMARK    5  A    between atoms: C_13  and  C_14
REMARK                            x       y       z     vdW  Elec       q    Type
REMARK                         _______ _______ _______ _____ _____    ______ ____
ROOT
ATOM      1  C   UNL     1       2.677   5.804  19.370  0.00  0.00    +0.000 C 
ENDROOT
BRANCH   1   5
ATOM      2  C   UNL     1       1.234   9.874  19.112  0.00  0.00    +0.000 A 
ATOM      3  C   UNL     1       1.166   9.180  20.325  0.00  0.00    +0.000 A 
ATOM      4  C   UNL     1       1.638   7.867  20.404  0.00  0.00    +0.000 A 
ATOM      5  C   UNL     1       2.174   7.228  19.275  0.00  0.00    +0.000 A 
ATOM      6  C   UNL     1       2.225   7.927  18.061  0.00  0.00    +0.000 A 
ATOM      7  C   UNL     1       1.752   9.241  17.978  0.00  0.00    +0.000 A 
BRANCH   2   9
ATOM      8  N   UNL     1      -0.342  11.481  18.191  0.00  0.00    +0.000 N 
ATOM      9  C   UNL     1       0.751  11.274  18.987  0.00  0.00    +0.000 C 
ATOM     10  O   UNL     1       1.272  12.196  19.600  0.00  0.00    +0.000 OA
ATOM     11  H   UNL     1      -0.734  12.415  18.203  0.00  0.00    +0.000 HD
ATOM     12  H   UNL     1      -0.939  10.724  17.890  0.00  0.00    +0.000 HD
ENDBRANCH   2   9
ENDBRANCH   1   5
BRANCH   1  13
ATOM     13  O   UNL     1       4.103   5.836  19.315  0.00  0.00    +0.000 OA
BRANCH  13  14
ATOM     14  C   UNL     1       4.676   5.505  18.121  0.00  0.00    +0.000 A 
ATOM     15  C   UNL     1       5.744   6.319  17.739  0.00  0.00    +0.000 A 
ATOM     16  C   UNL     1       6.442   6.081  16.551  0.00  0.00    +0.000 A 
ATOM     17  C   UNL     1       6.086   5.002  15.734  0.00  0.00    +0.000 A 
ATOM     18  C   UNL     1       5.024   4.175  16.132  0.00  0.00    +0.000 A 
ATOM     19  C   UNL     1       4.322   4.424  17.318  0.00  0.00    +0.000 A 
BRANCH  17  20
ATOM     20  C   UNL     1       6.787   4.675  14.459  0.00  0.00    +0.000 C 
ATOM     21  N   UNL     1       6.391   3.573  13.754  0.00  0.00    +0.000 N 
ATOM     22  O   UNL     1       7.706   5.369  14.039  0.00  0.00    +0.000 OA
ATOM     23  H   UNL     1       5.644   2.948  14.009  0.00  0.00    +0.000 HD
ATOM     24  H   UNL     1       6.887   3.385  12.890  0.00  0.00    +0.000 HD
ENDBRANCH  17  20
ENDBRANCH  13  14
ENDBRANCH   1  13
TORSDOF 5
ENDMDL
MODEL 8
REMARK VINA RESULT:      -7.1      3.778      7.476
REMARK  Name = 
REMARK  5 active torsions:
REMARK  status: ('A' for Active; 'I' for Inactive)
REMARK    1  A    between atoms: C_2  and  C_4
REMARK    2  A    between atoms: C_7  and  C_8
REMARK    3  A    between atoms: C_8  and  O_9
REMARK    4  A    between atoms: O_9  and  C_10
REMARK    5  A    between atoms: C_13  and  C_14
REMARK                            x       y       z     vdW  Elec       q    Type
REMARK                         _______ _______ _______ _____ _____    ______ ____
ROOT
ATOM      1  C   UNL     1       6.205   6.029  17.587  0.00  0.00    +0.000 C 
ENDROOT
BRANCH   1   5
ATOM      2  C   UNL     1       5.939   4.050  13.749  0.00  0.00    +0.000 A 
ATOM      3  C   UNL     1       7.144   4.631  14.158  0.00  0.00    +0.000 A 
ATOM      4  C   UNL     1       7.226   5.265  15.401  0.00  0.00    +0.000 A 
ATOM      5  C   UNL     1       6.108   5.335  16.246  0.00  0.00    +0.000 A 
ATOM      6  C   UNL     1       4.900   4.762  15.821  0.00  0.00    +0.000 A 
ATOM      7  C   UNL     1       4.814   4.129  14.577  0.00  0.00    +0.000 A 
BRANCH   2   9
ATOM      8  N   UNL     1       6.907   2.675  11.992  0.00  0.00    +0.000 N 
ATOM      9  C   UNL     1       5.811   3.360  12.439  0.00  0.00    +0.000 C 
ATOM     10  O   UNL     1       4.764   3.362  11.805  0.00  0.00    +0.000 OA
ATOM     11  H   UNL     1       6.776   2.114  11.160  0.00  0.00    +0.000 HD
ATOM     12  H   UNL     1       7.678   2.440  12.600  0.00  0.00    +0.000 HD
ENDBRANCH   2   9
ENDBRANCH   1   5
BRANCH   1  13
ATOM     13  O   UNL     1       6.269   5.024  18.599  0.00  0.00    +0.000 OA
BRANCH  13  14
ATOM     14  C   UNL     1       5.082   4.633  19.148  0.00  0.00    +0.000 A 
ATOM     15  C   UNL     1       4.962   3.260  19.368  0.00  0.00    +0.000 A 
ATOM     16  C   UNL     1       3.809   2.722  19.948  0.00  0.00    +0.000 A 
ATOM     17  C   UNL     1       2.761   3.564  20.337  0.00  0.00    +0.000 A 
ATOM     18  C   UNL     1       2.895   4.946  20.131  0.00  0.00    +0.000 A 
ATOM     19  C   UNL     1       4.047   5.479  19.540  0.00  0.00    +0.000 A 
BRANCH  17  20
ATOM     20  C   UNL     1       1.506   3.070  20.972  0.00  0.00    +0.000 C 
ATOM     21  N   UNL     1       0.337   3.141  20.266  0.00  0.00    +0.000 N 
ATOM     22  O   UNL     1       1.504   2.608  22.107  0.00  0.00    +0.000 OA
ATOM     23  H   UNL     1       0.238   3.492  19.328  0.00  0.00    +0.000 HD
ATOM     24  H   UNL     1      -0.493   2.791  20.728  0.00  0.00    +0.000 HD
ENDBRANCH  17  20
ENDBRANCH  13  14
ENDBRANCH   1  13
TORSDOF 5
ENDMDL
MODEL 9
REMARK VINA RESULT:      -7.1      3.662      4.522
REMARK  Name = 
REMARK  5 active torsions:
REMARK  status: ('A' for Active; 'I' for Inactive)
REMARK    1  A    between atoms: C_2  and  C_4
REMARK    2  A    between atoms: C_7  and  C_8
REMARK    3  A    between atoms: C_8  and  O_9
REMARK    4  A    between atoms: O_9  and  C_10
REMARK    5  A    between atoms: C_13  and  C_14
REMARK                            x       y       z     vdW  Elec       q    Type
REMARK                         _______ _______ _______ _____ _____    ______ ____
ROOT
ATOM      1  C   UNL     1       6.417   5.463  19.194  0.00  0.00    +0.000 C 
ENDROOT
BRANCH   1   5
ATOM      2  C   UNL     1       2.492   3.646  19.284  0.00  0.00    +0.000 A 
ATOM      3  C   UNL     1       3.630   2.853  19.105  0.00  0.00    +0.000 A 
ATOM      4  C   UNL     1       4.895   3.444  19.081  0.00  0.00    +0.000 A 
ATOM      5  C   UNL     1       5.042   4.832  19.226  0.00  0.00    +0.000 A 
ATOM      6  C   UNL     1       3.894   5.621  19.391  0.00  0.00    +0.000 A 
ATOM      7  C   UNL     1       2.626   5.032  19.413  0.00  0.00    +0.000 A 
BRANCH   2   9
ATOM      8  N   UNL     1       0.440   3.170  20.499  0.00  0.00    +0.000 N 
ATOM      9  C   UNL     1       1.128   3.057  19.323  0.00  0.00    +0.000 C 
ATOM     10  O   UNL     1       0.621   2.533  18.340  0.00  0.00    +0.000 OA
ATOM     11  H   UNL     1      -0.528   2.871  20.483  0.00  0.00    +0.000 HD
ATOM     12  H   UNL     1       0.720   3.812  21.227  0.00  0.00    +0.000 HD
ENDBRANCH   2   9
ENDBRANCH   1   5
BRANCH   1  13
ATOM     13  O   UNL     1       6.470   6.346  18.073  0.00  0.00    +0.000 OA
BRANCH  13  14
ATOM     14  C   UNL     1       6.268   5.789  16.844  0.00  0.00    +0.000 A 
ATOM     15  C   UNL     1       7.126   4.733  16.532  0.00  0.00    +0.000 A 
ATOM     16  C   UNL     1       7.016   4.052  15.315  0.00  0.00    +0.000 A 
ATOM     17  C   UNL     1       6.022   4.411  14.398  0.00  0.00    +0.000 A 
ATOM     18  C   UNL     1       5.149   5.461  14.725  0.00  0.00    +0.000 A 
ATOM     19  C   UNL     1       5.270   6.147  15.941  0.00  0.00    +0.000 A 
BRANCH  17  20
ATOM     20  C   UNL     1       5.832   3.728  13.086  0.00  0.00    +0.000 C 
ATOM     21  N   UNL     1       6.917   3.167  12.472  0.00  0.00    +0.000 N 
ATOM     22  O   UNL     1       4.730   3.663  12.555  0.00  0.00    +0.000 OA
ATOM     23  H   UNL     1       7.857   3.159  12.831  0.00  0.00    +0.000 HD
ATOM     24  H   UNL     1       6.747   2.707  11.585  0.00  0.00    +0.000 HD
ENDBRANCH  17  20
ENDBRANCH  13  14
ENDBRANCH   1  13
TORSDOF 5
ENDMDL
