MODEL 1
REMARK VINA RESULT:      -8.2      0.000      0.000
REMARK  Name = 
REMARK  7 active torsions:
REMARK  status: ('A' for Active; 'I' for Inactive)
REMARK    1  A    between atoms: C_2  and  O_3
REMARK    2  A    between atoms: C_2  and  C_4
REMARK    3  A    between atoms: C_8  and  C_9
REMARK    4  A    between atoms: C_9  and  N_10
REMARK    5  A    between atoms: N_10  and  N_11
REMARK    6  A    between atoms: C_12  and  C_13
REMARK    7  A    between atoms: C_17  and  C_18
REMARK                            x       y       z     vdW  Elec       q    Type
REMARK                         _______ _______ _______ _____ _____    ______ ____
ROOT
ATOM      1  N   UNL     1       7.948   8.174  18.023  0.00  0.00    +0.000 NA
ATOM      2  C   UNL     1       7.820   6.902  18.280  0.00  0.00    +0.000 C 
ENDROOT
BRANCH   2   3
ATOM      3  C   UNL     1       6.933   6.035  17.497  0.00  0.00    +0.000 A 
ATOM      4  C   UNL     1       7.254   5.773  16.169  0.00  0.00    +0.000 A 
ATOM      5  C   UNL     1       6.438   4.923  15.432  0.00  0.00    +0.000 A 
ATOM      6  C   UNL     1       5.302   4.356  16.021  0.00  0.00    +0.000 A 
ATOM      7  C   UNL     1       4.936   4.640  17.353  0.00  0.00    +0.000 A 
ATOM      8  C   UNL     1       5.781   5.493  18.075  0.00  0.00    +0.000 A 
BRANCH   7   9
ATOM      9  C   UNL     1       3.717   4.059  17.967  0.00  0.00    +0.000 A 
ATOM     10  C   UNL     1       3.805   3.062  18.962  0.00  0.00    +0.000 A 
ATOM     11  C   UNL     1       2.663   2.512  19.549  0.00  0.00    +0.000 A 
ATOM     12  C   UNL     1       1.409   2.943  19.142  0.00  0.00    +0.000 A 
ATOM     13  F   UNL     1       0.315   2.412  19.697  0.00  0.00    +0.000 F 
ATOM     14  C   UNL     1       1.283   3.925  18.170  0.00  0.00    +0.000 A 
ATOM     15  C   UNL     1       2.428   4.483  17.594  0.00  0.00    +0.000 A 
ENDBRANCH   7   9
ENDBRANCH   2   3
BRANCH   1  16
ATOM     16  N   UNL     1       8.830   8.766  18.856  0.00  0.00    +0.000 N 
ATOM     17  H   UNL     1       9.725   8.268  18.810  0.00  0.00    +0.000 HD
BRANCH  16  18
ATOM     18  C   UNL     1       9.092  10.185  18.650  0.00  0.00    +0.000 C 
BRANCH  18  23
ATOM     19  C   UNL     1      11.130  12.990  18.895  0.00  0.00    +0.000 C 
ATOM     20  C   UNL     1      10.291  13.722  19.951  0.00  0.00    +0.000 C 
ATOM     21  N   UNL     1       9.004  13.070  20.212  0.00  0.00    +0.000 NA
ATOM     22  C   UNL     1       9.205  11.714  20.721  0.00  0.00    +0.000 C 
ATOM     23  C   UNL     1       9.975  10.800  19.755  0.00  0.00    +0.000 C 
ATOM     24  C   UNL     1      11.251  11.492  19.228  0.00  0.00    +0.000 C 
ATOM     25  H   UNL     1       8.503  13.035  19.319  0.00  0.00    +0.000 HD
BRANCH  19  27
ATOM     26  O   UNL     1      11.355  13.237  16.477  0.00  0.00    +0.000 OA
ATOM     27  C   UNL     1      10.661  13.326  17.481  0.00  0.00    +0.000 C 
BRANCH  27  28
ATOM     28  O   UNL     1       9.341  13.609  17.392  0.00  0.00    +0.000 OA
ATOM     29  H   UNL     1       8.873  13.157  16.667  0.00  0.00    +0.000 HD
ENDBRANCH  27  28
ENDBRANCH  19  27
ENDBRANCH  18  23
ENDBRANCH  16  18
ENDBRANCH   1  16
TORSDOF 7
ENDMDL
MODEL 2
REMARK VINA RESULT:      -8.2      7.148     10.029
REMARK  Name = 
REMARK  7 active torsions:
REMARK  status: ('A' for Active; 'I' for Inactive)
REMARK    1  A    between atoms: C_2  and  O_3
REMARK    2  A    between atoms: C_2  and  C_4
REMARK    3  A    between atoms: C_8  and  C_9
REMARK    4  A    between atoms: C_9  and  N_10
REMARK    5  A    between atoms: N_10  and  N_11
REMARK    6  A    between atoms: C_12  and  C_13
REMARK    7  A    between atoms: C_17  and  C_18
REMARK                            x       y       z     vdW  Elec       q    Type
REMARK                         _______ _______ _______ _____ _____    ______ ____
ROOT
ATOM      1  N   UNL     1       3.309   5.720  18.830  0.00  0.00    +0.000 NA
ATOM      2  C   UNL     1       2.851   6.546  19.729  0.00  0.00    +0.000 C 
ENDROOT
BRANCH   2   3
ATOM      3  C   UNL     1       2.121   7.765  19.365  0.00  0.00    +0.000 A 
ATOM      4  C   UNL     1       2.224   8.244  18.063  0.00  0.00    +0.000 A 
ATOM      5  C   UNL     1       1.507   9.378  17.701  0.00  0.00    +0.000 A 
ATOM      6  C   UNL     1       0.705  10.031  18.644  0.00  0.00    +0.000 A 
ATOM      7  C   UNL     1       0.617   9.586  19.980  0.00  0.00    +0.000 A 
ATOM      8  C   UNL     1       1.345   8.436  20.314  0.00  0.00    +0.000 A 
BRANCH   7   9
ATOM      9  C   UNL     1      -0.213  10.295  20.985  0.00  0.00    +0.000 A 
ATOM     10  C   UNL     1      -0.912  11.474  20.653  0.00  0.00    +0.000 A 
ATOM     11  C   UNL     1      -1.699  12.146  21.591  0.00  0.00    +0.000 A 
ATOM     12  C   UNL     1      -1.791  11.654  22.886  0.00  0.00    +0.000 A 
ATOM     13  F   UNL     1      -2.536  12.301  23.787  0.00  0.00    +0.000 F 
ATOM     14  C   UNL     1      -1.120  10.495  23.248  0.00  0.00    +0.000 A 
ATOM     15  C   UNL     1      -0.345   9.818  22.302  0.00  0.00    +0.000 A 
ENDBRANCH   7   9
ENDBRANCH   2   3
BRANCH   1  16
ATOM     16  N   UNL     1       3.928   4.661  19.393  0.00  0.00    +0.000 N 
ATOM     17  H   UNL     1       3.243   4.114  19.926  0.00  0.00    +0.000 HD
BRANCH  16  18
ATOM     18  C   UNL     1       4.636   3.751  18.502  0.00  0.00    +0.000 C 
BRANCH  18  23
ATOM     19  C   UNL     1       1.874   2.010  19.693  0.00  0.00    +0.000 C 
ATOM     20  C   UNL     1       0.877   2.531  18.649  0.00  0.00    +0.000 C 
ATOM     21  N   UNL     1       1.431   3.602  17.813  0.00  0.00    +0.000 NA
ATOM     22  C   UNL     1       2.592   3.124  17.064  0.00  0.00    +0.000 C 
ATOM     23  C   UNL     1       3.738   2.622  17.956  0.00  0.00    +0.000 C 
ATOM     24  C   UNL     1       3.220   1.651  19.040  0.00  0.00    +0.000 C 
ATOM     25  H   UNL     1       1.712   4.356  18.446  0.00  0.00    +0.000 HD
BRANCH  19  27
ATOM     26  O   UNL     1       1.208   3.896  21.092  0.00  0.00    +0.000 OA
ATOM     27  C   UNL     1       1.943   2.935  20.905  0.00  0.00    +0.000 C 
BRANCH  27  28
ATOM     28  O   UNL     1       2.810   2.527  21.861  0.00  0.00    +0.000 OA
ATOM     29  H   UNL     1       2.702   2.960  22.726  0.00  0.00    +0.000 HD
ENDBRANCH  27  28
ENDBRANCH  19  27
ENDBRANCH  18  23
ENDBRANCH  16  18
ENDBRANCH   1  16
TORSDOF 7
ENDMDL
MODEL 3
REMARK VINA RESULT:      -8.1      7.154     10.039
REMARK  Name = 
REMARK  7 active torsions:
REMARK  status: ('A' for Active; 'I' for Inactive)
REMARK    1  A    between atoms: C_2  and  O_3
REMARK    2  A    between atoms: C_2  and  C_4
REMARK    3  A    between atoms: C_8  and  C_9
REMARK    4  A    between atoms: C_9  and  N_10
REMARK    5  A    between atoms: N_10  and  N_11
REMARK    6  A    between atoms: C_12  and  C_13
REMARK    7  A    between atoms: C_17  and  C_18
REMARK                            x       y       z     vdW  Elec       q    Type
REMARK                         _______ _______ _______ _____ _____    ______ ____
ROOT
ATOM      1  N   UNL     1       3.481   6.221  19.647  0.00  0.00    +0.000 NA
ATOM      2  C   UNL     1       2.309   6.662  20.011  0.00  0.00    +0.000 C 
ENDROOT
BRANCH   2   3
ATOM      3  C   UNL     1       1.807   7.976  19.593  0.00  0.00    +0.000 A 
ATOM      4  C   UNL     1       1.956   8.357  18.263  0.00  0.00    +0.000 A 
ATOM      5  C   UNL     1       1.451   9.584  17.851  0.00  0.00    +0.000 A 
ATOM      6  C   UNL     1       0.816  10.425  18.772  0.00  0.00    +0.000 A 
ATOM      7  C   UNL     1       0.689  10.076  20.133  0.00  0.00    +0.000 A 
ATOM      8  C   UNL     1       1.200   8.830  20.518  0.00  0.00    +0.000 A 
BRANCH   7   9
ATOM      9  C   UNL     1       0.039  10.981  21.113  0.00  0.00    +0.000 A 
ATOM     10  C   UNL     1       0.145  12.383  20.994  0.00  0.00    +0.000 A 
ATOM     11  C   UNL     1      -0.467  13.242  21.909  0.00  0.00    +0.000 A 
ATOM     12  C   UNL     1      -1.189  12.713  22.969  0.00  0.00    +0.000 A 
ATOM     13  F   UNL     1      -1.768  13.533  23.851  0.00  0.00    +0.000 F 
ATOM     14  C   UNL     1      -1.318  11.339  23.117  0.00  0.00    +0.000 A 
ATOM     15  C   UNL     1      -0.715  10.482  22.191  0.00  0.00    +0.000 A 
ENDBRANCH   7   9
ENDBRANCH   2   3
BRANCH   1  16
ATOM     16  N   UNL     1       3.722   4.985  20.131  0.00  0.00    +0.000 N 
ATOM     17  H   UNL     1       4.611   4.990  20.644  0.00  0.00    +0.000 HD
BRANCH  16  18
ATOM     18  C   UNL     1       2.707   4.397  20.996  0.00  0.00    +0.000 C 
BRANCH  18  23
ATOM     19  C   UNL     1       2.060   2.297  18.303  0.00  0.00    +0.000 C 
ATOM     20  C   UNL     1       3.426   1.597  18.297  0.00  0.00    +0.000 C 
ATOM     21  N   UNL     1       4.390   2.215  19.213  0.00  0.00    +0.000 NA
ATOM     22  C   UNL     1       3.907   2.153  20.592  0.00  0.00    +0.000 C 
ATOM     23  C   UNL     1       2.567   2.872  20.809  0.00  0.00    +0.000 C 
ATOM     24  C   UNL     1       1.531   2.462  19.738  0.00  0.00    +0.000 C 
ATOM     25  H   UNL     1       4.489   3.193  18.923  0.00  0.00    +0.000 HD
BRANCH  19  27
ATOM     26  O   UNL     1       1.084   4.179  17.094  0.00  0.00    +0.000 OA
ATOM     27  C   UNL     1       2.080   3.560  17.446  0.00  0.00    +0.000 C 
BRANCH  27  28
ATOM     28  O   UNL     1       3.320   4.045  17.208  0.00  0.00    +0.000 OA
ATOM     29  H   UNL     1       4.048   3.500  17.556  0.00  0.00    +0.000 HD
ENDBRANCH  27  28
ENDBRANCH  19  27
ENDBRANCH  18  23
ENDBRANCH  16  18
ENDBRANCH   1  16
TORSDOF 7
ENDMDL
MODEL 4
REMARK VINA RESULT:      -8.0      6.954     10.001
REMARK  Name = 
REMARK  7 active torsions:
REMARK  status: ('A' for Active; 'I' for Inactive)
REMARK    1  A    between atoms: C_2  and  O_3
REMARK    2  A    between atoms: C_2  and  C_4
REMARK    3  A    between atoms: C_8  and  C_9
REMARK    4  A    between atoms: C_9  and  N_10
REMARK    5  A    between atoms: N_10  and  N_11
REMARK    6  A    between atoms: C_12  and  C_13
REMARK    7  A    between atoms: C_17  and  C_18
REMARK                            x       y       z     vdW  Elec       q    Type
REMARK                         _______ _______ _______ _____ _____    ______ ____
ROOT
ATOM      1  N   UNL     1       3.648   6.144  19.411  0.00  0.00    +0.000 NA
ATOM      2  C   UNL     1       2.392   6.493  19.368  0.00  0.00    +0.000 C 
ENDROOT
BRANCH   2   3
ATOM      3  C   UNL     1       1.979   7.888  19.177  0.00  0.00    +0.000 A 
ATOM      4  C   UNL     1       2.415   8.566  18.043  0.00  0.00    +0.000 A 
ATOM      5  C   UNL     1       1.998   9.875  17.837  0.00  0.00    +0.000 A 
ATOM      6  C   UNL     1       1.161  10.500  18.770  0.00  0.00    +0.000 A 
ATOM      7  C   UNL     1       0.739   9.844  19.945  0.00  0.00    +0.000 A 
ATOM      8  C   UNL     1       1.169   8.522  20.123  0.00  0.00    +0.000 A 
BRANCH   7   9
ATOM      9  C   UNL     1      -0.126  10.517  20.946  0.00  0.00    +0.000 A 
ATOM     10  C   UNL     1      -0.283   9.990  22.245  0.00  0.00    +0.000 A 
ATOM     11  C   UNL     1      -1.092  10.618  23.195  0.00  0.00    +0.000 A 
ATOM     12  C   UNL     1      -1.768  11.782  22.857  0.00  0.00    +0.000 A 
ATOM     13  F   UNL     1      -2.548  12.380  23.762  0.00  0.00    +0.000 F 
ATOM     14  C   UNL     1      -1.634  12.332  21.590  0.00  0.00    +0.000 A 
ATOM     15  C   UNL     1      -0.813  11.707  20.647  0.00  0.00    +0.000 A 
ENDBRANCH   7   9
ENDBRANCH   2   3
BRANCH   1  16
ATOM     16  N   UNL     1       3.792   4.812  19.575  0.00  0.00    +0.000 N 
ATOM     17  H   UNL     1       2.865   4.380  19.658  0.00  0.00    +0.000 HD
BRANCH  16  18
ATOM     18  C   UNL     1       4.535   4.090  18.549  0.00  0.00    +0.000 C 
BRANCH  18  23
ATOM     19  C   UNL     1       2.018   2.002  19.726  0.00  0.00    +0.000 C 
ATOM     20  C   UNL     1       0.942   2.445  18.724  0.00  0.00    +0.000 C 
ATOM     21  N   UNL     1       1.351   3.602  17.921  0.00  0.00    +0.000 NA
ATOM     22  C   UNL     1       2.540   3.288  17.129  0.00  0.00    +0.000 C 
ATOM     23  C   UNL     1       3.757   2.888  17.977  0.00  0.00    +0.000 C 
ATOM     24  C   UNL     1       3.379   1.824  19.031  0.00  0.00    +0.000 C 
ATOM     25  H   UNL     1       1.560   4.360  18.578  0.00  0.00    +0.000 HD
BRANCH  19  27
ATOM     26  O   UNL     1       1.293   3.861  21.132  0.00  0.00    +0.000 OA
ATOM     27  C   UNL     1       2.012   2.883  20.973  0.00  0.00    +0.000 C 
BRANCH  27  28
ATOM     28  O   UNL     1       2.783   2.415  21.982  0.00  0.00    +0.000 OA
ATOM     29  H   UNL     1       2.645   1.477  22.202  0.00  0.00    +0.000 HD
ENDBRANCH  27  28
ENDBRANCH  19  27
ENDBRANCH  18  23
ENDBRANCH  16  18
ENDBRANCH   1  16
TORSDOF 7
ENDMDL
MODEL 5
REMARK VINA RESULT:      -8.0      7.357     10.304
REMARK  Name = 
REMARK  7 active torsions:
REMARK  status: ('A' for Active; 'I' for Inactive)
REMARK    1  A    between atoms: C_2  and  O_3
REMARK    2  A    between atoms: C_2  and  C_4
REMARK    3  A    between atoms: C_8  and  C_9
REMARK    4  A    between atoms: C_9  and  N_10
REMARK    5  A    between atoms: N_10  and  N_11
REMARK    6  A    between atoms: C_12  and  C_13
REMARK    7  A    between atoms: C_17  and  C_18
REMARK                            x       y       z     vdW  Elec       q    Type
REMARK                         _______ _______ _______ _____ _____    ______ ____
ROOT
ATOM      1  N   UNL     1       2.212   6.016  19.609  0.00  0.00    +0.000 NA
ATOM      2  C   UNL     1       2.558   7.247  19.867  0.00  0.00    +0.000 C 
ENDROOT
BRANCH   2   3
ATOM      3  C   UNL     1       1.739   8.389  19.448  0.00  0.00    +0.000 A 
ATOM      4  C   UNL     1       1.773   8.784  18.115  0.00  0.00    +0.000 A 
ATOM      5  C   UNL     1       0.973   9.843  17.702  0.00  0.00    +0.000 A 
ATOM      6  C   UNL     1       0.156  10.506  18.626  0.00  0.00    +0.000 A 
ATOM      7  C   UNL     1       0.136  10.147  19.991  0.00  0.00    +0.000 A 
ATOM      8  C   UNL     1       0.947   9.072  20.376  0.00  0.00    +0.000 A 
BRANCH   7   9
ATOM      9  C   UNL     1      -0.710  10.868  20.973  0.00  0.00    +0.000 A 
ATOM     10  C   UNL     1      -1.573  11.909  20.569  0.00  0.00    +0.000 A 
ATOM     11  C   UNL     1      -2.376  12.591  21.487  0.00  0.00    +0.000 A 
ATOM     12  C   UNL     1      -2.322  12.249  22.831  0.00  0.00    +0.000 A 
ATOM     13  F   UNL     1      -3.083  12.905  23.711  0.00  0.00    +0.000 F 
ATOM     14  C   UNL     1      -1.488  11.228  23.265  0.00  0.00    +0.000 A 
ATOM     15  C   UNL     1      -0.696  10.539  22.341  0.00  0.00    +0.000 A 
ENDBRANCH   7   9
ENDBRANCH   2   3
BRANCH   1  16
ATOM     16  N   UNL     1       3.102   5.132  20.105  0.00  0.00    +0.000 N 
ATOM     17  H   UNL     1       2.605   4.294  20.424  0.00  0.00    +0.000 HD
BRANCH  16  18
ATOM     18  C   UNL     1       4.183   4.707  19.225  0.00  0.00    +0.000 C 
BRANCH  18  23
ATOM     19  C   UNL     1       2.034   2.028  19.758  0.00  0.00    +0.000 C 
ATOM     20  C   UNL     1       1.149   2.267  18.527  0.00  0.00    +0.000 C 
ATOM     21  N   UNL     1       1.446   3.532  17.847  0.00  0.00    +0.000 NA
ATOM     22  C   UNL     1       2.827   3.549  17.365  0.00  0.00    +0.000 C 
ATOM     23  C   UNL     1       3.871   3.392  18.480  0.00  0.00    +0.000 C 
ATOM     24  C   UNL     1       3.522   2.210  19.412  0.00  0.00    +0.000 C 
ATOM     25  H   UNL     1       1.309   4.278  18.535  0.00  0.00    +0.000 HD
BRANCH  19  27
ATOM     26  O   UNL     1       2.003   2.739  22.093  0.00  0.00    +0.000 OA
ATOM     27  C   UNL     1       1.527   2.809  20.968  0.00  0.00    +0.000 C 
BRANCH  27  28
ATOM     28  O   UNL     1       0.570   3.719  20.673  0.00  0.00    +0.000 OA
ATOM     29  H   UNL     1       0.849   4.648  20.752  0.00  0.00    +0.000 HD
ENDBRANCH  27  28
ENDBRANCH  19  27
ENDBRANCH  18  23
ENDBRANCH  16  18
ENDBRANCH   1  16
TORSDOF 7
ENDMDL
MODEL 6
REMARK VINA RESULT:      -8.0      1.151      1.660
REMARK  Name = 
REMARK  7 active torsions:
REMARK  status: ('A' for Active; 'I' for Inactive)
REMARK    1  A    between atoms: C_2  and  O_3
REMARK    2  A    between atoms: C_2  and  C_4
REMARK    3  A    between atoms: C_8  and  C_9
REMARK    4  A    between atoms: C_9  and  N_10
REMARK    5  A    between atoms: N_10  and  N_11
REMARK    6  A    between atoms: C_12  and  C_13
REMARK    7  A    between atoms: C_17  and  C_18
REMARK                            x       y       z     vdW  Elec       q    Type
REMARK                         _______ _______ _______ _____ _____    ______ ____
ROOT
ATOM      1  N   UNL     1       7.560   8.263  17.594  0.00  0.00    +0.000 NA
ATOM      2  C   UNL     1       7.650   6.977  17.796  0.00  0.00    +0.000 C 
ENDROOT
BRANCH   2   3
ATOM      3  C   UNL     1       6.865   6.011  17.020  0.00  0.00    +0.000 A 
ATOM      4  C   UNL     1       7.301   5.663  15.746  0.00  0.00    +0.000 A 
ATOM      5  C   UNL     1       6.582   4.721  15.020  0.00  0.00    +0.000 A 
ATOM      6  C   UNL     1       5.428   4.146  15.566  0.00  0.00    +0.000 A 
ATOM      7  C   UNL     1       4.946   4.514  16.840  0.00  0.00    +0.000 A 
ATOM      8  C   UNL     1       5.695   5.460  17.552  0.00  0.00    +0.000 A 
BRANCH   7   9
ATOM      9  C   UNL     1       3.708   3.924  17.406  0.00  0.00    +0.000 A 
ATOM     10  C   UNL     1       2.603   4.733  17.745  0.00  0.00    +0.000 A 
ATOM     11  C   UNL     1       1.432   4.186  18.275  0.00  0.00    +0.000 A 
ATOM     12  C   UNL     1       1.350   2.816  18.485  0.00  0.00    +0.000 A 
ATOM     13  F   UNL     1       0.234   2.292  19.000  0.00  0.00    +0.000 F 
ATOM     14  C   UNL     1       2.415   1.989  18.160  0.00  0.00    +0.000 A 
ATOM     15  C   UNL     1       3.581   2.539  17.617  0.00  0.00    +0.000 A 
ENDBRANCH   7   9
ENDBRANCH   2   3
BRANCH   1  16
ATOM     16  N   UNL     1       8.386   8.956  18.405  0.00  0.00    +0.000 N 
ATOM     17  H   UNL     1       9.337   8.583  18.318  0.00  0.00    +0.000 HD
BRANCH  16  18
ATOM     18  C   UNL     1       8.449  10.400  18.217  0.00  0.00    +0.000 C 
BRANCH  18  23
ATOM     19  C   UNL     1       9.822  13.585  18.440  0.00  0.00    +0.000 C 
ATOM     20  C   UNL     1      10.331  13.454  19.882  0.00  0.00    +0.000 C 
ATOM     21  N   UNL     1       9.868  12.229  20.543  0.00  0.00    +0.000 NA
ATOM     22  C   UNL     1      10.349  11.045  19.833  0.00  0.00    +0.000 C 
ATOM     23  C   UNL     1       9.876  10.965  18.374  0.00  0.00    +0.000 C 
ATOM     24  C   UNL     1      10.106  12.303  17.637  0.00  0.00    +0.000 C 
ATOM     25  H   UNL     1       8.844  12.252  20.526  0.00  0.00    +0.000 HD
BRANCH  19  27
ATOM     26  O   UNL     1       7.648  14.179  19.377  0.00  0.00    +0.000 OA
ATOM     27  C   UNL     1       8.384  14.095  18.402  0.00  0.00    +0.000 C 
BRANCH  27  28
ATOM     28  O   UNL     1       8.009  14.596  17.202  0.00  0.00    +0.000 OA
ATOM     29  H   UNL     1       7.745  13.929  16.544  0.00  0.00    +0.000 HD
ENDBRANCH  27  28
ENDBRANCH  19  27
ENDBRANCH  18  23
ENDBRANCH  16  18
ENDBRANCH   1  16
TORSDOF 7
ENDMDL
MODEL 7
REMARK VINA RESULT:      -8.0      1.099      1.439
REMARK  Name = 
REMARK  7 active torsions:
REMARK  status: ('A' for Active; 'I' for Inactive)
REMARK    1  A    between atoms: C_2  and  O_3
REMARK    2  A    between atoms: C_2  and  C_4
REMARK    3  A    between atoms: C_8  and  C_9
REMARK    4  A    between atoms: C_9  and  N_10
REMARK    5  A    between atoms: N_10  and  N_11
REMARK    6  A    between atoms: C_12  and  C_13
REMARK    7  A    between atoms: C_17  and  C_18
REMARK                            x       y       z     vdW  Elec       q    Type
REMARK                         _______ _______ _______ _____ _____    ______ ____
ROOT
ATOM      1  N   UNL     1       7.602   8.328  17.542  0.00  0.00    +0.000 NA
ATOM      2  C   UNL     1       7.589   7.061  17.850  0.00  0.00    +0.000 C 
ENDROOT
BRANCH   2   3
ATOM      3  C   UNL     1       6.468   6.186  17.495  0.00  0.00    +0.000 A 
ATOM      4  C   UNL     1       6.263   5.871  16.155  0.00  0.00    +0.000 A 
ATOM      5  C   UNL     1       5.224   5.013  15.814  0.00  0.00    +0.000 A 
ATOM      6  C   UNL     1       4.392   4.489  16.810  0.00  0.00    +0.000 A 
ATOM      7  C   UNL     1       4.557   4.826  18.170  0.00  0.00    +0.000 A 
ATOM      8  C   UNL     1       5.617   5.687  18.485  0.00  0.00    +0.000 A 
BRANCH   7   9
ATOM      9  C   UNL     1       3.657   4.291  19.221  0.00  0.00    +0.000 A 
ATOM     10  C   UNL     1       2.616   5.077  19.760  0.00  0.00    +0.000 A 
ATOM     11  C   UNL     1       1.762   4.580  20.747  0.00  0.00    +0.000 A 
ATOM     12  C   UNL     1       1.941   3.289  21.222  0.00  0.00    +0.000 A 
ATOM     13  F   UNL     1       1.130   2.815  22.172  0.00  0.00    +0.000 F 
ATOM     14  C   UNL     1       2.952   2.485  20.713  0.00  0.00    +0.000 A 
ATOM     15  C   UNL     1       3.796   2.981  19.716  0.00  0.00    +0.000 A 
ENDBRANCH   7   9
ENDBRANCH   2   3
BRANCH   1  16
ATOM     16  N   UNL     1       8.739   8.931  17.950  0.00  0.00    +0.000 N 
ATOM     17  H   UNL     1       9.442   8.867  17.205  0.00  0.00    +0.000 HD
BRANCH  16  18
ATOM     18  C   UNL     1       8.644  10.325  18.363  0.00  0.00    +0.000 C 
BRANCH  18  23
ATOM     19  C   UNL     1      11.080  12.782  18.693  0.00  0.00    +0.000 C 
ATOM     20  C   UNL     1      10.424  13.520  19.868  0.00  0.00    +0.000 C 
ATOM     21  N   UNL     1       9.074  13.032  20.168  0.00  0.00    +0.000 NA
ATOM     22  C   UNL     1       9.106  11.619  20.543  0.00  0.00    +0.000 C 
ATOM     23  C   UNL     1       9.674  10.703  19.447  0.00  0.00    +0.000 C 
ATOM     24  C   UNL     1      11.003  11.258  18.887  0.00  0.00    +0.000 C 
ATOM     25  H   UNL     1       8.519  13.153  19.316  0.00  0.00    +0.000 HD
BRANCH  19  27
ATOM     26  O   UNL     1      11.261  13.404  16.340  0.00  0.00    +0.000 OA
ATOM     27  C   UNL     1      10.579  13.314  17.353  0.00  0.00    +0.000 C 
BRANCH  27  28
ATOM     28  O   UNL     1       9.249  13.559  17.321  0.00  0.00    +0.000 OA
ATOM     29  H   UNL     1       8.904  14.054  18.085  0.00  0.00    +0.000 HD
ENDBRANCH  27  28
ENDBRANCH  19  27
ENDBRANCH  18  23
ENDBRANCH  16  18
ENDBRANCH   1  16
TORSDOF 7
ENDMDL
MODEL 8
REMARK VINA RESULT:      -7.9      1.105      1.323
REMARK  Name = 
REMARK  7 active torsions:
REMARK  status: ('A' for Active; 'I' for Inactive)
REMARK    1  A    between atoms: C_2  and  O_3
REMARK    2  A    between atoms: C_2  and  C_4
REMARK    3  A    between atoms: C_8  and  C_9
REMARK    4  A    between atoms: C_9  and  N_10
REMARK    5  A    between atoms: N_10  and  N_11
REMARK    6  A    between atoms: C_12  and  C_13
REMARK    7  A    between atoms: C_17  and  C_18
REMARK                            x       y       z     vdW  Elec       q    Type
REMARK                         _______ _______ _______ _____ _____    ______ ____
ROOT
ATOM      1  N   UNL     1       7.561   8.155  17.419  0.00  0.00    +0.000 NA
ATOM      2  C   UNL     1       7.445   6.942  17.884  0.00  0.00    +0.000 C 
ENDROOT
BRANCH   2   3
ATOM      3  C   UNL     1       6.335   6.064  17.500  0.00  0.00    +0.000 A 
ATOM      4  C   UNL     1       6.170   5.742  16.157  0.00  0.00    +0.000 A 
ATOM      5  C   UNL     1       5.143   4.881  15.790  0.00  0.00    +0.000 A 
ATOM      6  C   UNL     1       4.281   4.363  16.764  0.00  0.00    +0.000 A 
ATOM      7  C   UNL     1       4.406   4.708  18.126  0.00  0.00    +0.000 A 
ATOM      8  C   UNL     1       5.455   5.571  18.468  0.00  0.00    +0.000 A 
BRANCH   7   9
ATOM      9  C   UNL     1       3.475   4.178  19.153  0.00  0.00    +0.000 A 
ATOM     10  C   UNL     1       3.852   3.113  19.998  0.00  0.00    +0.000 A 
ATOM     11  C   UNL     1       2.984   2.609  20.970  0.00  0.00    +0.000 A 
ATOM     12  C   UNL     1       1.717   3.159  21.108  0.00  0.00    +0.000 A 
ATOM     13  F   UNL     1       0.883   2.673  22.032  0.00  0.00    +0.000 F 
ATOM     14  C   UNL     1       1.313   4.210  20.297  0.00  0.00    +0.000 A 
ATOM     15  C   UNL     1       2.189   4.719  19.334  0.00  0.00    +0.000 A 
ENDBRANCH   7   9
ENDBRANCH   2   3
BRANCH   1  16
ATOM     16  N   UNL     1       8.666   8.769  17.892  0.00  0.00    +0.000 N 
ATOM     17  H   UNL     1       9.331   8.907  17.124  0.00  0.00    +0.000 HD
BRANCH  16  18
ATOM     18  C   UNL     1       8.482  10.050  18.563  0.00  0.00    +0.000 C 
BRANCH  18  23
ATOM     19  C   UNL     1      10.586  12.808  18.778  0.00  0.00    +0.000 C 
ATOM     20  C   UNL     1      10.137  13.261  20.174  0.00  0.00    +0.000 C 
ATOM     21  N   UNL     1       8.972  12.519  20.669  0.00  0.00    +0.000 NA
ATOM     22  C   UNL     1       9.276  11.093  20.781  0.00  0.00    +0.000 C 
ATOM     23  C   UNL     1       9.681  10.442  19.450  0.00  0.00    +0.000 C 
ATOM     24  C   UNL     1      10.755  11.280  18.721  0.00  0.00    +0.000 C 
ATOM     25  H   UNL     1       8.219  12.662  19.988  0.00  0.00    +0.000 HD
BRANCH  19  27
ATOM     26  O   UNL     1       8.492  13.479  17.716  0.00  0.00    +0.000 OA
ATOM     27  C   UNL     1       9.715  13.427  17.687  0.00  0.00    +0.000 C 
BRANCH  27  28
ATOM     28  O   UNL     1      10.415  14.059  16.716  0.00  0.00    +0.000 OA
ATOM     29  H   UNL     1      10.859  14.878  16.997  0.00  0.00    +0.000 HD
ENDBRANCH  27  28
ENDBRANCH  19  27
ENDBRANCH  18  23
ENDBRANCH  16  18
ENDBRANCH   1  16
TORSDOF 7
ENDMDL
MODEL 9
REMARK VINA RESULT:      -7.9      1.317      1.667
REMARK  Name = 
REMARK  7 active torsions:
REMARK  status: ('A' for Active; 'I' for Inactive)
REMARK    1  A    between atoms: C_2  and  O_3
REMARK    2  A    between atoms: C_2  and  C_4
REMARK    3  A    between atoms: C_8  and  C_9
REMARK    4  A    between atoms: C_9  and  N_10
REMARK    5  A    between atoms: N_10  and  N_11
REMARK    6  A    between atoms: C_12  and  C_13
REMARK    7  A    between atoms: C_17  and  C_18
REMARK                            x       y       z     vdW  Elec       q    Type
REMARK                         _______ _______ _______ _____ _____    ______ ____
ROOT
ATOM      1  N   UNL     1       8.214   8.386  17.749  0.00  0.00    +0.000 NA
ATOM      2  C   UNL     1       6.957   8.111  17.531  0.00  0.00    +0.000 C 
ENDROOT
BRANCH   2   3
ATOM      3  C   UNL     1       6.491   6.741  17.296  0.00  0.00    +0.000 A 
ATOM      4  C   UNL     1       7.242   5.909  16.473  0.00  0.00    +0.000 A 
ATOM      5  C   UNL     1       6.825   4.598  16.275  0.00  0.00    +0.000 A 
ATOM      6  C   UNL     1       5.656   4.134  16.889  0.00  0.00    +0.000 A 
ATOM      7  C   UNL     1       4.858   4.972  17.696  0.00  0.00    +0.000 A 
ATOM      8  C   UNL     1       5.306   6.286  17.884  0.00  0.00    +0.000 A 
BRANCH   7   9
ATOM      9  C   UNL     1       3.605   4.486  18.324  0.00  0.00    +0.000 A 
ATOM     10  C   UNL     1       2.595   3.869  17.556  0.00  0.00    +0.000 A 
ATOM     11  C   UNL     1       1.413   3.405  18.139  0.00  0.00    +0.000 A 
ATOM     12  C   UNL     1       1.217   3.559  19.504  0.00  0.00    +0.000 A 
ATOM     13  F   UNL     1       0.084   3.124  20.062  0.00  0.00    +0.000 F 
ATOM     14  C   UNL     1       2.190   4.158  20.292  0.00  0.00    +0.000 A 
ATOM     15  C   UNL     1       3.376   4.609  19.707  0.00  0.00    +0.000 A 
ENDBRANCH   7   9
ENDBRANCH   2   3
BRANCH   1  16
ATOM     16  N   UNL     1       8.408   9.705  17.958  0.00  0.00    +0.000 N 
ATOM     17  H   UNL     1       7.509  10.195  17.889  0.00  0.00    +0.000 HD
BRANCH  16  18
ATOM     18  C   UNL     1       9.038  10.097  19.212  0.00  0.00    +0.000 C 
BRANCH  18  23
ATOM     19  C   UNL     1       9.606  13.263  17.896  0.00  0.00    +0.000 C 
ATOM     20  C   UNL     1      10.057  13.918  19.209  0.00  0.00    +0.000 C 
ATOM     21  N   UNL     1       9.864  13.052  20.376  0.00  0.00    +0.000 NA
ATOM     22  C   UNL     1      10.647  11.824  20.245  0.00  0.00    +0.000 C 
ATOM     23  C   UNL     1      10.281  10.988  19.009  0.00  0.00    +0.000 C 
ATOM     24  C   UNL     1      10.225  11.863  17.737  0.00  0.00    +0.000 C 
ATOM     25  H   UNL     1       8.866  12.825  20.415  0.00  0.00    +0.000 HD
BRANCH  19  27
ATOM     26  O   UNL     1       7.369  14.151  18.301  0.00  0.00    +0.000 OA
ATOM     27  C   UNL     1       8.092  13.349  17.723  0.00  0.00    +0.000 C 
BRANCH  27  28
ATOM     28  O   UNL     1       7.601  12.545  16.752  0.00  0.00    +0.000 OA
ATOM     29  H   UNL     1       6.632  12.549  16.666  0.00  0.00    +0.000 HD
ENDBRANCH  27  28
ENDBRANCH  19  27
ENDBRANCH  18  23
ENDBRANCH  16  18
ENDBRANCH   1  16
TORSDOF 7
ENDMDL
