MODEL 1
REMARK VINA RESULT:      -8.5      0.000      0.000
REMARK  Name = 
REMARK  3 active torsions:
REMARK  status: ('A' for Active; 'I' for Inactive)
REMARK    1  A    between atoms: C_4  and  C_5
REMARK    2  A    between atoms: C_5  and  N_6
REMARK    3  A    between atoms: C_5  and  C_13
REMARK                            x       y       z     vdW  Elec       q    Type
REMARK                         _______ _______ _______ _____ _____    ______ ____
ROOT
ATOM      1  C   UNL     1       3.054   5.968  18.696  0.00  0.00    +0.000 C 
ENDROOT
BRANCH   1   2
ATOM      2  N   UNL     1       4.378   5.920  19.345  0.00  0.00    +0.000 NA
ATOM      3  C   UNL     1       5.331   5.180  18.894  0.00  0.00    +0.000 C 
ATOM      4  C   UNL     1       5.265   4.202  17.736  0.00  0.00    +0.000 C 
ATOM      5  C   UNL     1       6.374   4.548  16.750  0.00  0.00    +0.000 C 
ATOM      6  C   UNL     1       7.729   4.563  17.457  0.00  0.00    +0.000 C 
ATOM      7  C   UNL     1       7.727   5.508  18.657  0.00  0.00    +0.000 C 
ATOM      8  N   UNL     1       6.559   5.291  19.502  0.00  0.00    +0.000 N 
ATOM      9  H   UNL     1       6.502   5.974  20.254  0.00  0.00    +0.000 HD
ENDBRANCH   1   2
BRANCH   1  13
ATOM     10  C   UNL     1       1.021   9.779  19.203  0.00  0.00    +0.000 A 
ATOM     11  C   UNL     1       1.183   8.920  20.289  0.00  0.00    +0.000 A 
ATOM     12  C   UNL     1       1.865   7.709  20.130  0.00  0.00    +0.000 A 
ATOM     13  C   UNL     1       2.389   7.334  18.882  0.00  0.00    +0.000 A 
ATOM     14  C   UNL     1       2.248   8.234  17.809  0.00  0.00    +0.000 A 
ATOM     15  C   UNL     1       1.563   9.444  17.966  0.00  0.00    +0.000 A 
ENDBRANCH   1  13
BRANCH   1  16
ATOM     16  C   UNL     1       2.182   4.804  19.165  0.00  0.00    +0.000 A 
ATOM     17  C   UNL     1       1.548   3.974  18.223  0.00  0.00    +0.000 A 
ATOM     18  C   UNL     1       0.818   2.855  18.631  0.00  0.00    +0.000 A 
ATOM     19  C   UNL     1       0.705   2.553  19.985  0.00  0.00    +0.000 A 
ATOM     20  C   UNL     1       1.306   3.378  20.933  0.00  0.00    +0.000 A 
ATOM     21  C   UNL     1       2.032   4.501  20.526  0.00  0.00    +0.000 A 
ENDBRANCH   1  16
TORSDOF 3
ENDMDL
MODEL 2
REMARK VINA RESULT:      -8.4      1.175      4.309
REMARK  Name = 
REMARK  3 active torsions:
REMARK  status: ('A' for Active; 'I' for Inactive)
REMARK    1  A    between atoms: C_4  and  C_5
REMARK    2  A    between atoms: C_5  and  N_6
REMARK    3  A    between atoms: C_5  and  C_13
REMARK                            x       y       z     vdW  Elec       q    Type
REMARK                         _______ _______ _______ _____ _____    ______ ____
ROOT
ATOM      1  C   UNL     1       3.159   6.135  18.938  0.00  0.00    +0.000 C 
ENDROOT
BRANCH   1   2
ATOM      2  N   UNL     1       3.585   5.869  17.551  0.00  0.00    +0.000 NA
ATOM      3  C   UNL     1       4.829   5.788  17.223  0.00  0.00    +0.000 C 
ATOM      4  C   UNL     1       6.031   6.023  18.118  0.00  0.00    +0.000 C 
ATOM      5  C   UNL     1       6.933   4.797  18.044  0.00  0.00    +0.000 C 
ATOM      6  C   UNL     1       7.305   4.498  16.592  0.00  0.00    +0.000 C 
ATOM      7  C   UNL     1       6.064   4.338  15.716  0.00  0.00    +0.000 C 
ATOM      8  N   UNL     1       5.119   5.427  15.929  0.00  0.00    +0.000 N 
ATOM      9  H   UNL     1       4.252   5.283  15.417  0.00  0.00    +0.000 HD
ENDBRANCH   1   2
BRANCH   1  13
ATOM     10  C   UNL     1       1.120   2.668  20.591  0.00  0.00    +0.000 A 
ATOM     11  C   UNL     1       1.880   3.495  21.416  0.00  0.00    +0.000 A 
ATOM     12  C   UNL     1       2.509   4.627  20.888  0.00  0.00    +0.000 A 
ATOM     13  C   UNL     1       2.395   4.946  19.525  0.00  0.00    +0.000 A 
ATOM     14  C   UNL     1       1.591   4.118  18.717  0.00  0.00    +0.000 A 
ATOM     15  C   UNL     1       0.965   2.984  19.245  0.00  0.00    +0.000 A 
ENDBRANCH   1  13
BRANCH   1  16
ATOM     16  C   UNL     1       2.387   7.450  19.023  0.00  0.00    +0.000 A 
ATOM     17  C   UNL     1       2.238   8.255  17.879  0.00  0.00    +0.000 A 
ATOM     18  C   UNL     1       1.463   9.417  17.917  0.00  0.00    +0.000 A 
ATOM     19  C   UNL     1       0.833   9.795  19.099  0.00  0.00    +0.000 A 
ATOM     20  C   UNL     1       0.990   9.022  20.248  0.00  0.00    +0.000 A 
ATOM     21  C   UNL     1       1.769   7.863  20.212  0.00  0.00    +0.000 A 
ENDBRANCH   1  16
TORSDOF 3
ENDMDL
MODEL 3
REMARK VINA RESULT:      -8.4      1.174      4.443
REMARK  Name = 
REMARK  3 active torsions:
REMARK  status: ('A' for Active; 'I' for Inactive)
REMARK    1  A    between atoms: C_4  and  C_5
REMARK    2  A    between atoms: C_5  and  N_6
REMARK    3  A    between atoms: C_5  and  C_13
REMARK                            x       y       z     vdW  Elec       q    Type
REMARK                         _______ _______ _______ _____ _____    ______ ____
ROOT
ATOM      1  C   UNL     1       3.153   6.104  18.938  0.00  0.00    +0.000 C 
ENDROOT
BRANCH   1   2
ATOM      2  N   UNL     1       3.579   5.792  17.561  0.00  0.00    +0.000 NA
ATOM      3  C   UNL     1       4.823   5.735  17.229  0.00  0.00    +0.000 C 
ATOM      4  C   UNL     1       6.022   6.044  18.106  0.00  0.00    +0.000 C 
ATOM      5  C   UNL     1       6.961   4.844  18.078  0.00  0.00    +0.000 C 
ATOM      6  C   UNL     1       7.334   4.493  16.638  0.00  0.00    +0.000 C 
ATOM      7  C   UNL     1       6.094   4.258  15.777  0.00  0.00    +0.000 C 
ATOM      8  N   UNL     1       5.118   5.327  15.950  0.00  0.00    +0.000 N 
ATOM      9  H   UNL     1       4.253   5.136  15.450  0.00  0.00    +0.000 HD
ENDBRANCH   1   2
BRANCH   1  13
ATOM     10  C   UNL     1       1.170   2.668  20.720  0.00  0.00    +0.000 A 
ATOM     11  C   UNL     1       1.987   3.488  21.496  0.00  0.00    +0.000 A 
ATOM     12  C   UNL     1       2.598   4.610  20.928  0.00  0.00    +0.000 A 
ATOM     13  C   UNL     1       2.409   4.926  19.573  0.00  0.00    +0.000 A 
ATOM     14  C   UNL     1       1.550   4.107  18.817  0.00  0.00    +0.000 A 
ATOM     15  C   UNL     1       0.942   2.981  19.384  0.00  0.00    +0.000 A 
ENDBRANCH   1  13
BRANCH   1  16
ATOM     16  C   UNL     1       2.359   7.409  18.975  0.00  0.00    +0.000 A 
ATOM     17  C   UNL     1       1.756   7.834  20.171  0.00  0.00    +0.000 A 
ATOM     18  C   UNL     1       1.100   9.065  20.245  0.00  0.00    +0.000 A 
ATOM     19  C   UNL     1       1.031   9.886  19.122  0.00  0.00    +0.000 A 
ATOM     20  C   UNL     1       1.603   9.470  17.922  0.00  0.00    +0.000 A 
ATOM     21  C   UNL     1       2.254   8.236  17.846  0.00  0.00    +0.000 A 
ENDBRANCH   1  16
TORSDOF 3
ENDMDL
MODEL 4
REMARK VINA RESULT:      -8.4      0.071      1.080
REMARK  Name = 
REMARK  3 active torsions:
REMARK  status: ('A' for Active; 'I' for Inactive)
REMARK    1  A    between atoms: C_4  and  C_5
REMARK    2  A    between atoms: C_5  and  N_6
REMARK    3  A    between atoms: C_5  and  C_13
REMARK                            x       y       z     vdW  Elec       q    Type
REMARK                         _______ _______ _______ _____ _____    ______ ____
ROOT
ATOM      1  C   UNL     1       3.017   5.941  18.686  0.00  0.00    +0.000 C 
ENDROOT
BRANCH   1   2
ATOM      2  N   UNL     1       4.341   5.929  19.336  0.00  0.00    +0.000 NA
ATOM      3  C   UNL     1       5.306   5.192  18.903  0.00  0.00    +0.000 C 
ATOM      4  C   UNL     1       5.255   4.187  17.768  0.00  0.00    +0.000 C 
ATOM      5  C   UNL     1       6.359   4.526  16.774  0.00  0.00    +0.000 C 
ATOM      6  C   UNL     1       7.713   4.578  17.482  0.00  0.00    +0.000 C 
ATOM      7  C   UNL     1       7.696   5.551  18.658  0.00  0.00    +0.000 C 
ATOM      8  N   UNL     1       6.531   5.336  19.508  0.00  0.00    +0.000 N 
ATOM      9  H   UNL     1       6.463   6.035  20.244  0.00  0.00    +0.000 HD
ENDBRANCH   1   2
BRANCH   1  13
ATOM     10  C   UNL     1       1.185   9.852  19.199  0.00  0.00    +0.000 A 
ATOM     11  C   UNL     1       1.651   9.453  17.947  0.00  0.00    +0.000 A 
ATOM     12  C   UNL     1       2.210   8.183  17.778  0.00  0.00    +0.000 A 
ATOM     13  C   UNL     1       2.321   7.294  18.859  0.00  0.00    +0.000 A 
ATOM     14  C   UNL     1       1.810   7.702  20.106  0.00  0.00    +0.000 A 
ATOM     15  C   UNL     1       1.254   8.974  20.277  0.00  0.00    +0.000 A 
ENDBRANCH   1  13
BRANCH   1  16
ATOM     16  C   UNL     1       2.171   4.762  19.164  0.00  0.00    +0.000 A 
ATOM     17  C   UNL     1       1.538   3.924  18.229  0.00  0.00    +0.000 A 
ATOM     18  C   UNL     1       0.832   2.792  18.644  0.00  0.00    +0.000 A 
ATOM     19  C   UNL     1       0.742   2.486  20.000  0.00  0.00    +0.000 A 
ATOM     20  C   UNL     1       1.342   3.319  20.941  0.00  0.00    +0.000 A 
ATOM     21  C   UNL     1       2.043   4.454  20.527  0.00  0.00    +0.000 A 
ENDBRANCH   1  16
TORSDOF 3
ENDMDL
MODEL 5
REMARK VINA RESULT:      -8.4      1.183      4.376
REMARK  Name = 
REMARK  3 active torsions:
REMARK  status: ('A' for Active; 'I' for Inactive)
REMARK    1  A    between atoms: C_4  and  C_5
REMARK    2  A    between atoms: C_5  and  N_6
REMARK    3  A    between atoms: C_5  and  C_13
REMARK                            x       y       z     vdW  Elec       q    Type
REMARK                         _______ _______ _______ _____ _____    ______ ____
ROOT
ATOM      1  C   UNL     1       3.227   6.071  18.993  0.00  0.00    +0.000 C 
ENDROOT
BRANCH   1   2
ATOM      2  N   UNL     1       3.605   5.784  17.596  0.00  0.00    +0.000 NA
ATOM      3  C   UNL     1       4.837   5.723  17.223  0.00  0.00    +0.000 C 
ATOM      4  C   UNL     1       6.067   6.005  18.065  0.00  0.00    +0.000 C 
ATOM      5  C   UNL     1       6.994   4.798  17.982  0.00  0.00    +0.000 C 
ATOM      6  C   UNL     1       7.316   4.475  16.523  0.00  0.00    +0.000 C 
ATOM      7  C   UNL     1       6.047   4.267  15.700  0.00  0.00    +0.000 C 
ATOM      8  N   UNL     1       5.086   5.340  15.926  0.00  0.00    +0.000 N 
ATOM      9  H   UNL     1       4.204   5.166  15.451  0.00  0.00    +0.000 HD
ENDBRANCH   1   2
BRANCH   1  13
ATOM     10  C   UNL     1       1.084   2.776  20.854  0.00  0.00    +0.000 A 
ATOM     11  C   UNL     1       0.850   3.101  19.519  0.00  0.00    +0.000 A 
ATOM     12  C   UNL     1       1.564   4.140  18.914  0.00  0.00    +0.000 A 
ATOM     13  C   UNL     1       2.516   4.877  19.636  0.00  0.00    +0.000 A 
ATOM     14  C   UNL     1       2.764   4.508  20.972  0.00  0.00    +0.000 A 
ATOM     15  C   UNL     1       2.047   3.471  21.579  0.00  0.00    +0.000 A 
ENDBRANCH   1  13
BRANCH   1  16
ATOM     16  C   UNL     1       2.426   7.368  19.079  0.00  0.00    +0.000 A 
ATOM     17  C   UNL     1       2.227   8.151  17.928  0.00  0.00    +0.000 A 
ATOM     18  C   UNL     1       1.425   9.295  17.970  0.00  0.00    +0.000 A 
ATOM     19  C   UNL     1       0.817   9.677  19.163  0.00  0.00    +0.000 A 
ATOM     20  C   UNL     1       1.024   8.926  20.319  0.00  0.00    +0.000 A 
ATOM     21  C   UNL     1       1.830   7.785  20.279  0.00  0.00    +0.000 A 
ENDBRANCH   1  16
TORSDOF 3
ENDMDL
MODEL 6
REMARK VINA RESULT:      -8.4      1.181      4.520
REMARK  Name = 
REMARK  3 active torsions:
REMARK  status: ('A' for Active; 'I' for Inactive)
REMARK    1  A    between atoms: C_4  and  C_5
REMARK    2  A    between atoms: C_5  and  N_6
REMARK    3  A    between atoms: C_5  and  C_13
REMARK                            x       y       z     vdW  Elec       q    Type
REMARK                         _______ _______ _______ _____ _____    ______ ____
ROOT
ATOM      1  C   UNL     1       3.167   6.255  18.846  0.00  0.00    +0.000 C 
ENDROOT
BRANCH   1   2
ATOM      2  N   UNL     1       3.634   6.060  17.460  0.00  0.00    +0.000 NA
ATOM      3  C   UNL     1       4.883   5.917  17.176  0.00  0.00    +0.000 C 
ATOM      4  C   UNL     1       6.058   6.004  18.132  0.00  0.00    +0.000 C 
ATOM      5  C   UNL     1       6.880   4.728  18.002  0.00  0.00    +0.000 C 
ATOM      6  C   UNL     1       7.294   4.508  16.547  0.00  0.00    +0.000 C 
ATOM      7  C   UNL     1       6.085   4.497  15.614  0.00  0.00    +0.000 C 
ATOM      8  N   UNL     1       5.205   5.630  15.871  0.00  0.00    +0.000 N 
ATOM      9  H   UNL     1       4.354   5.584  15.317  0.00  0.00    +0.000 HD
ENDBRANCH   1   2
BRANCH   1  13
ATOM     10  C   UNL     1       1.052   2.780  20.384  0.00  0.00    +0.000 A 
ATOM     11  C   UNL     1       0.994   3.093  19.027  0.00  0.00    +0.000 A 
ATOM     12  C   UNL     1       1.701   4.193  18.530  0.00  0.00    +0.000 A 
ATOM     13  C   UNL     1       2.470   5.001  19.382  0.00  0.00    +0.000 A 
ATOM     14  C   UNL     1       2.546   4.644  20.742  0.00  0.00    +0.000 A 
ATOM     15  C   UNL     1       1.836   3.546  21.240  0.00  0.00    +0.000 A 
ENDBRANCH   1  13
BRANCH   1  16
ATOM     16  C   UNL     1       2.310   7.514  18.954  0.00  0.00    +0.000 A 
ATOM     17  C   UNL     1       1.753   7.884  20.191  0.00  0.00    +0.000 A 
ATOM     18  C   UNL     1       1.038   9.077  20.327  0.00  0.00    +0.000 A 
ATOM     19  C   UNL     1       0.864   9.914  19.228  0.00  0.00    +0.000 A 
ATOM     20  C   UNL     1       1.388   9.550  17.989  0.00  0.00    +0.000 A 
ATOM     21  C   UNL     1       2.098   8.355  17.851  0.00  0.00    +0.000 A 
ENDBRANCH   1  16
TORSDOF 3
ENDMDL
MODEL 7
REMARK VINA RESULT:      -8.3      2.897      6.861
REMARK  Name = 
REMARK  3 active torsions:
REMARK  status: ('A' for Active; 'I' for Inactive)
REMARK    1  A    between atoms: C_4  and  C_5
REMARK    2  A    between atoms: C_5  and  N_6
REMARK    3  A    between atoms: C_5  and  C_13
REMARK                            x       y       z     vdW  Elec       q    Type
REMARK                         _______ _______ _______ _____ _____    ______ ____
ROOT
ATOM      1  C   UNL     1       5.493   4.825  15.946  0.00  0.00    +0.000 C 
ENDROOT
BRANCH   1   2
ATOM      2  N   UNL     1       4.999   3.598  16.599  0.00  0.00    +0.000 NA
ATOM      3  C   UNL     1       4.040   3.623  17.459  0.00  0.00    +0.000 C 
ATOM      4  C   UNL     1       3.330   4.846  18.009  0.00  0.00    +0.000 C 
ATOM      5  C   UNL     1       1.833   4.672  17.792  0.00  0.00    +0.000 C 
ATOM      6  C   UNL     1       1.354   3.360  18.414  0.00  0.00    +0.000 C 
ATOM      7  C   UNL     1       2.143   2.165  17.883  0.00  0.00    +0.000 C 
ATOM      8  N   UNL     1       3.578   2.415  17.926  0.00  0.00    +0.000 N 
ATOM      9  H   UNL     1       4.108   1.662  17.493  0.00  0.00    +0.000 HD
ENDBRANCH   1   2
BRANCH   1  13
ATOM     10  C   UNL     1       7.083   4.107  11.963  0.00  0.00    +0.000 A 
ATOM     11  C   UNL     1       7.746   4.963  12.840  0.00  0.00    +0.000 A 
ATOM     12  C   UNL     1       7.250   5.168  14.131  0.00  0.00    +0.000 A 
ATOM     13  C   UNL     1       6.079   4.526  14.564  0.00  0.00    +0.000 A 
ATOM     14  C   UNL     1       5.445   3.636  13.675  0.00  0.00    +0.000 A 
ATOM     15  C   UNL     1       5.939   3.435  12.382  0.00  0.00    +0.000 A 
ENDBRANCH   1  13
BRANCH   1  16
ATOM     16  C   UNL     1       6.461   5.571  16.863  0.00  0.00    +0.000 A 
ATOM     17  C   UNL     1       6.586   6.968  16.769  0.00  0.00    +0.000 A 
ATOM     18  C   UNL     1       7.401   7.676  17.656  0.00  0.00    +0.000 A 
ATOM     19  C   UNL     1       8.109   6.997  18.644  0.00  0.00    +0.000 A 
ATOM     20  C   UNL     1       8.016   5.610  18.736  0.00  0.00    +0.000 A 
ATOM     21  C   UNL     1       7.205   4.901  17.846  0.00  0.00    +0.000 A 
ENDBRANCH   1  16
TORSDOF 3
ENDMDL
MODEL 8
REMARK VINA RESULT:      -8.3      2.910      6.844
REMARK  Name = 
REMARK  3 active torsions:
REMARK  status: ('A' for Active; 'I' for Inactive)
REMARK    1  A    between atoms: C_4  and  C_5
REMARK    2  A    between atoms: C_5  and  N_6
REMARK    3  A    between atoms: C_5  and  C_13
REMARK                            x       y       z     vdW  Elec       q    Type
REMARK                         _______ _______ _______ _____ _____    ______ ____
ROOT
ATOM      1  C   UNL     1       5.449   4.878  15.971  0.00  0.00    +0.000 C 
ENDROOT
BRANCH   1   2
ATOM      2  N   UNL     1       4.985   3.635  16.614  0.00  0.00    +0.000 NA
ATOM      3  C   UNL     1       4.019   3.628  17.468  0.00  0.00    +0.000 C 
ATOM      4  C   UNL     1       3.271   4.829  18.016  0.00  0.00    +0.000 C 
ATOM      5  C   UNL     1       1.780   4.613  17.787  0.00  0.00    +0.000 C 
ATOM      6  C   UNL     1       1.335   3.286  18.400  0.00  0.00    +0.000 C 
ATOM      7  C   UNL     1       2.161   2.116  17.870  0.00  0.00    +0.000 C 
ATOM      8  N   UNL     1       3.588   2.406  17.926  0.00  0.00    +0.000 N 
ATOM      9  H   UNL     1       4.142   1.671  17.494  0.00  0.00    +0.000 HD
ENDBRANCH   1   2
BRANCH   1  13
ATOM     10  C   UNL     1       7.067   3.983  12.035  0.00  0.00    +0.000 A 
ATOM     11  C   UNL     1       5.851   3.432  12.436  0.00  0.00    +0.000 A 
ATOM     12  C   UNL     1       5.318   3.747  13.690  0.00  0.00    +0.000 A 
ATOM     13  C   UNL     1       5.995   4.611  14.566  0.00  0.00    +0.000 A 
ATOM     14  C   UNL     1       7.202   5.186  14.125  0.00  0.00    +0.000 A 
ATOM     15  C   UNL     1       7.738   4.868  12.872  0.00  0.00    +0.000 A 
ENDBRANCH   1  13
BRANCH   1  16
ATOM     16  C   UNL     1       6.439   5.615  16.872  0.00  0.00    +0.000 A 
ATOM     17  C   UNL     1       6.583   7.010  16.768  0.00  0.00    +0.000 A 
ATOM     18  C   UNL     1       7.419   7.710  17.641  0.00  0.00    +0.000 A 
ATOM     19  C   UNL     1       8.128   7.027  18.626  0.00  0.00    +0.000 A 
ATOM     20  C   UNL     1       8.014   5.641  18.727  0.00  0.00    +0.000 A 
ATOM     21  C   UNL     1       7.183   4.940  17.851  0.00  0.00    +0.000 A 
ENDBRANCH   1  16
TORSDOF 3
ENDMDL
MODEL 9
REMARK VINA RESULT:      -8.3      0.891      1.459
REMARK  Name = 
REMARK  3 active torsions:
REMARK  status: ('A' for Active; 'I' for Inactive)
REMARK    1  A    between atoms: C_4  and  C_5
REMARK    2  A    between atoms: C_5  and  N_6
REMARK    3  A    between atoms: C_5  and  C_13
REMARK                            x       y       z     vdW  Elec       q    Type
REMARK                         _______ _______ _______ _____ _____    ______ ____
ROOT
ATOM      1  C   UNL     1       2.941   5.885  18.455  0.00  0.00    +0.000 C 
ENDROOT
BRANCH   1   2
ATOM      2  N   UNL     1       4.411   5.904  18.568  0.00  0.00    +0.000 NA
ATOM      3  C   UNL     1       5.164   5.201  17.793  0.00  0.00    +0.000 C 
ATOM      4  C   UNL     1       4.719   4.207  16.736  0.00  0.00    +0.000 C 
ATOM      5  C   UNL     1       5.368   4.590  15.412  0.00  0.00    +0.000 C 
ATOM      6  C   UNL     1       6.887   4.673  15.569  0.00  0.00    +0.000 C 
ATOM      7  C   UNL     1       7.284   5.633  16.689  0.00  0.00    +0.000 C 
ATOM      8  N   UNL     1       6.523   5.374  17.905  0.00  0.00    +0.000 N 
ATOM      9  H   UNL     1       6.716   6.063  18.628  0.00  0.00    +0.000 HD
ENDBRANCH   1   2
BRANCH   1  13
ATOM     10  C   UNL     1       1.085   9.730  19.279  0.00  0.00    +0.000 A 
ATOM     11  C   UNL     1       1.264   8.803  20.304  0.00  0.00    +0.000 A 
ATOM     12  C   UNL     1       1.890   7.580  20.043  0.00  0.00    +0.000 A 
ATOM     13  C   UNL     1       2.339   7.261  18.752  0.00  0.00    +0.000 A 
ATOM     14  C   UNL     1       2.183   8.227  17.739  0.00  0.00    +0.000 A 
ATOM     15  C   UNL     1       1.554   9.449  18.000  0.00  0.00    +0.000 A 
ENDBRANCH   1  13
BRANCH   1  16
ATOM     16  C   UNL     1       2.349   4.770  19.315  0.00  0.00    +0.000 A 
ATOM     17  C   UNL     1       2.743   4.629  20.657  0.00  0.00    +0.000 A 
ATOM     18  C   UNL     1       2.150   3.670  21.482  0.00  0.00    +0.000 A 
ATOM     19  C   UNL     1       1.159   2.833  20.976  0.00  0.00    +0.000 A 
ATOM     20  C   UNL     1       0.774   2.942  19.641  0.00  0.00    +0.000 A 
ATOM     21  C   UNL     1       1.370   3.897  18.815  0.00  0.00    +0.000 A 
ENDBRANCH   1  16
TORSDOF 3
ENDMDL
