MODEL 1
REMARK VINA RESULT:      -5.8      0.000      0.000
REMARK  Name = 
REMARK  7 active torsions:
REMARK  status: ('A' for Active; 'I' for Inactive)
REMARK    1  A    between atoms: C_1  and  C_2
REMARK    2  A    between atoms: N_4  and  C_5
REMARK    3  A    between atoms: C_5  and  C_6
REMARK    4  A    between atoms: CA_8  and  C_9
REMARK    5  A    between atoms: C_9  and  O_10
REMARK    6  A    between atoms: C_11  and  O_12
REMARK    7  A    between atoms: C_13  and  O_14
REMARK                            x       y       z     vdW  Elec       q    Type
REMARK                         _______ _______ _______ _____ _____    ______ ____
ROOT
ATOM      1  C   UNL     1       3.510   2.062  18.218  0.00  0.00    +0.000 C 
ATOM      2  N   UNL     1       2.051   1.769  18.350  0.00  0.00    +0.000 NA
ATOM      3  CA  UNL     1       1.663   2.189  19.734  0.00  0.00    +0.000 C 
ATOM      4  C   UNL     1       2.913   2.757  20.420  0.00  0.00    +0.000 C 
ATOM      5  C   UNL     1       4.041   2.062  19.658  0.00  0.00    +0.000 C 
ATOM      6  H   UNL     1       1.937   0.752  18.310  0.00  0.00    +0.000 HD
ENDROOT
BRANCH   4   7
ATOM      7  O   UNL     1       2.948   2.482  21.815  0.00  0.00    +0.000 OA
ATOM      8  H   UNL     1       3.566   3.098  22.246  0.00  0.00    +0.000 HD
ENDBRANCH   4   7
BRANCH   5   9
ATOM      9  O   UNL     1       5.306   2.684  19.816  0.00  0.00    +0.000 OA
ATOM     10  H   UNL     1       5.180   3.629  20.018  0.00  0.00    +0.000 HD
ENDBRANCH   5   9
BRANCH   1  11
ATOM     11  C   UNL     1       3.756   3.408  17.506  0.00  0.00    +0.000 C 
BRANCH  11  15
ATOM     12  C   UNL     1       7.233   4.565  16.615  0.00  0.00    +0.000 C 
ATOM     13  C   UNL     1       5.907   4.542  17.321  0.00  0.00    +0.000 C 
ATOM     14  O   UNL     1       5.610   5.346  18.195  0.00  0.00    +0.000 OA
ATOM     15  N   UNL     1       5.074   3.519  16.913  0.00  0.00    +0.000 N 
ATOM     16  H   UNL     1       5.238   3.067  16.024  0.00  0.00    +0.000 HD
ENDBRANCH  11  15
ENDBRANCH   1  11
BRANCH   3  17
ATOM     17  C   UNL     1       0.515   3.206  19.696  0.00  0.00    +0.000 C 
BRANCH  17  18
ATOM     18  O   UNL     1       0.856   4.348  20.482  0.00  0.00    +0.000 OA
ATOM     19  H   UNL     1       0.727   4.068  21.409  0.00  0.00    +0.000 HD
ENDBRANCH  17  18
ENDBRANCH   3  17
TORSDOF 6
ENDMDL
MODEL 2
REMARK VINA RESULT:      -5.7      2.095      5.519
REMARK  Name = 
REMARK  7 active torsions:
REMARK  status: ('A' for Active; 'I' for Inactive)
REMARK    1  A    between atoms: C_1  and  C_2
REMARK    2  A    between atoms: N_4  and  C_5
REMARK    3  A    between atoms: C_5  and  C_6
REMARK    4  A    between atoms: CA_8  and  C_9
REMARK    5  A    between atoms: C_9  and  O_10
REMARK    6  A    between atoms: C_11  and  O_12
REMARK    7  A    between atoms: C_13  and  O_14
REMARK                            x       y       z     vdW  Elec       q    Type
REMARK                         _______ _______ _______ _____ _____    ______ ____
ROOT
ATOM      1  C   UNL     1       4.444   4.927  17.585  0.00  0.00    +0.000 C 
ATOM      2  N   UNL     1       4.854   5.828  16.466  0.00  0.00    +0.000 NA
ATOM      3  CA  UNL     1       6.290   5.512  16.179  0.00  0.00    +0.000 C 
ATOM      4  C   UNL     1       6.724   4.391  17.134  0.00  0.00    +0.000 C 
ATOM      5  C   UNL     1       5.754   4.572  18.302  0.00  0.00    +0.000 C 
ATOM      6  H   UNL     1       4.832   6.789  16.819  0.00  0.00    +0.000 HD
ENDROOT
BRANCH   4   7
ATOM      7  O   UNL     1       8.084   4.505  17.534  0.00  0.00    +0.000 OA
ATOM      8  H   UNL     1       8.281   5.438  17.729  0.00  0.00    +0.000 HD
ENDBRANCH   4   7
BRANCH   5   9
ATOM      9  O   UNL     1       5.667   3.441  19.153  0.00  0.00    +0.000 OA
ATOM     10  H   UNL     1       6.565   3.135  19.379  0.00  0.00    +0.000 HD
ENDBRANCH   5   9
BRANCH   1  11
ATOM     11  C   UNL     1       3.705   3.677  17.066  0.00  0.00    +0.000 C 
BRANCH  11  15
ATOM     12  C   UNL     1       0.791   2.660  19.233  0.00  0.00    +0.000 C 
ATOM     13  C   UNL     1       1.538   3.374  18.142  0.00  0.00    +0.000 C 
ATOM     14  O   UNL     1       0.997   4.164  17.379  0.00  0.00    +0.000 OA
ATOM     15  N   UNL     1       2.875   3.036  18.065  0.00  0.00    +0.000 N 
ATOM     16  H   UNL     1       3.327   2.610  18.862  0.00  0.00    +0.000 HD
ENDBRANCH  11  15
ENDBRANCH   1  11
BRANCH   3  17
ATOM     17  C   UNL     1       6.480   5.119  14.707  0.00  0.00    +0.000 C 
BRANCH  17  18
ATOM     18  O   UNL     1       7.835   5.347  14.320  0.00  0.00    +0.000 OA
ATOM     19  H   UNL     1       7.916   6.316  14.228  0.00  0.00    +0.000 HD
ENDBRANCH  17  18
ENDBRANCH   3  17
TORSDOF 6
ENDMDL
MODEL 3
REMARK VINA RESULT:      -5.7      2.042      2.557
REMARK  Name = 
REMARK  7 active torsions:
REMARK  status: ('A' for Active; 'I' for Inactive)
REMARK    1  A    between atoms: C_1  and  C_2
REMARK    2  A    between atoms: N_4  and  C_5
REMARK    3  A    between atoms: C_5  and  C_6
REMARK    4  A    between atoms: CA_8  and  C_9
REMARK    5  A    between atoms: C_9  and  O_10
REMARK    6  A    between atoms: C_11  and  O_12
REMARK    7  A    between atoms: C_13  and  O_14
REMARK                            x       y       z     vdW  Elec       q    Type
REMARK                         _______ _______ _______ _____ _____    ______ ____
ROOT
ATOM      1  C   UNL     1       3.214   4.408  19.146  0.00  0.00    +0.000 C 
ATOM      2  N   UNL     1       2.401   4.606  20.384  0.00  0.00    +0.000 NA
ATOM      3  CA  UNL     1       1.317   3.573  20.343  0.00  0.00    +0.000 C 
ATOM      4  C   UNL     1       1.509   2.742  19.067  0.00  0.00    +0.000 C 
ATOM      5  C   UNL     1       2.263   3.715  18.161  0.00  0.00    +0.000 C 
ATOM      6  H   UNL     1       1.940   5.517  20.308  0.00  0.00    +0.000 HD
ENDROOT
BRANCH   4   7
ATOM      7  O   UNL     1       0.278   2.312  18.500  0.00  0.00    +0.000 OA
ATOM      8  H   UNL     1      -0.111   1.625  19.067  0.00  0.00    +0.000 HD
ENDBRANCH   4   7
BRANCH   5   9
ATOM      9  O   UNL     1       2.910   3.090  17.064  0.00  0.00    +0.000 OA
ATOM     10  H   UNL     1       2.978   3.720  16.325  0.00  0.00    +0.000 HD
ENDBRANCH   5   9
BRANCH   1  11
ATOM     11  C   UNL     1       4.478   3.570  19.425  0.00  0.00    +0.000 C 
BRANCH  11  15
ATOM     12  C   UNL     1       7.532   4.706  17.526  0.00  0.00    +0.000 C 
ATOM     13  C   UNL     1       6.540   4.618  18.651  0.00  0.00    +0.000 C 
ATOM     14  O   UNL     1       6.653   5.265  19.684  0.00  0.00    +0.000 OA
ATOM     15  N   UNL     1       5.511   3.725  18.421  0.00  0.00    +0.000 N 
ATOM     16  H   UNL     1       5.307   3.433  17.475  0.00  0.00    +0.000 HD
ENDBRANCH  11  15
ENDBRANCH   1  11
BRANCH   3  17
ATOM     17  C   UNL     1       1.343   2.703  21.607  0.00  0.00    +0.000 C 
BRANCH  17  18
ATOM     18  O   UNL     1       2.689   2.545  22.055  0.00  0.00    +0.000 OA
ATOM     19  H   UNL     1       2.623   2.051  22.894  0.00  0.00    +0.000 HD
ENDBRANCH  17  18
ENDBRANCH   3  17
TORSDOF 6
ENDMDL
MODEL 4
REMARK VINA RESULT:      -5.6      2.058      5.392
REMARK  Name = 
REMARK  7 active torsions:
REMARK  status: ('A' for Active; 'I' for Inactive)
REMARK    1  A    between atoms: C_1  and  C_2
REMARK    2  A    between atoms: N_4  and  C_5
REMARK    3  A    between atoms: C_5  and  C_6
REMARK    4  A    between atoms: CA_8  and  C_9
REMARK    5  A    between atoms: C_9  and  O_10
REMARK    6  A    between atoms: C_11  and  O_12
REMARK    7  A    between atoms: C_13  and  O_14
REMARK                            x       y       z     vdW  Elec       q    Type
REMARK                         _______ _______ _______ _____ _____    ______ ____
ROOT
ATOM      1  C   UNL     1       4.601   5.284  17.633  0.00  0.00    +0.000 C 
ATOM      2  N   UNL     1       5.034   6.028  16.411  0.00  0.00    +0.000 NA
ATOM      3  CA  UNL     1       6.334   5.416  15.988  0.00  0.00    +0.000 C 
ATOM      4  C   UNL     1       6.659   4.280  16.968  0.00  0.00    +0.000 C 
ATOM      5  C   UNL     1       5.897   4.709  18.221  0.00  0.00    +0.000 C 
ATOM      6  H   UNL     1       5.242   6.990  16.694  0.00  0.00    +0.000 HD
ENDROOT
BRANCH   4   7
ATOM      7  O   UNL     1       8.054   4.138  17.202  0.00  0.00    +0.000 OA
ATOM      8  H   UNL     1       8.474   3.764  16.408  0.00  0.00    +0.000 HD
ENDBRANCH   4   7
BRANCH   5   9
ATOM      9  O   UNL     1       5.700   3.662  19.157  0.00  0.00    +0.000 OA
ATOM     10  H   UNL     1       6.040   3.937  20.028  0.00  0.00    +0.000 HD
ENDBRANCH   5   9
BRANCH   1  11
ATOM     11  C   UNL     1       3.575   4.184  17.294  0.00  0.00    +0.000 C 
BRANCH  11  15
ATOM     12  C   UNL     1       1.058   3.163  19.910  0.00  0.00    +0.000 C 
ATOM     13  C   UNL     1       2.291   3.089  19.054  0.00  0.00    +0.000 C 
ATOM     14  O   UNL     1       3.101   2.175  19.140  0.00  0.00    +0.000 OA
ATOM     15  N   UNL     1       2.435   4.156  18.188  0.00  0.00    +0.000 N 
ATOM     16  H   UNL     1       1.632   4.722  17.958  0.00  0.00    +0.000 HD
ENDBRANCH  11  15
ENDBRANCH   1  11
BRANCH   3  17
ATOM     17  C   UNL     1       6.259   4.921  14.537  0.00  0.00    +0.000 C 
BRANCH  17  18
ATOM     18  O   UNL     1       6.382   3.499  14.506  0.00  0.00    +0.000 OA
ATOM     19  H   UNL     1       7.116   3.293  15.115  0.00  0.00    +0.000 HD
ENDBRANCH  17  18
ENDBRANCH   3  17
TORSDOF 6
ENDMDL
MODEL 5
REMARK VINA RESULT:      -5.6      2.621      5.628
REMARK  Name = 
REMARK  7 active torsions:
REMARK  status: ('A' for Active; 'I' for Inactive)
REMARK    1  A    between atoms: C_1  and  C_2
REMARK    2  A    between atoms: N_4  and  C_5
REMARK    3  A    between atoms: C_5  and  C_6
REMARK    4  A    between atoms: CA_8  and  C_9
REMARK    5  A    between atoms: C_9  and  O_10
REMARK    6  A    between atoms: C_11  and  O_12
REMARK    7  A    between atoms: C_13  and  O_14
REMARK                            x       y       z     vdW  Elec       q    Type
REMARK                         _______ _______ _______ _____ _____    ______ ____
ROOT
ATOM      1  C   UNL     1       6.266   4.270  16.493  0.00  0.00    +0.000 C 
ATOM      2  N   UNL     1       7.093   4.049  17.717  0.00  0.00    +0.000 NA
ATOM      3  CA  UNL     1       7.514   5.407  18.189  0.00  0.00    +0.000 C 
ATOM      4  C   UNL     1       6.906   6.445  17.234  0.00  0.00    +0.000 C 
ATOM      5  C   UNL     1       6.723   5.632  15.952  0.00  0.00    +0.000 C 
ATOM      6  H   UNL     1       7.947   3.563  17.429  0.00  0.00    +0.000 HD
ENDROOT
BRANCH   4   7
ATOM      7  O   UNL     1       7.745   7.577  17.046  0.00  0.00    +0.000 OA
ATOM      8  H   UNL     1       8.604   7.282  16.697  0.00  0.00    +0.000 HD
ENDBRANCH   4   7
BRANCH   5   9
ATOM      9  O   UNL     1       5.828   6.224  15.024  0.00  0.00    +0.000 OA
ATOM     10  H   UNL     1       5.766   5.662  14.230  0.00  0.00    +0.000 HD
ENDBRANCH   5   9
BRANCH   1  11
ATOM     11  C   UNL     1       4.758   4.245  16.813  0.00  0.00    +0.000 C 
BRANCH  11  15
ATOM     12  C   UNL     1       2.778   1.695  18.762  0.00  0.00    +0.000 C 
ATOM     13  C   UNL     1       3.054   2.782  17.763  0.00  0.00    +0.000 C 
ATOM     14  O   UNL     1       2.185   3.248  17.037  0.00  0.00    +0.000 OA
ATOM     15  N   UNL     1       4.374   3.185  17.723  0.00  0.00    +0.000 N 
ATOM     16  H   UNL     1       4.980   2.983  18.506  0.00  0.00    +0.000 HD
ENDBRANCH  11  15
ENDBRANCH   1  11
BRANCH   3  17
ATOM     17  C   UNL     1       7.081   5.640  19.643  0.00  0.00    +0.000 C 
BRANCH  17  18
ATOM     18  O   UNL     1       8.196   5.445  20.513  0.00  0.00    +0.000 OA
ATOM     19  H   UNL     1       8.922   5.143  19.936  0.00  0.00    +0.000 HD
ENDBRANCH  17  18
ENDBRANCH   3  17
TORSDOF 6
ENDMDL
MODEL 6
REMARK VINA RESULT:      -5.6      2.283      5.534
REMARK  Name = 
REMARK  7 active torsions:
REMARK  status: ('A' for Active; 'I' for Inactive)
REMARK    1  A    between atoms: C_1  and  C_2
REMARK    2  A    between atoms: N_4  and  C_5
REMARK    3  A    between atoms: C_5  and  C_6
REMARK    4  A    between atoms: CA_8  and  C_9
REMARK    5  A    between atoms: C_9  and  O_10
REMARK    6  A    between atoms: C_11  and  O_12
REMARK    7  A    between atoms: C_13  and  O_14
REMARK                            x       y       z     vdW  Elec       q    Type
REMARK                         _______ _______ _______ _____ _____    ______ ____
ROOT
ATOM      1  C   UNL     1       6.495   4.279  16.497  0.00  0.00    +0.000 C 
ATOM      2  N   UNL     1       7.367   4.143  17.702  0.00  0.00    +0.000 NA
ATOM      3  CA  UNL     1       7.617   5.534  18.197  0.00  0.00    +0.000 C 
ATOM      4  C   UNL     1       6.861   6.503  17.277  0.00  0.00    +0.000 C 
ATOM      5  C   UNL     1       6.759   5.699  15.980  0.00  0.00    +0.000 C 
ATOM      6  H   UNL     1       8.271   3.777  17.388  0.00  0.00    +0.000 HD
ENDROOT
BRANCH   4   7
ATOM      7  O   UNL     1       7.542   7.738  17.099  0.00  0.00    +0.000 OA
ATOM      8  H   UNL     1       7.188   8.390  17.728  0.00  0.00    +0.000 HD
ENDBRANCH   4   7
BRANCH   5   9
ATOM      9  O   UNL     1       5.776   6.187  15.081  0.00  0.00    +0.000 OA
ATOM     10  H   UNL     1       5.390   5.442  14.586  0.00  0.00    +0.000 HD
ENDBRANCH   5   9
BRANCH   1  11
ATOM     11  C   UNL     1       5.010   4.050  16.844  0.00  0.00    +0.000 C 
BRANCH  11  15
ATOM     12  C   UNL     1       4.074   2.414  20.110  0.00  0.00    +0.000 C 
ATOM     13  C   UNL     1       4.212   3.500  19.082  0.00  0.00    +0.000 C 
ATOM     14  O   UNL     1       3.813   4.643  19.270  0.00  0.00    +0.000 OA
ATOM     15  N   UNL     1       4.801   3.085  17.904  0.00  0.00    +0.000 N 
ATOM     16  H   UNL     1       5.351   2.237  17.894  0.00  0.00    +0.000 HD
ENDBRANCH  11  15
ENDBRANCH   1  11
BRANCH   3  17
ATOM     17  C   UNL     1       7.188   5.679  19.663  0.00  0.00    +0.000 C 
BRANCH  17  18
ATOM     18  O   UNL     1       8.280   5.345  20.520  0.00  0.00    +0.000 OA
ATOM     19  H   UNL     1       8.100   4.435  20.823  0.00  0.00    +0.000 HD
ENDBRANCH  17  18
ENDBRANCH   3  17
TORSDOF 6
ENDMDL
MODEL 7
REMARK VINA RESULT:      -5.6      2.737      5.728
REMARK  Name = 
REMARK  7 active torsions:
REMARK  status: ('A' for Active; 'I' for Inactive)
REMARK    1  A    between atoms: C_1  and  C_2
REMARK    2  A    between atoms: N_4  and  C_5
REMARK    3  A    between atoms: C_5  and  C_6
REMARK    4  A    between atoms: CA_8  and  C_9
REMARK    5  A    between atoms: C_9  and  O_10
REMARK    6  A    between atoms: C_11  and  O_12
REMARK    7  A    between atoms: C_13  and  O_14
REMARK                            x       y       z     vdW  Elec       q    Type
REMARK                         _______ _______ _______ _____ _____    ______ ____
ROOT
ATOM      1  C   UNL     1       5.626   4.705  19.249  0.00  0.00    +0.000 C 
ATOM      2  N   UNL     1       6.859   5.432  19.676  0.00  0.00    +0.000 NA
ATOM      3  CA  UNL     1       7.635   5.710  18.425  0.00  0.00    +0.000 C 
ATOM      4  C   UNL     1       6.832   5.153  17.241  0.00  0.00    +0.000 C 
ATOM      5  C   UNL     1       5.996   4.060  17.907  0.00  0.00    +0.000 C 
ATOM      6  H   UNL     1       7.423   4.783  20.231  0.00  0.00    +0.000 HD
ENDROOT
BRANCH   4   7
ATOM      7  O   UNL     1       7.662   4.647  16.203  0.00  0.00    +0.000 OA
ATOM      8  H   UNL     1       7.287   3.812  15.874  0.00  0.00    +0.000 HD
ENDBRANCH   4   7
BRANCH   5   9
ATOM      9  O   UNL     1       4.884   3.640  17.132  0.00  0.00    +0.000 OA
ATOM     10  H   UNL     1       4.260   4.381  17.032  0.00  0.00    +0.000 HD
ENDBRANCH   5   9
BRANCH   1  11
ATOM     11  C   UNL     1       4.420   5.658  19.126  0.00  0.00    +0.000 C 
BRANCH  11  15
ATOM     12  C   UNL     1       1.176   4.340  20.526  0.00  0.00    +0.000 C 
ATOM     13  C   UNL     1       2.259   4.597  19.517  0.00  0.00    +0.000 C 
ATOM     14  O   UNL     1       2.206   4.176  18.369  0.00  0.00    +0.000 OA
ATOM     15  N   UNL     1       3.323   5.326  20.013  0.00  0.00    +0.000 N 
ATOM     16  H   UNL     1       3.202   5.875  20.851  0.00  0.00    +0.000 HD
ENDBRANCH  11  15
ENDBRANCH   1  11
BRANCH   3  17
ATOM     17  C   UNL     1       7.914   7.212  18.276  0.00  0.00    +0.000 C 
BRANCH  17  18
ATOM     18  O   UNL     1       7.680   7.613  16.926  0.00  0.00    +0.000 OA
ATOM     19  H   UNL     1       6.792   7.273  16.708  0.00  0.00    +0.000 HD
ENDBRANCH  17  18
ENDBRANCH   3  17
TORSDOF 6
ENDMDL
MODEL 8
REMARK VINA RESULT:      -5.5      2.092      5.160
REMARK  Name = 
REMARK  7 active torsions:
REMARK  status: ('A' for Active; 'I' for Inactive)
REMARK    1  A    between atoms: C_1  and  C_2
REMARK    2  A    between atoms: N_4  and  C_5
REMARK    3  A    between atoms: C_5  and  C_6
REMARK    4  A    between atoms: CA_8  and  C_9
REMARK    5  A    between atoms: C_9  and  O_10
REMARK    6  A    between atoms: C_11  and  O_12
REMARK    7  A    between atoms: C_13  and  O_14
REMARK                            x       y       z     vdW  Elec       q    Type
REMARK                         _______ _______ _______ _____ _____    ______ ____
ROOT
ATOM      1  C   UNL     1       4.084   5.548  17.549  0.00  0.00    +0.000 C 
ATOM      2  N   UNL     1       5.252   5.926  16.698  0.00  0.00    +0.000 NA
ATOM      3  CA  UNL     1       6.476   5.622  17.507  0.00  0.00    +0.000 C 
ATOM      4  C   UNL     1       6.017   5.036  18.850  0.00  0.00    +0.000 C 
ATOM      5  C   UNL     1       4.610   5.618  18.990  0.00  0.00    +0.000 C 
ATOM      6  H   UNL     1       5.228   6.943  16.576  0.00  0.00    +0.000 HD
ENDROOT
BRANCH   4   7
ATOM      7  O   UNL     1       6.867   5.402  19.929  0.00  0.00    +0.000 OA
ATOM      8  H   UNL     1       7.794   5.278  19.661  0.00  0.00    +0.000 HD
ENDBRANCH   4   7
BRANCH   5   9
ATOM      9  O   UNL     1       3.804   4.941  19.941  0.00  0.00    +0.000 OA
ATOM     10  H   UNL     1       3.020   4.570  19.496  0.00  0.00    +0.000 HD
ENDBRANCH   5   9
BRANCH   1  11
ATOM     11  C   UNL     1       3.551   4.146  17.190  0.00  0.00    +0.000 C 
BRANCH  11  15
ATOM     12  C   UNL     1       0.675   2.378  18.871  0.00  0.00    +0.000 C 
ATOM     13  C   UNL     1       2.051   2.577  18.302  0.00  0.00    +0.000 C 
ATOM     14  O   UNL     1       2.905   1.700  18.317  0.00  0.00    +0.000 OA
ATOM     15  N   UNL     1       2.267   3.842  17.789  0.00  0.00    +0.000 N 
ATOM     16  H   UNL     1       1.476   4.423  17.549  0.00  0.00    +0.000 HD
ENDBRANCH  11  15
ENDBRANCH   1  11
BRANCH   3  17
ATOM     17  C   UNL     1       7.408   4.667  16.750  0.00  0.00    +0.000 C 
BRANCH  17  18
ATOM     18  O   UNL     1       8.286   4.020  17.671  0.00  0.00    +0.000 OA
ATOM     19  H   UNL     1       8.575   3.204  17.220  0.00  0.00    +0.000 HD
ENDBRANCH  17  18
ENDBRANCH   3  17
TORSDOF 6
ENDMDL
MODEL 9
REMARK VINA RESULT:      -5.5      2.591      5.531
REMARK  Name = 
REMARK  7 active torsions:
REMARK  status: ('A' for Active; 'I' for Inactive)
REMARK    1  A    between atoms: C_1  and  C_2
REMARK    2  A    between atoms: N_4  and  C_5
REMARK    3  A    between atoms: C_5  and  C_6
REMARK    4  A    between atoms: CA_8  and  C_9
REMARK    5  A    between atoms: C_9  and  O_10
REMARK    6  A    between atoms: C_11  and  O_12
REMARK    7  A    between atoms: C_13  and  O_14
REMARK                            x       y       z     vdW  Elec       q    Type
REMARK                         _______ _______ _______ _____ _____    ______ ____
ROOT
ATOM      1  C   UNL     1       5.013   3.897  17.590  0.00  0.00    +0.000 C 
ATOM      2  N   UNL     1       6.145   3.956  18.563  0.00  0.00    +0.000 NA
ATOM      3  CA  UNL     1       7.190   4.828  17.938  0.00  0.00    +0.000 C 
ATOM      4  C   UNL     1       6.653   5.305  16.581  0.00  0.00    +0.000 C 
ATOM      5  C   UNL     1       5.651   4.205  16.228  0.00  0.00    +0.000 C 
ATOM      6  H   UNL     1       6.547   3.016  18.625  0.00  0.00    +0.000 HD
ENDROOT
BRANCH   4   7
ATOM      7  O   UNL     1       7.675   5.444  15.603  0.00  0.00    +0.000 OA
ATOM      8  H   UNL     1       8.012   4.563  15.367  0.00  0.00    +0.000 HD
ENDBRANCH   4   7
BRANCH   5   9
ATOM      9  O   UNL     1       4.726   4.578  15.219  0.00  0.00    +0.000 OA
ATOM     10  H   UNL     1       4.934   4.100  14.396  0.00  0.00    +0.000 HD
ENDBRANCH   5   9
BRANCH   1  11
ATOM     11  C   UNL     1       3.899   4.900  17.953  0.00  0.00    +0.000 C 
BRANCH  11  15
ATOM     12  C   UNL     1       0.942   3.597  19.898  0.00  0.00    +0.000 C 
ATOM     13  C   UNL     1       1.752   4.022  18.706  0.00  0.00    +0.000 C 
ATOM     14  O   UNL     1       1.319   3.974  17.562  0.00  0.00    +0.000 OA
ATOM     15  N   UNL     1       3.030   4.443  19.019  0.00  0.00    +0.000 N 
ATOM     16  H   UNL     1       3.244   4.725  19.965  0.00  0.00    +0.000 HD
ENDBRANCH  11  15
ENDBRANCH   1  11
BRANCH   3  17
ATOM     17  C   UNL     1       7.548   6.001  18.860  0.00  0.00    +0.000 C 
BRANCH  17  18
ATOM     18  O   UNL     1       7.798   5.516  20.180  0.00  0.00    +0.000 OA
ATOM     19  H   UNL     1       8.447   6.137  20.562  0.00  0.00    +0.000 HD
ENDBRANCH  17  18
ENDBRANCH   3  17
TORSDOF 6
ENDMDL
