MODEL 1
REMARK VINA RESULT:      -7.4      0.000      0.000
REMARK  Name = 
REMARK  6 active torsions:
REMARK  status: ('A' for Active; 'I' for Inactive)
REMARK    1  A    between atoms: C_1  and  O_2
REMARK    2  A    between atoms: O_2  and  C_3
REMARK    3  A    between atoms: C_6  and  S_7
REMARK    4  A    between atoms: S_7  and  N_10
REMARK    5  A    between atoms: N_10  and  C_11
REMARK    6  A    between atoms: C_15  and  O_16
REMARK                            x       y       z     vdW  Elec       q    Type
REMARK                         _______ _______ _______ _____ _____    ______ ____
ROOT
ATOM      1  N   UNL     1       4.360   2.856  18.224  0.00  0.00    +0.000 N 
ATOM      2  H   UNL     1       4.728   2.045  18.721  0.00  0.00    +0.000 HD
ENDROOT
BRANCH   1   3
ATOM      3  C   UNL     1       5.213   3.895  17.781  0.00  0.00    +0.000 A 
ATOM      4  C   UNL     1       5.277   4.187  16.419  0.00  0.00    +0.000 A 
ATOM      5  C   UNL     1       6.147   5.178  15.978  0.00  0.00    +0.000 A 
ATOM      6  F   UNL     1       6.244   5.434  14.666  0.00  0.00    +0.000 F 
ATOM      7  C   UNL     1       6.923   5.902  16.876  0.00  0.00    +0.000 A 
ATOM      8  C   UNL     1       6.833   5.617  18.233  0.00  0.00    +0.000 A 
ATOM      9  F   UNL     1       7.570   6.305  19.118  0.00  0.00    +0.000 F 
ATOM     10  C   UNL     1       5.981   4.615  18.696  0.00  0.00    +0.000 A 
BRANCH   7  11
ATOM     11  O   UNL     1       7.764   6.884  16.432  0.00  0.00    +0.000 OA
ATOM     12  H   UNL     1       7.455   7.729  16.806  0.00  0.00    +0.000 HD
ENDBRANCH   7  11
ENDBRANCH   1   3
BRANCH   1  13
ATOM     13  S   UNL     1       2.691   3.026  18.180  0.00  0.00    +0.000 S 
ATOM     14  O   UNL     1       2.159   2.023  19.073  0.00  0.00    +0.000 OA
ATOM     15  O   UNL     1       2.276   3.089  16.793  0.00  0.00    +0.000 OA
BRANCH  13  19
ATOM     16  C   UNL     1       1.919   7.154  20.005  0.00  0.00    +0.000 A 
ATOM     17  C   UNL     1       2.276   7.020  18.659  0.00  0.00    +0.000 A 
ATOM     18  C   UNL     1       2.494   5.760  18.108  0.00  0.00    +0.000 A 
ATOM     19  C   UNL     1       2.398   4.621  18.915  0.00  0.00    +0.000 A 
ATOM     20  C   UNL     1       2.033   4.740  20.259  0.00  0.00    +0.000 A 
ATOM     21  C   UNL     1       1.799   6.014  20.804  0.00  0.00    +0.000 A 
BRANCH  16  23
ATOM     22  C   UNL     1       0.755   8.651  21.421  0.00  0.00    +0.000 C 
ATOM     23  O   UNL     1       1.750   8.443  20.425  0.00  0.00    +0.000 OA
ENDBRANCH  16  23
ENDBRANCH  13  19
ENDBRANCH   1  13
TORSDOF 5
ENDMDL
MODEL 2
REMARK VINA RESULT:      -7.4      0.212      2.095
REMARK  Name = 
REMARK  6 active torsions:
REMARK  status: ('A' for Active; 'I' for Inactive)
REMARK    1  A    between atoms: C_1  and  O_2
REMARK    2  A    between atoms: O_2  and  C_3
REMARK    3  A    between atoms: C_6  and  S_7
REMARK    4  A    between atoms: S_7  and  N_10
REMARK    5  A    between atoms: N_10  and  C_11
REMARK    6  A    between atoms: C_15  and  O_16
REMARK                            x       y       z     vdW  Elec       q    Type
REMARK                         _______ _______ _______ _____ _____    ______ ____
ROOT
ATOM      1  N   UNL     1       4.294   2.932  18.315  0.00  0.00    +0.000 N 
ATOM      2  H   UNL     1       4.633   2.139  18.859  0.00  0.00    +0.000 HD
ENDROOT
BRANCH   1   3
ATOM      3  C   UNL     1       5.181   3.922  17.827  0.00  0.00    +0.000 A 
ATOM      4  C   UNL     1       5.951   4.650  18.734  0.00  0.00    +0.000 A 
ATOM      5  C   UNL     1       6.790   5.653  18.260  0.00  0.00    +0.000 A 
ATOM      6  F   UNL     1       7.501   6.384  19.129  0.00  0.00    +0.000 F 
ATOM      7  C   UNL     1       6.896   5.914  16.899  0.00  0.00    +0.000 A 
ATOM      8  C   UNL     1       6.140   5.167  16.004  0.00  0.00    +0.000 A 
ATOM      9  F   UNL     1       6.228   5.400  14.685  0.00  0.00    +0.000 F 
ATOM     10  C   UNL     1       5.279   4.169  16.458  0.00  0.00    +0.000 A 
BRANCH   7  11
ATOM     11  O   UNL     1       7.735   6.893  16.443  0.00  0.00    +0.000 OA
ATOM     12  H   UNL     1       7.429   7.155  15.556  0.00  0.00    +0.000 HD
ENDBRANCH   7  11
ENDBRANCH   1   3
BRANCH   1  13
ATOM     13  S   UNL     1       2.632   3.146  18.241  0.00  0.00    +0.000 S 
ATOM     14  O   UNL     1       2.065   2.250  19.223  0.00  0.00    +0.000 OA
ATOM     15  O   UNL     1       2.225   3.089  16.852  0.00  0.00    +0.000 OA
BRANCH  13  19
ATOM     16  C   UNL     1       2.005   7.409  19.793  0.00  0.00    +0.000 A 
ATOM     17  C   UNL     1       1.832   6.306  20.636  0.00  0.00    +0.000 A 
ATOM     18  C   UNL     1       2.039   5.014  20.160  0.00  0.00    +0.000 A 
ATOM     19  C   UNL     1       2.382   4.813  18.819  0.00  0.00    +0.000 A 
ATOM     20  C   UNL     1       2.569   5.906  17.969  0.00  0.00    +0.000 A 
ATOM     21  C   UNL     1       2.373   7.208  18.460  0.00  0.00    +0.000 A 
BRANCH  16  23
ATOM     22  C   UNL     1       1.190   8.579  21.682  0.00  0.00    +0.000 C 
ATOM     23  O   UNL     1       1.756   8.619  20.377  0.00  0.00    +0.000 OA
ENDBRANCH  16  23
ENDBRANCH  13  19
ENDBRANCH   1  13
TORSDOF 5
ENDMDL
MODEL 3
REMARK VINA RESULT:      -7.4      3.475      6.781
REMARK  Name = 
REMARK  6 active torsions:
REMARK  status: ('A' for Active; 'I' for Inactive)
REMARK    1  A    between atoms: C_1  and  O_2
REMARK    2  A    between atoms: O_2  and  C_3
REMARK    3  A    between atoms: C_6  and  S_7
REMARK    4  A    between atoms: S_7  and  N_10
REMARK    5  A    between atoms: N_10  and  C_11
REMARK    6  A    between atoms: C_15  and  O_16
REMARK                            x       y       z     vdW  Elec       q    Type
REMARK                         _______ _______ _______ _____ _____    ______ ____
ROOT
ATOM      1  N   UNL     1       5.517   3.388  18.743  0.00  0.00    +0.000 N 
ATOM      2  H   UNL     1       6.056   2.526  18.654  0.00  0.00    +0.000 HD
ENDROOT
BRANCH   1   3
ATOM      3  C   UNL     1       4.145   3.365  19.089  0.00  0.00    +0.000 A 
ATOM      4  C   UNL     1       3.772   2.912  20.354  0.00  0.00    +0.000 A 
ATOM      5  C   UNL     1       2.422   2.847  20.680  0.00  0.00    +0.000 A 
ATOM      6  F   UNL     1       2.054   2.373  21.879  0.00  0.00    +0.000 F 
ATOM      7  C   UNL     1       1.446   3.259  19.779  0.00  0.00    +0.000 A 
ATOM      8  C   UNL     1       1.832   3.730  18.530  0.00  0.00    +0.000 A 
ATOM      9  F   UNL     1       0.909   4.136  17.646  0.00  0.00    +0.000 F 
ATOM     10  C   UNL     1       3.180   3.786  18.175  0.00  0.00    +0.000 A 
BRANCH   7  11
ATOM     11  O   UNL     1       0.122   3.205  20.116  0.00  0.00    +0.000 OA
ATOM     12  H   UNL     1      -0.392   3.500  19.343  0.00  0.00    +0.000 HD
ENDBRANCH   7  11
ENDBRANCH   1   3
BRANCH   1  13
ATOM     13  S   UNL     1       6.255   4.801  18.217  0.00  0.00    +0.000 S 
ATOM     14  O   UNL     1       7.587   4.792  18.774  0.00  0.00    +0.000 OA
ATOM     15  O   UNL     1       5.349   5.906  18.459  0.00  0.00    +0.000 OA
BRANCH  13  19
ATOM     16  C   UNL     1       6.561   4.224  13.684  0.00  0.00    +0.000 A 
ATOM     17  C   UNL     1       5.622   3.511  14.436  0.00  0.00    +0.000 A 
ATOM     18  C   UNL     1       5.524   3.704  15.812  0.00  0.00    +0.000 A 
ATOM     19  C   UNL     1       6.401   4.585  16.456  0.00  0.00    +0.000 A 
ATOM     20  C   UNL     1       7.338   5.310  15.715  0.00  0.00    +0.000 A 
ATOM     21  C   UNL     1       7.420   5.122  14.324  0.00  0.00    +0.000 A 
BRANCH  16  23
ATOM     22  C   UNL     1       5.480   3.141  11.880  0.00  0.00    +0.000 C 
ATOM     23  O   UNL     1       6.565   3.932  12.350  0.00  0.00    +0.000 OA
ENDBRANCH  16  23
ENDBRANCH  13  19
ENDBRANCH   1  13
TORSDOF 5
ENDMDL
MODEL 4
REMARK VINA RESULT:      -7.3      3.546      6.484
REMARK  Name = 
REMARK  6 active torsions:
REMARK  status: ('A' for Active; 'I' for Inactive)
REMARK    1  A    between atoms: C_1  and  O_2
REMARK    2  A    between atoms: O_2  and  C_3
REMARK    3  A    between atoms: C_6  and  S_7
REMARK    4  A    between atoms: S_7  and  N_10
REMARK    5  A    between atoms: N_10  and  C_11
REMARK    6  A    between atoms: C_15  and  O_16
REMARK                            x       y       z     vdW  Elec       q    Type
REMARK                         _______ _______ _______ _____ _____    ______ ____
ROOT
ATOM      1  N   UNL     1       5.409   3.577  19.596  0.00  0.00    +0.000 N 
ATOM      2  H   UNL     1       6.156   2.933  19.854  0.00  0.00    +0.000 HD
ENDROOT
BRANCH   1   3
ATOM      3  C   UNL     1       4.093   3.115  19.352  0.00  0.00    +0.000 A 
ATOM      4  C   UNL     1       3.164   3.134  20.391  0.00  0.00    +0.000 A 
ATOM      5  C   UNL     1       1.883   2.640  20.165  0.00  0.00    +0.000 A 
ATOM      6  F   UNL     1       0.998   2.617  21.171  0.00  0.00    +0.000 F 
ATOM      7  C   UNL     1       1.510   2.163  18.915  0.00  0.00    +0.000 A 
ATOM      8  C   UNL     1       2.438   2.171  17.881  0.00  0.00    +0.000 A 
ATOM      9  F   UNL     1       2.100   1.718  16.664  0.00  0.00    +0.000 F 
ATOM     10  C   UNL     1       3.733   2.644  18.090  0.00  0.00    +0.000 A 
BRANCH   7  11
ATOM     11  O   UNL     1       0.244   1.693  18.700  0.00  0.00    +0.000 OA
ATOM     12  H   UNL     1       0.152   0.855  19.188  0.00  0.00    +0.000 HD
ENDBRANCH   7  11
ENDBRANCH   1   3
BRANCH   1  13
ATOM     13  S   UNL     1       5.857   5.151  19.226  0.00  0.00    +0.000 S 
ATOM     14  O   UNL     1       7.150   5.357  19.836  0.00  0.00    +0.000 OA
ATOM     15  O   UNL     1       4.741   6.026  19.525  0.00  0.00    +0.000 OA
BRANCH  13  19
ATOM     16  C   UNL     1       6.477   5.045  14.690  0.00  0.00    +0.000 A 
ATOM     17  C   UNL     1       7.321   4.331  15.546  0.00  0.00    +0.000 A 
ATOM     18  C   UNL     1       7.116   4.356  16.924  0.00  0.00    +0.000 A 
ATOM     19  C   UNL     1       6.085   5.135  17.460  0.00  0.00    +0.000 A 
ATOM     20  C   UNL     1       5.228   5.846  16.616  0.00  0.00    +0.000 A 
ATOM     21  C   UNL     1       5.431   5.803  15.225  0.00  0.00    +0.000 A 
BRANCH  16  23
ATOM     22  C   UNL     1       6.467   3.720  12.730  0.00  0.00    +0.000 C 
ATOM     23  O   UNL     1       6.794   4.950  13.365  0.00  0.00    +0.000 OA
ENDBRANCH  16  23
ENDBRANCH  13  19
ENDBRANCH   1  13
TORSDOF 5
ENDMDL
MODEL 5
REMARK VINA RESULT:      -7.3      3.214      5.783
REMARK  Name = 
REMARK  6 active torsions:
REMARK  status: ('A' for Active; 'I' for Inactive)
REMARK    1  A    between atoms: C_1  and  O_2
REMARK    2  A    between atoms: O_2  and  C_3
REMARK    3  A    between atoms: C_6  and  S_7
REMARK    4  A    between atoms: S_7  and  N_10
REMARK    5  A    between atoms: N_10  and  C_11
REMARK    6  A    between atoms: C_15  and  O_16
REMARK                            x       y       z     vdW  Elec       q    Type
REMARK                         _______ _______ _______ _____ _____    ______ ____
ROOT
ATOM      1  N   UNL     1       4.992   3.022  17.499  0.00  0.00    +0.000 N 
ATOM      2  H   UNL     1       5.565   2.181  17.564  0.00  0.00    +0.000 HD
ENDROOT
BRANCH   1   3
ATOM      3  C   UNL     1       3.797   3.157  18.247  0.00  0.00    +0.000 A 
ATOM      4  C   UNL     1       3.758   4.065  19.304  0.00  0.00    +0.000 A 
ATOM      5  C   UNL     1       2.601   4.168  20.068  0.00  0.00    +0.000 A 
ATOM      6  F   UNL     1       2.570   5.009  21.111  0.00  0.00    +0.000 F 
ATOM      7  C   UNL     1       1.477   3.406  19.772  0.00  0.00    +0.000 A 
ATOM      8  C   UNL     1       1.521   2.520  18.701  0.00  0.00    +0.000 A 
ATOM      9  F   UNL     1       0.448   1.776  18.394  0.00  0.00    +0.000 F 
ATOM     10  C   UNL     1       2.677   2.388  17.934  0.00  0.00    +0.000 A 
BRANCH   7  11
ATOM     11  O   UNL     1       0.339   3.525  20.520  0.00  0.00    +0.000 OA
ATOM     12  H   UNL     1      -0.292   4.070  20.015  0.00  0.00    +0.000 HD
ENDBRANCH   7  11
ENDBRANCH   1   3
BRANCH   1  13
ATOM     13  S   UNL     1       5.384   4.115  16.288  0.00  0.00    +0.000 S 
ATOM     14  O   UNL     1       4.148   4.760  15.910  0.00  0.00    +0.000 OA
ATOM     15  O   UNL     1       6.204   3.435  15.307  0.00  0.00    +0.000 OA
BRANCH  13  19
ATOM     16  C   UNL     1       7.947   7.281  18.382  0.00  0.00    +0.000 A 
ATOM     17  C   UNL     1       7.065   7.635  17.356  0.00  0.00    +0.000 A 
ATOM     18  C   UNL     1       6.277   6.669  16.735  0.00  0.00    +0.000 A 
ATOM     19  C   UNL     1       6.399   5.326  17.109  0.00  0.00    +0.000 A 
ATOM     20  C   UNL     1       7.270   4.959  18.139  0.00  0.00    +0.000 A 
ATOM     21  C   UNL     1       8.049   5.943  18.772  0.00  0.00    +0.000 A 
BRANCH  16  23
ATOM     22  C   UNL     1       8.522   9.572  18.241  0.00  0.00    +0.000 C 
ATOM     23  O   UNL     1       8.672   8.318  18.897  0.00  0.00    +0.000 OA
ENDBRANCH  16  23
ENDBRANCH  13  19
ENDBRANCH   1  13
TORSDOF 5
ENDMDL
MODEL 6
REMARK VINA RESULT:      -7.2      0.701      1.935
REMARK  Name = 
REMARK  6 active torsions:
REMARK  status: ('A' for Active; 'I' for Inactive)
REMARK    1  A    between atoms: C_1  and  O_2
REMARK    2  A    between atoms: O_2  and  C_3
REMARK    3  A    between atoms: C_6  and  S_7
REMARK    4  A    between atoms: S_7  and  N_10
REMARK    5  A    between atoms: N_10  and  C_11
REMARK    6  A    between atoms: C_15  and  O_16
REMARK                            x       y       z     vdW  Elec       q    Type
REMARK                         _______ _______ _______ _____ _____    ______ ____
ROOT
ATOM      1  N   UNL     1       4.354   3.010  18.579  0.00  0.00    +0.000 N 
ATOM      2  H   UNL     1       4.703   2.276  19.194  0.00  0.00    +0.000 HD
ENDROOT
BRANCH   1   3
ATOM      3  C   UNL     1       5.225   3.973  18.013  0.00  0.00    +0.000 A 
ATOM      4  C   UNL     1       6.054   4.714  18.854  0.00  0.00    +0.000 A 
ATOM      5  C   UNL     1       6.877   5.691  18.305  0.00  0.00    +0.000 A 
ATOM      6  F   UNL     1       7.646   6.436  19.111  0.00  0.00    +0.000 F 
ATOM      7  C   UNL     1       6.911   5.912  16.933  0.00  0.00    +0.000 A 
ATOM      8  C   UNL     1       6.096   5.150  16.104  0.00  0.00    +0.000 A 
ATOM      9  F   UNL     1       6.113   5.343  14.776  0.00  0.00    +0.000 F 
ATOM     10  C   UNL     1       5.249   4.178  16.635  0.00  0.00    +0.000 A 
BRANCH   7  11
ATOM     11  O   UNL     1       7.735   6.864  16.402  0.00  0.00    +0.000 OA
ATOM     12  H   UNL     1       8.125   6.498  15.588  0.00  0.00    +0.000 HD
ENDBRANCH   7  11
ENDBRANCH   1   3
BRANCH   1  13
ATOM     13  S   UNL     1       2.688   3.181  18.473  0.00  0.00    +0.000 S 
ATOM     14  O   UNL     1       2.128   2.328  19.495  0.00  0.00    +0.000 OA
ATOM     15  O   UNL     1       2.302   3.036  17.083  0.00  0.00    +0.000 OA
BRANCH  13  19
ATOM     16  C   UNL     1       1.909   7.541  19.637  0.00  0.00    +0.000 A 
ATOM     17  C   UNL     1       2.206   7.193  18.316  0.00  0.00    +0.000 A 
ATOM     18  C   UNL     1       2.427   5.863  17.966  0.00  0.00    +0.000 A 
ATOM     19  C   UNL     1       2.393   4.870  18.952  0.00  0.00    +0.000 A 
ATOM     20  C   UNL     1       2.087   5.202  20.274  0.00  0.00    +0.000 A 
ATOM     21  C   UNL     1       1.850   6.545  20.616  0.00  0.00    +0.000 A 
BRANCH  16  23
ATOM     22  C   UNL     1       1.266   9.632  18.736  0.00  0.00    +0.000 C 
ATOM     23  O   UNL     1       1.730   8.879  19.850  0.00  0.00    +0.000 OA
ENDBRANCH  16  23
ENDBRANCH  13  19
ENDBRANCH   1  13
TORSDOF 5
ENDMDL
MODEL 7
REMARK VINA RESULT:      -7.2      3.296      5.988
REMARK  Name = 
REMARK  6 active torsions:
REMARK  status: ('A' for Active; 'I' for Inactive)
REMARK    1  A    between atoms: C_1  and  O_2
REMARK    2  A    between atoms: O_2  and  C_3
REMARK    3  A    between atoms: C_6  and  S_7
REMARK    4  A    between atoms: S_7  and  N_10
REMARK    5  A    between atoms: N_10  and  C_11
REMARK    6  A    between atoms: C_15  and  O_16
REMARK                            x       y       z     vdW  Elec       q    Type
REMARK                         _______ _______ _______ _____ _____    ______ ____
ROOT
ATOM      1  N   UNL     1       3.594   5.253  17.167  0.00  0.00    +0.000 N 
ATOM      2  H   UNL     1       3.348   6.172  16.800  0.00  0.00    +0.000 HD
ENDROOT
BRANCH   1   3
ATOM      3  C   UNL     1       2.824   4.637  18.183  0.00  0.00    +0.000 A 
ATOM      4  C   UNL     1       3.021   5.019  19.509  0.00  0.00    +0.000 A 
ATOM      5  C   UNL     1       2.298   4.385  20.513  0.00  0.00    +0.000 A 
ATOM      6  F   UNL     1       2.512   4.718  21.793  0.00  0.00    +0.000 F 
ATOM      7  C   UNL     1       1.361   3.403  20.210  0.00  0.00    +0.000 A 
ATOM      8  C   UNL     1       1.158   3.047  18.882  0.00  0.00    +0.000 A 
ATOM      9  F   UNL     1       0.257   2.104  18.565  0.00  0.00    +0.000 F 
ATOM     10  C   UNL     1       1.885   3.657  17.861  0.00  0.00    +0.000 A 
BRANCH   7  11
ATOM     11  O   UNL     1       0.645   2.796  21.203  0.00  0.00    +0.000 OA
ATOM     12  H   UNL     1      -0.300   2.882  20.982  0.00  0.00    +0.000 HD
ENDBRANCH   7  11
ENDBRANCH   1   3
BRANCH   1  13
ATOM     13  S   UNL     1       5.078   4.622  16.701  0.00  0.00    +0.000 S 
ATOM     14  O   UNL     1       5.140   4.753  15.264  0.00  0.00    +0.000 OA
ATOM     15  O   UNL     1       5.248   3.335  17.344  0.00  0.00    +0.000 OA
BRANCH  13  19
ATOM     16  C   UNL     1       8.094   7.574  18.480  0.00  0.00    +0.000 A 
ATOM     17  C   UNL     1       7.247   7.956  17.434  0.00  0.00    +0.000 A 
ATOM     18  C   UNL     1       6.322   7.057  16.909  0.00  0.00    +0.000 A 
ATOM     19  C   UNL     1       6.266   5.748  17.401  0.00  0.00    +0.000 A 
ATOM     20  C   UNL     1       7.100   5.356  18.452  0.00  0.00    +0.000 A 
ATOM     21  C   UNL     1       8.020   6.274  18.988  0.00  0.00    +0.000 A 
BRANCH  16  23
ATOM     22  C   UNL     1       8.746   9.846  18.366  0.00  0.00    +0.000 C 
ATOM     23  O   UNL     1       8.965   8.542  18.893  0.00  0.00    +0.000 OA
ENDBRANCH  16  23
ENDBRANCH  13  19
ENDBRANCH   1  13
TORSDOF 5
ENDMDL
MODEL 8
REMARK VINA RESULT:      -7.2      1.076      1.572
REMARK  Name = 
REMARK  6 active torsions:
REMARK  status: ('A' for Active; 'I' for Inactive)
REMARK    1  A    between atoms: C_1  and  O_2
REMARK    2  A    between atoms: O_2  and  C_3
REMARK    3  A    between atoms: C_6  and  S_7
REMARK    4  A    between atoms: S_7  and  N_10
REMARK    5  A    between atoms: N_10  and  C_11
REMARK    6  A    between atoms: C_15  and  O_16
REMARK                            x       y       z     vdW  Elec       q    Type
REMARK                         _______ _______ _______ _____ _____    ______ ____
ROOT
ATOM      1  N   UNL     1       4.459   3.202  18.221  0.00  0.00    +0.000 N 
ATOM      2  H   UNL     1       4.851   2.767  19.056  0.00  0.00    +0.000 HD
ENDROOT
BRANCH   1   3
ATOM      3  C   UNL     1       5.287   3.836  17.263  0.00  0.00    +0.000 A 
ATOM      4  C   UNL     1       5.303   3.354  15.955  0.00  0.00    +0.000 A 
ATOM      5  C   UNL     1       6.149   3.947  15.024  0.00  0.00    +0.000 A 
ATOM      6  F   UNL     1       6.201   3.463  13.775  0.00  0.00    +0.000 F 
ATOM      7  C   UNL     1       6.948   5.031  15.370  0.00  0.00    +0.000 A 
ATOM      8  C   UNL     1       6.906   5.516  16.672  0.00  0.00    +0.000 A 
ATOM      9  F   UNL     1       7.666   6.562  17.029  0.00  0.00    +0.000 F 
ATOM     10  C   UNL     1       6.079   4.924  17.626  0.00  0.00    +0.000 A 
BRANCH   7  11
ATOM     11  O   UNL     1       7.765   5.616  14.443  0.00  0.00    +0.000 OA
ATOM     12  H   UNL     1       7.222   6.228  13.915  0.00  0.00    +0.000 HD
ENDBRANCH   7  11
ENDBRANCH   1   3
BRANCH   1  13
ATOM     13  S   UNL     1       2.789   3.356  18.159  0.00  0.00    +0.000 S 
ATOM     14  O   UNL     1       2.259   2.379  19.082  0.00  0.00    +0.000 OA
ATOM     15  O   UNL     1       2.383   3.370  16.768  0.00  0.00    +0.000 OA
BRANCH  13  19
ATOM     16  C   UNL     1       1.996   7.485  19.975  0.00  0.00    +0.000 A 
ATOM     17  C   UNL     1       1.778   6.320  20.718  0.00  0.00    +0.000 A 
ATOM     18  C   UNL     1       2.036   5.068  20.164  0.00  0.00    +0.000 A 
ATOM     19  C   UNL     1       2.477   4.972  18.839  0.00  0.00    +0.000 A 
ATOM     20  C   UNL     1       2.708   6.127  18.089  0.00  0.00    +0.000 A 
ATOM     21  C   UNL     1       2.460   7.388  18.660  0.00  0.00    +0.000 A 
BRANCH  16  23
ATOM     22  C   UNL     1       0.551   9.351  20.147  0.00  0.00    +0.000 C 
ATOM     23  O   UNL     1       1.689   8.645  20.628  0.00  0.00    +0.000 OA
ENDBRANCH  16  23
ENDBRANCH  13  19
ENDBRANCH   1  13
TORSDOF 5
ENDMDL
MODEL 9
REMARK VINA RESULT:      -7.2      2.890      6.289
REMARK  Name = 
REMARK  6 active torsions:
REMARK  status: ('A' for Active; 'I' for Inactive)
REMARK    1  A    between atoms: C_1  and  O_2
REMARK    2  A    between atoms: O_2  and  C_3
REMARK    3  A    between atoms: C_6  and  S_7
REMARK    4  A    between atoms: S_7  and  N_10
REMARK    5  A    between atoms: N_10  and  C_11
REMARK    6  A    between atoms: C_15  and  O_16
REMARK                            x       y       z     vdW  Elec       q    Type
REMARK                         _______ _______ _______ _____ _____    ______ ____
ROOT
ATOM      1  N   UNL     1       3.369   4.727  18.893  0.00  0.00    +0.000 N 
ATOM      2  H   UNL     1       2.812   3.961  18.516  0.00  0.00    +0.000 HD
ENDROOT
BRANCH   1   3
ATOM      3  C   UNL     1       2.819   6.019  19.072  0.00  0.00    +0.000 A 
ATOM      4  C   UNL     1       2.268   6.357  20.307  0.00  0.00    +0.000 A 
ATOM      5  C   UNL     1       1.687   7.609  20.472  0.00  0.00    +0.000 A 
ATOM      6  F   UNL     1       1.119   7.925  21.644  0.00  0.00    +0.000 F 
ATOM      7  C   UNL     1       1.680   8.537  19.437  0.00  0.00    +0.000 A 
ATOM      8  C   UNL     1       2.253   8.197  18.217  0.00  0.00    +0.000 A 
ATOM      9  F   UNL     1       2.260   9.077  17.205  0.00  0.00    +0.000 F 
ATOM     10  C   UNL     1       2.824   6.940  18.025  0.00  0.00    +0.000 A 
BRANCH   7  11
ATOM     11  O   UNL     1       1.119   9.771  19.614  0.00  0.00    +0.000 OA
ATOM     12  H   UNL     1       1.320  10.060  20.523  0.00  0.00    +0.000 HD
ENDBRANCH   7  11
ENDBRANCH   1   3
BRANCH   1  13
ATOM     13  S   UNL     1       5.018   4.459  19.049  0.00  0.00    +0.000 S 
ATOM     14  O   UNL     1       5.162   3.124  19.582  0.00  0.00    +0.000 OA
ATOM     15  O   UNL     1       5.605   5.601  19.722  0.00  0.00    +0.000 OA
BRANCH  13  19
ATOM     16  C   UNL     1       6.489   4.420  14.712  0.00  0.00    +0.000 A 
ATOM     17  C   UNL     1       5.198   3.989  15.036  0.00  0.00    +0.000 A 
ATOM     18  C   UNL     1       4.753   4.018  16.356  0.00  0.00    +0.000 A 
ATOM     19  C   UNL     1       5.617   4.442  17.372  0.00  0.00    +0.000 A 
ATOM     20  C   UNL     1       6.905   4.885  17.061  0.00  0.00    +0.000 A 
ATOM     21  C   UNL     1       7.342   4.867  15.725  0.00  0.00    +0.000 A 
BRANCH  16  23
ATOM     22  C   UNL     1       5.952   3.509  12.595  0.00  0.00    +0.000 C 
ATOM     23  O   UNL     1       6.807   4.325  13.387  0.00  0.00    +0.000 OA
ENDBRANCH  16  23
ENDBRANCH  13  19
ENDBRANCH   1  13
TORSDOF 5
ENDMDL
