MODEL 1
REMARK VINA RESULT:      -7.7      0.000      0.000
REMARK  Name = 
REMARK  6 active torsions:
REMARK  status: ('A' for Active; 'I' for Inactive)
REMARK    1  A    between atoms: O_1  and  N_2
REMARK    2  A    between atoms: C_3  and  C_11
REMARK    3  A    between atoms: N_4  and  C_5
REMARK    4  A    between atoms: C_5  and  C_6
REMARK    5  A    between atoms: C_14  and  O_15
REMARK    6  A    between atoms: O_15  and  C_16
REMARK                            x       y       z     vdW  Elec       q    Type
REMARK                         _______ _______ _______ _____ _____    ______ ____
ROOT
ATOM      1  C   UNL     1       2.444   7.410  18.728  0.00  0.00    +0.000 A 
ATOM      2  C   UNL     1       2.522   8.319  17.671  0.00  0.00    +0.000 A 
ATOM      3  C   UNL     1       1.900   9.567  17.798  0.00  0.00    +0.000 A 
ATOM      4  C   UNL     1       1.227   9.855  18.977  0.00  0.00    +0.000 A 
ATOM      5  N   UNL     1       1.194   9.020  20.038  0.00  0.00    +0.000 NA
ATOM      6  C   UNL     1       1.779   7.810  19.881  0.00  0.00    +0.000 A 
ENDROOT
BRANCH   1   8
ATOM      7  N   UNL     1       4.261   5.921  18.821  0.00  0.00    +0.000 NA
ATOM      8  C   UNL     1       2.975   6.007  18.631  0.00  0.00    +0.000 C 
ATOM      9  N   UNL     1       2.048   5.006  18.373  0.00  0.00    +0.000 N 
ATOM     10  H   UNL     1       1.245   5.300  17.818  0.00  0.00    +0.000 HD
BRANCH   7  11
ATOM     11  O   UNL     1       4.778   4.631  18.734  0.00  0.00    +0.000 OA
ATOM     12  H   UNL     1       4.102   4.174  18.202  0.00  0.00    +0.000 HD
ENDBRANCH   7  11
BRANCH   9  13
ATOM     13  C   UNL     1       2.400   3.618  18.096  0.00  0.00    +0.000 C 
BRANCH  13  14
ATOM     14  C   UNL     1       2.116   2.723  19.305  0.00  0.00    +0.000 C 
ATOM     15  C   UNL     1       1.022   3.284  20.200  0.00  0.00    +0.000 C 
ATOM     16  C   UNL     1       1.316   2.583  21.501  0.00  0.00    +0.000 C 
ATOM     17  C   UNL     1       2.831   2.571  21.520  0.00  0.00    +0.000 C 
ATOM     18  O   UNL     1       3.278   2.597  20.152  0.00  0.00    +0.000 OA
ENDBRANCH  13  14
ENDBRANCH   9  13
ENDBRANCH   1   8
BRANCH   4  19
ATOM     19  O   UNL     1       0.531  11.060  19.037  0.00  0.00    +0.000 OA
BRANCH  19  20
ATOM     20  C   UNL     1      -0.804  11.028  18.680  0.00  0.00    +0.000 A 
ATOM     21  C   UNL     1      -1.651  11.968  19.271  0.00  0.00    +0.000 A 
ATOM     22  C   UNL     1      -3.018  11.958  18.973  0.00  0.00    +0.000 A 
ATOM     23  C   UNL     1      -3.528  11.015  18.081  0.00  0.00    +0.000 A 
ATOM     24 CL   UNL     1      -5.217  10.964  17.756  0.00  0.00    +0.000 Cl
ATOM     25  C   UNL     1      -2.679  10.109  17.452  0.00  0.00    +0.000 A 
ATOM     26  C   UNL     1      -1.314  10.129  17.735  0.00  0.00    +0.000 A 
ENDBRANCH  19  20
ENDBRANCH   4  19
TORSDOF 6
ENDMDL
MODEL 2
REMARK VINA RESULT:      -7.3      1.397      1.905
REMARK  Name = 
REMARK  6 active torsions:
REMARK  status: ('A' for Active; 'I' for Inactive)
REMARK    1  A    between atoms: O_1  and  N_2
REMARK    2  A    between atoms: C_3  and  C_11
REMARK    3  A    between atoms: N_4  and  C_5
REMARK    4  A    between atoms: C_5  and  C_6
REMARK    5  A    between atoms: C_14  and  O_15
REMARK    6  A    between atoms: O_15  and  C_16
REMARK                            x       y       z     vdW  Elec       q    Type
REMARK                         _______ _______ _______ _____ _____    ______ ____
ROOT
ATOM      1  C   UNL     1       2.125   7.644  19.452  0.00  0.00    +0.000 A 
ATOM      2  C   UNL     1       2.270   8.155  18.161  0.00  0.00    +0.000 A 
ATOM      3  C   UNL     1       1.656   9.371  17.836  0.00  0.00    +0.000 A 
ATOM      4  C   UNL     1       0.925  10.026  18.816  0.00  0.00    +0.000 A 
ATOM      5  N   UNL     1       0.825   9.587  20.089  0.00  0.00    +0.000 NA
ATOM      6  C   UNL     1       1.404   8.397  20.371  0.00  0.00    +0.000 A 
ENDROOT
BRANCH   1   8
ATOM      7  N   UNL     1       1.907   5.691  20.742  0.00  0.00    +0.000 NA
ATOM      8  C   UNL     1       2.644   6.291  19.851  0.00  0.00    +0.000 C 
ATOM      9  N   UNL     1       3.805   5.858  19.224  0.00  0.00    +0.000 N 
ATOM     10  H   UNL     1       4.445   6.601  18.948  0.00  0.00    +0.000 HD
BRANCH   7  11
ATOM     11  O   UNL     1       2.368   4.436  21.131  0.00  0.00    +0.000 OA
ATOM     12  H   UNL     1       3.327   4.586  21.217  0.00  0.00    +0.000 HD
ENDBRANCH   7  11
BRANCH   9  13
ATOM     13  C   UNL     1       4.531   4.649  19.593  0.00  0.00    +0.000 C 
BRANCH  13  14
ATOM     14  C   UNL     1       4.148   3.474  18.689  0.00  0.00    +0.000 C 
ATOM     15  C   UNL     1       3.241   3.894  17.544  0.00  0.00    +0.000 C 
ATOM     16  C   UNL     1       2.597   2.581  17.179  0.00  0.00    +0.000 C 
ATOM     17  C   UNL     1       2.400   1.937  18.537  0.00  0.00    +0.000 C 
ATOM     18  O   UNL     1       3.410   2.469  19.415  0.00  0.00    +0.000 OA
ENDBRANCH  13  14
ENDBRANCH   9  13
ENDBRANCH   1   8
BRANCH   4  19
ATOM     19  O   UNL     1       0.241  11.180  18.439  0.00  0.00    +0.000 OA
BRANCH  19  20
ATOM     20  C   UNL     1      -1.128  11.070  18.283  0.00  0.00    +0.000 A 
ATOM     21  C   UNL     1      -1.928  12.003  18.946  0.00  0.00    +0.000 A 
ATOM     22  C   UNL     1      -3.322  11.917  18.852  0.00  0.00    +0.000 A 
ATOM     23  C   UNL     1      -3.906  10.906  18.090  0.00  0.00    +0.000 A 
ATOM     24 CL   UNL     1      -5.619  10.764  18.018  0.00  0.00    +0.000 Cl
ATOM     25  C   UNL     1      -3.111  10.005  17.386  0.00  0.00    +0.000 A 
ATOM     26  C   UNL     1      -1.722  10.100  17.465  0.00  0.00    +0.000 A 
ENDBRANCH  19  20
ENDBRANCH   4  19
TORSDOF 6
ENDMDL
MODEL 3
REMARK VINA RESULT:      -7.3      1.933      3.048
REMARK  Name = 
REMARK  6 active torsions:
REMARK  status: ('A' for Active; 'I' for Inactive)
REMARK    1  A    between atoms: O_1  and  N_2
REMARK    2  A    between atoms: C_3  and  C_11
REMARK    3  A    between atoms: N_4  and  C_5
REMARK    4  A    between atoms: C_5  and  C_6
REMARK    5  A    between atoms: C_14  and  O_15
REMARK    6  A    between atoms: O_15  and  C_16
REMARK                            x       y       z     vdW  Elec       q    Type
REMARK                         _______ _______ _______ _____ _____    ______ ____
ROOT
ATOM      1  C   UNL     1       2.304   7.690  18.979  0.00  0.00    +0.000 A 
ATOM      2  C   UNL     1       2.483   8.497  17.854  0.00  0.00    +0.000 A 
ATOM      3  C   UNL     1       1.824   9.731  17.788  0.00  0.00    +0.000 A 
ATOM      4  C   UNL     1       1.015  10.107  18.850  0.00  0.00    +0.000 A 
ATOM      5  N   UNL     1       0.877   9.376  19.977  0.00  0.00    +0.000 NA
ATOM      6  C   UNL     1       1.502   8.176  20.005  0.00  0.00    +0.000 A 
ENDROOT
BRANCH   1   8
ATOM      7  N   UNL     1       2.488   5.657  20.144  0.00  0.00    +0.000 NA
ATOM      8  C   UNL     1       2.872   6.302  19.080  0.00  0.00    +0.000 C 
ATOM      9  N   UNL     1       3.700   5.890  18.044  0.00  0.00    +0.000 N 
ATOM     10  H   UNL     1       4.227   6.638  17.594  0.00  0.00    +0.000 HD
BRANCH   7  11
ATOM     11  O   UNL     1       3.003   4.368  20.262  0.00  0.00    +0.000 OA
ATOM     12  H   UNL     1       2.224   3.861  20.556  0.00  0.00    +0.000 HD
ENDBRANCH   7  11
BRANCH   9  13
ATOM     13  C   UNL     1       4.457   4.644  18.049  0.00  0.00    +0.000 C 
BRANCH  13  14
ATOM     14  C   UNL     1       5.963   4.910  17.971  0.00  0.00    +0.000 C 
ATOM     15  C   UNL     1       6.544   5.359  19.302  0.00  0.00    +0.000 C 
ATOM     16  C   UNL     1       7.805   6.053  18.856  0.00  0.00    +0.000 C 
ATOM     17  C   UNL     1       7.354   6.741  17.583  0.00  0.00    +0.000 C 
ATOM     18  O   UNL     1       6.263   5.973  17.043  0.00  0.00    +0.000 OA
ENDBRANCH  13  14
ENDBRANCH   9  13
ENDBRANCH   1   8
BRANCH   4  19
ATOM     19  O   UNL     1       0.291  11.290  18.714  0.00  0.00    +0.000 OA
BRANCH  19  20
ATOM     20  C   UNL     1      -1.068  11.167  18.487  0.00  0.00    +0.000 A 
ATOM     21  C   UNL     1      -1.909  12.099  19.098  0.00  0.00    +0.000 A 
ATOM     22  C   UNL     1      -3.294  12.001  18.931  0.00  0.00    +0.000 A 
ATOM     23  C   UNL     1      -3.829  10.978  18.149  0.00  0.00    +0.000 A 
ATOM     24 CL   UNL     1      -5.536  10.821  17.987  0.00  0.00    +0.000 Cl
ATOM     25  C   UNL     1      -2.991  10.077  17.496  0.00  0.00    +0.000 A 
ATOM     26  C   UNL     1      -1.609  10.184  17.648  0.00  0.00    +0.000 A 
ENDBRANCH  19  20
ENDBRANCH   4  19
TORSDOF 6
ENDMDL
MODEL 4
REMARK VINA RESULT:      -7.2      1.932      3.072
REMARK  Name = 
REMARK  6 active torsions:
REMARK  status: ('A' for Active; 'I' for Inactive)
REMARK    1  A    between atoms: O_1  and  N_2
REMARK    2  A    between atoms: C_3  and  C_11
REMARK    3  A    between atoms: N_4  and  C_5
REMARK    4  A    between atoms: C_5  and  C_6
REMARK    5  A    between atoms: C_14  and  O_15
REMARK    6  A    between atoms: O_15  and  C_16
REMARK                            x       y       z     vdW  Elec       q    Type
REMARK                         _______ _______ _______ _____ _____    ______ ____
ROOT
ATOM      1  C   UNL     1       2.327   7.613  19.134  0.00  0.00    +0.000 A 
ATOM      2  C   UNL     1       2.448   8.346  17.952  0.00  0.00    +0.000 A 
ATOM      3  C   UNL     1       1.804   9.584  17.847  0.00  0.00    +0.000 A 
ATOM      4  C   UNL     1       1.066  10.040  18.931  0.00  0.00    +0.000 A 
ATOM      5  N   UNL     1       0.986   9.382  20.107  0.00  0.00    +0.000 NA
ATOM      6  C   UNL     1       1.596   8.175  20.173  0.00  0.00    +0.000 A 
ENDROOT
BRANCH   1   8
ATOM      7  N   UNL     1       2.068   5.401  19.887  0.00  0.00    +0.000 NA
ATOM      8  C   UNL     1       2.880   6.224  19.287  0.00  0.00    +0.000 C 
ATOM      9  N   UNL     1       4.149   5.998  18.770  0.00  0.00    +0.000 N 
ATOM     10  H   UNL     1       4.766   6.809  18.779  0.00  0.00    +0.000 HD
BRANCH   7  11
ATOM     11  O   UNL     1       2.559   4.107  20.044  0.00  0.00    +0.000 OA
ATOM     12  H   UNL     1       2.698   4.056  21.007  0.00  0.00    +0.000 HD
ENDBRANCH   7  11
BRANCH   9  13
ATOM     13  C   UNL     1       4.902   4.763  18.962  0.00  0.00    +0.000 C 
BRANCH  13  14
ATOM     14  C   UNL     1       5.437   4.229  17.631  0.00  0.00    +0.000 C 
ATOM     15  C   UNL     1       6.865   4.675  17.358  0.00  0.00    +0.000 C 
ATOM     16  C   UNL     1       6.943   4.517  15.861  0.00  0.00    +0.000 C 
ATOM     17  C   UNL     1       5.564   4.969  15.423  0.00  0.00    +0.000 C 
ATOM     18  O   UNL     1       4.662   4.718  16.516  0.00  0.00    +0.000 OA
ENDBRANCH  13  14
ENDBRANCH   9  13
ENDBRANCH   1   8
BRANCH   4  19
ATOM     19  O   UNL     1       0.351  11.224  18.764  0.00  0.00    +0.000 OA
BRANCH  19  20
ATOM     20  C   UNL     1      -1.001  11.105  18.503  0.00  0.00    +0.000 A 
ATOM     21  C   UNL     1      -1.859  12.015  19.125  0.00  0.00    +0.000 A 
ATOM     22  C   UNL     1      -3.240  11.919  18.924  0.00  0.00    +0.000 A 
ATOM     23  C   UNL     1      -3.754  10.921  18.097  0.00  0.00    +0.000 A 
ATOM     24 CL   UNL     1      -5.456  10.764  17.893  0.00  0.00    +0.000 Cl
ATOM     25  C   UNL     1      -2.899  10.044  17.435  0.00  0.00    +0.000 A 
ATOM     26  C   UNL     1      -1.521  10.149  17.621  0.00  0.00    +0.000 A 
ENDBRANCH  19  20
ENDBRANCH   4  19
TORSDOF 6
ENDMDL
MODEL 5
REMARK VINA RESULT:      -7.2      2.109      3.364
REMARK  Name = 
REMARK  6 active torsions:
REMARK  status: ('A' for Active; 'I' for Inactive)
REMARK    1  A    between atoms: O_1  and  N_2
REMARK    2  A    between atoms: C_3  and  C_11
REMARK    3  A    between atoms: N_4  and  C_5
REMARK    4  A    between atoms: C_5  and  C_6
REMARK    5  A    between atoms: C_14  and  O_15
REMARK    6  A    between atoms: O_15  and  C_16
REMARK                            x       y       z     vdW  Elec       q    Type
REMARK                         _______ _______ _______ _____ _____    ______ ____
ROOT
ATOM      1  C   UNL     1       2.640   7.070  18.895  0.00  0.00    +0.000 A 
ATOM      2  C   UNL     1       1.940   7.555  20.001  0.00  0.00    +0.000 A 
ATOM      3  C   UNL     1       1.272   8.782  19.901  0.00  0.00    +0.000 A 
ATOM      4  C   UNL     1       1.330   9.470  18.698  0.00  0.00    +0.000 A 
ATOM      5  N   UNL     1       1.943   8.992  17.594  0.00  0.00    +0.000 NA
ATOM      6  C   UNL     1       2.605   7.818  17.725  0.00  0.00    +0.000 A 
ENDROOT
BRANCH   1   8
ATOM      7  N   UNL     1       2.802   4.741  19.169  0.00  0.00    +0.000 NA
ATOM      8  C   UNL     1       3.485   5.828  18.952  0.00  0.00    +0.000 C 
ATOM      9  N   UNL     1       4.850   5.993  18.756  0.00  0.00    +0.000 N 
ATOM     10  H   UNL     1       5.221   6.891  19.064  0.00  0.00    +0.000 HD
BRANCH   7  11
ATOM     11  O   UNL     1       3.563   3.575  19.228  0.00  0.00    +0.000 OA
ATOM     12  H   UNL     1       3.773   3.515  20.177  0.00  0.00    +0.000 HD
ENDBRANCH   7  11
BRANCH   9  13
ATOM     13  C   UNL     1       5.835   4.930  18.928  0.00  0.00    +0.000 C 
BRANCH  13  14
ATOM     14  C   UNL     1       6.407   4.484  17.580  0.00  0.00    +0.000 C 
ATOM     15  C   UNL     1       6.894   5.653  16.739  0.00  0.00    +0.000 C 
ATOM     16  C   UNL     1       6.872   5.053  15.357  0.00  0.00    +0.000 C 
ATOM     17  C   UNL     1       5.621   4.198  15.403  0.00  0.00    +0.000 C 
ATOM     18  O   UNL     1       5.408   3.822  16.776  0.00  0.00    +0.000 OA
ENDBRANCH  13  14
ENDBRANCH   9  13
ENDBRANCH   1   8
BRANCH   4  19
ATOM     19  O   UNL     1       0.743  10.734  18.656  0.00  0.00    +0.000 OA
BRANCH  19  20
ATOM     20  C   UNL     1      -0.617  10.783  18.413  0.00  0.00    +0.000 A 
ATOM     21  C   UNL     1      -1.351  11.776  19.063  0.00  0.00    +0.000 A 
ATOM     22  C   UNL     1      -2.736  11.850  18.880  0.00  0.00    +0.000 A 
ATOM     23  C   UNL     1      -3.377  10.937  18.044  0.00  0.00    +0.000 A 
ATOM     24 CL   UNL     1      -5.087  10.989  17.862  0.00  0.00    +0.000 Cl
ATOM     25  C   UNL     1      -2.641   9.977  17.354  0.00  0.00    +0.000 A 
ATOM     26  C   UNL     1      -1.258   9.913  17.522  0.00  0.00    +0.000 A 
ENDBRANCH  19  20
ENDBRANCH   4  19
TORSDOF 6
ENDMDL
MODEL 6
REMARK VINA RESULT:      -7.1      1.061      1.549
REMARK  Name = 
REMARK  6 active torsions:
REMARK  status: ('A' for Active; 'I' for Inactive)
REMARK    1  A    between atoms: O_1  and  N_2
REMARK    2  A    between atoms: C_3  and  C_11
REMARK    3  A    between atoms: N_4  and  C_5
REMARK    4  A    between atoms: C_5  and  C_6
REMARK    5  A    between atoms: C_14  and  O_15
REMARK    6  A    between atoms: O_15  and  C_16
REMARK                            x       y       z     vdW  Elec       q    Type
REMARK                         _______ _______ _______ _____ _____    ______ ____
ROOT
ATOM      1  C   UNL     1       2.610   7.508  18.606  0.00  0.00    +0.000 A 
ATOM      2  C   UNL     1       1.940   7.747  19.807  0.00  0.00    +0.000 A 
ATOM      3  C   UNL     1       1.166   8.906  19.937  0.00  0.00    +0.000 A 
ATOM      4  C   UNL     1       1.093   9.778  18.860  0.00  0.00    +0.000 A 
ATOM      5  N   UNL     1       1.676   9.538  17.667  0.00  0.00    +0.000 NA
ATOM      6  C   UNL     1       2.441   8.425  17.575  0.00  0.00    +0.000 A 
ENDROOT
BRANCH   1   8
ATOM      7  N   UNL     1       4.126   6.330  17.250  0.00  0.00    +0.000 NA
ATOM      8  C   UNL     1       3.559   6.356  18.421  0.00  0.00    +0.000 C 
ATOM      9  N   UNL     1       3.716   5.499  19.502  0.00  0.00    +0.000 N 
ATOM     10  H   UNL     1       2.895   5.408  20.099  0.00  0.00    +0.000 HD
BRANCH   7  11
ATOM     11  O   UNL     1       5.008   5.270  17.053  0.00  0.00    +0.000 OA
ATOM     12  H   UNL     1       5.310   5.083  17.960  0.00  0.00    +0.000 HD
ENDBRANCH   7  11
BRANCH   9  13
ATOM     13  C   UNL     1       4.471   4.252  19.453  0.00  0.00    +0.000 C 
BRANCH  13  14
ATOM     14  C   UNL     1       3.551   3.040  19.629  0.00  0.00    +0.000 C 
ATOM     15  C   UNL     1       2.529   2.919  18.510  0.00  0.00    +0.000 C 
ATOM     16  C   UNL     1       1.472   2.068  19.165  0.00  0.00    +0.000 C 
ATOM     17  C   UNL     1       1.468   2.605  20.583  0.00  0.00    +0.000 C 
ATOM     18  O   UNL     1       2.779   3.137  20.845  0.00  0.00    +0.000 OA
ENDBRANCH  13  14
ENDBRANCH   9  13
ENDBRANCH   1   8
BRANCH   4  19
ATOM     19  O   UNL     1       0.401  10.972  19.051  0.00  0.00    +0.000 OA
BRANCH  19  20
ATOM     20  C   UNL     1      -0.931  10.988  18.680  0.00  0.00    +0.000 A 
ATOM     21  C   UNL     1      -1.754  11.943  19.279  0.00  0.00    +0.000 A 
ATOM     22  C   UNL     1      -3.118  11.982  18.967  0.00  0.00    +0.000 A 
ATOM     23  C   UNL     1      -3.647  11.071  18.054  0.00  0.00    +0.000 A 
ATOM     24 CL   UNL     1      -5.334  11.078  17.711  0.00  0.00    +0.000 Cl
ATOM     25  C   UNL     1      -2.820  10.150  17.416  0.00  0.00    +0.000 A 
ATOM     26  C   UNL     1      -1.458  10.122  17.714  0.00  0.00    +0.000 A 
ENDBRANCH  19  20
ENDBRANCH   4  19
TORSDOF 6
ENDMDL
MODEL 7
REMARK VINA RESULT:      -7.1      2.300      3.808
REMARK  Name = 
REMARK  6 active torsions:
REMARK  status: ('A' for Active; 'I' for Inactive)
REMARK    1  A    between atoms: O_1  and  N_2
REMARK    2  A    between atoms: C_3  and  C_11
REMARK    3  A    between atoms: N_4  and  C_5
REMARK    4  A    between atoms: C_5  and  C_6
REMARK    5  A    between atoms: C_14  and  O_15
REMARK    6  A    between atoms: O_15  and  C_16
REMARK                            x       y       z     vdW  Elec       q    Type
REMARK                         _______ _______ _______ _____ _____    ______ ____
ROOT
ATOM      1  C   UNL     1       2.588   7.514  18.562  0.00  0.00    +0.000 A 
ATOM      2  C   UNL     1       1.956   7.767  19.781  0.00  0.00    +0.000 A 
ATOM      3  C   UNL     1       1.238   8.959  19.941  0.00  0.00    +0.000 A 
ATOM      4  C   UNL     1       1.182   9.846  18.876  0.00  0.00    +0.000 A 
ATOM      5  N   UNL     1       1.728   9.595  17.668  0.00  0.00    +0.000 NA
ATOM      6  C   UNL     1       2.439   8.450  17.546  0.00  0.00    +0.000 A 
ENDROOT
BRANCH   1   8
ATOM      7  N   UNL     1       3.350   5.400  19.254  0.00  0.00    +0.000 NA
ATOM      8  C   UNL     1       3.479   6.323  18.344  0.00  0.00    +0.000 C 
ATOM      9  N   UNL     1       4.294   6.351  17.219  0.00  0.00    +0.000 N 
ATOM     10  H   UNL     1       4.587   7.283  16.927  0.00  0.00    +0.000 HD
BRANCH   7  11
ATOM     11  O   UNL     1       4.167   4.286  19.075  0.00  0.00    +0.000 OA
ATOM     12  H   UNL     1       4.779   4.590  18.380  0.00  0.00    +0.000 HD
ENDBRANCH   7  11
BRANCH   9  13
ATOM     13  C   UNL     1       5.326   5.361  16.932  0.00  0.00    +0.000 C 
BRANCH  13  14
ATOM     14  C   UNL     1       6.727   5.956  17.102  0.00  0.00    +0.000 C 
ATOM     15  C   UNL     1       7.163   6.010  18.557  0.00  0.00    +0.000 C 
ATOM     16  C   UNL     1       8.230   7.073  18.507  0.00  0.00    +0.000 C 
ATOM     17  C   UNL     1       7.649   8.058  17.513  0.00  0.00    +0.000 C 
ATOM     18  O   UNL     1       6.780   7.320  16.634  0.00  0.00    +0.000 OA
ENDBRANCH  13  14
ENDBRANCH   9  13
ENDBRANCH   1   8
BRANCH   4  19
ATOM     19  O   UNL     1       0.549  11.068  19.097  0.00  0.00    +0.000 OA
BRANCH  19  20
ATOM     20  C   UNL     1      -0.805  11.127  18.826  0.00  0.00    +0.000 A 
ATOM     21  C   UNL     1      -1.317  10.213  17.902  0.00  0.00    +0.000 A 
ATOM     22  C   UNL     1      -2.674  10.251  17.565  0.00  0.00    +0.000 A 
ATOM     23  C   UNL     1      -3.512  11.194  18.158  0.00  0.00    +0.000 A 
ATOM     24 CL   UNL     1      -5.170  11.280  17.703  0.00  0.00    +0.000 Cl
ATOM     25  C   UNL     1      -3.016  12.073  19.117  0.00  0.00    +0.000 A 
ATOM     26  C   UNL     1      -1.667  12.026  19.467  0.00  0.00    +0.000 A 
ENDBRANCH  19  20
ENDBRANCH   4  19
TORSDOF 6
ENDMDL
MODEL 8
REMARK VINA RESULT:      -7.1      0.968      1.132
REMARK  Name = 
REMARK  6 active torsions:
REMARK  status: ('A' for Active; 'I' for Inactive)
REMARK    1  A    between atoms: O_1  and  N_2
REMARK    2  A    between atoms: C_3  and  C_11
REMARK    3  A    between atoms: N_4  and  C_5
REMARK    4  A    between atoms: C_5  and  C_6
REMARK    5  A    between atoms: C_14  and  O_15
REMARK    6  A    between atoms: O_15  and  C_16
REMARK                            x       y       z     vdW  Elec       q    Type
REMARK                         _______ _______ _______ _____ _____    ______ ____
ROOT
ATOM      1  C   UNL     1       2.482   7.579  18.815  0.00  0.00    +0.000 A 
ATOM      2  C   UNL     1       2.575   8.489  17.761  0.00  0.00    +0.000 A 
ATOM      3  C   UNL     1       1.898   9.711  17.854  0.00  0.00    +0.000 A 
ATOM      4  C   UNL     1       1.158   9.973  18.999  0.00  0.00    +0.000 A 
ATOM      5  N   UNL     1       1.106   9.138  20.059  0.00  0.00    +0.000 NA
ATOM      6  C   UNL     1       1.746   7.952  19.933  0.00  0.00    +0.000 A 
ENDROOT
BRANCH   1   8
ATOM      7  N   UNL     1       3.681   5.836  19.840  0.00  0.00    +0.000 NA
ATOM      8  C   UNL     1       3.072   6.197  18.747  0.00  0.00    +0.000 C 
ATOM      9  N   UNL     1       2.884   5.496  17.563  0.00  0.00    +0.000 N 
ATOM     10  H   UNL     1       2.817   6.076  16.729  0.00  0.00    +0.000 HD
BRANCH   7  11
ATOM     11  O   UNL     1       4.239   4.560  19.802  0.00  0.00    +0.000 OA
ATOM     12  H   UNL     1       4.339   4.351  20.749  0.00  0.00    +0.000 HD
ENDBRANCH   7  11
BRANCH   9  13
ATOM     13  C   UNL     1       3.512   4.214  17.265  0.00  0.00    +0.000 C 
BRANCH  13  14
ATOM     14  C   UNL     1       2.572   3.049  17.585  0.00  0.00    +0.000 C 
ATOM     15  C   UNL     1       1.205   3.518  18.059  0.00  0.00    +0.000 C 
ATOM     16  C   UNL     1       0.714   2.300  18.797  0.00  0.00    +0.000 C 
ATOM     17  C   UNL     1       1.980   1.802  19.465  0.00  0.00    +0.000 C 
ATOM     18  O   UNL     1       3.091   2.233  18.656  0.00  0.00    +0.000 OA
ENDBRANCH  13  14
ENDBRANCH   9  13
ENDBRANCH   1   8
BRANCH   4  19
ATOM     19  O   UNL     1       0.413  11.150  19.022  0.00  0.00    +0.000 OA
BRANCH  19  20
ATOM     20  C   UNL     1      -0.918  11.052  18.658  0.00  0.00    +0.000 A 
ATOM     21  C   UNL     1      -1.804  11.980  19.209  0.00  0.00    +0.000 A 
ATOM     22  C   UNL     1      -3.168  11.906  18.903  0.00  0.00    +0.000 A 
ATOM     23  C   UNL     1      -3.634  10.912  18.043  0.00  0.00    +0.000 A 
ATOM     24 CL   UNL     1      -5.318  10.784  17.710  0.00  0.00    +0.000 Cl
ATOM     25  C   UNL     1      -2.746  10.017  17.453  0.00  0.00    +0.000 A 
ATOM     26  C   UNL     1      -1.385  10.100  17.743  0.00  0.00    +0.000 A 
ENDBRANCH  19  20
ENDBRANCH   4  19
TORSDOF 6
ENDMDL
MODEL 9
REMARK VINA RESULT:      -7.0      1.881      3.169
REMARK  Name = 
REMARK  6 active torsions:
REMARK  status: ('A' for Active; 'I' for Inactive)
REMARK    1  A    between atoms: O_1  and  N_2
REMARK    2  A    between atoms: C_3  and  C_11
REMARK    3  A    between atoms: N_4  and  C_5
REMARK    4  A    between atoms: C_5  and  C_6
REMARK    5  A    between atoms: C_14  and  O_15
REMARK    6  A    between atoms: O_15  and  C_16
REMARK                            x       y       z     vdW  Elec       q    Type
REMARK                         _______ _______ _______ _____ _____    ______ ____
ROOT
ATOM      1  C   UNL     1       2.207   7.587  19.203  0.00  0.00    +0.000 A 
ATOM      2  C   UNL     1       2.350   8.244  17.980  0.00  0.00    +0.000 A 
ATOM      3  C   UNL     1       1.760   9.503  17.809  0.00  0.00    +0.000 A 
ATOM      4  C   UNL     1       1.055  10.052  18.870  0.00  0.00    +0.000 A 
ATOM      5  N   UNL     1       0.958   9.467  20.083  0.00  0.00    +0.000 NA
ATOM      6  C   UNL     1       1.512   8.240  20.214  0.00  0.00    +0.000 A 
ENDROOT
BRANCH   1   8
ATOM      7  N   UNL     1       2.155   5.602  20.462  0.00  0.00    +0.000 NA
ATOM      8  C   UNL     1       2.699   6.184  19.432  0.00  0.00    +0.000 C 
ATOM      9  N   UNL     1       3.636   5.697  18.530  0.00  0.00    +0.000 N 
ATOM     10  H   UNL     1       4.246   6.405  18.124  0.00  0.00    +0.000 HD
BRANCH   7  11
ATOM     11  O   UNL     1       2.596   4.302  20.697  0.00  0.00    +0.000 OA
ATOM     12  H   UNL     1       2.586   3.916  19.802  0.00  0.00    +0.000 HD
ENDBRANCH   7  11
BRANCH   9  13
ATOM     13  C   UNL     1       4.333   4.425  18.683  0.00  0.00    +0.000 C 
BRANCH  13  14
ATOM     14  C   UNL     1       5.562   4.355  17.773  0.00  0.00    +0.000 C 
ATOM     15  C   UNL     1       6.053   5.730  17.351  0.00  0.00    +0.000 C 
ATOM     16  C   UNL     1       6.836   5.397  16.108  0.00  0.00    +0.000 C 
ATOM     17  C   UNL     1       5.986   4.310  15.480  0.00  0.00    +0.000 C 
ATOM     18  O   UNL     1       5.268   3.658  16.544  0.00  0.00    +0.000 OA
ENDBRANCH  13  14
ENDBRANCH   9  13
ENDBRANCH   1   8
BRANCH   4  19
ATOM     19  O   UNL     1       0.393  11.257  18.641  0.00  0.00    +0.000 OA
BRANCH  19  20
ATOM     20  C   UNL     1      -0.982  11.197  18.505  0.00  0.00    +0.000 A 
ATOM     21  C   UNL     1      -1.502  10.216  17.658  0.00  0.00    +0.000 A 
ATOM     22  C   UNL     1      -2.884  10.133  17.456  0.00  0.00    +0.000 A 
ATOM     23  C   UNL     1      -3.737  11.024  18.107  0.00  0.00    +0.000 A 
ATOM     24 CL   UNL     1      -5.432  10.960  17.816  0.00  0.00    +0.000 Cl
ATOM     25  C   UNL     1      -3.226  11.970  18.991  0.00  0.00    +0.000 A 
ATOM     26  C   UNL     1      -1.850  12.043  19.207  0.00  0.00    +0.000 A 
ENDBRANCH  19  20
ENDBRANCH   4  19
TORSDOF 6
ENDMDL
