MODEL 1
REMARK VINA RESULT:      -8.1      0.000      0.000
REMARK  Name = 
REMARK  8 active torsions:
REMARK  status: ('A' for Active; 'I' for Inactive)
REMARK    1  A    between atoms: C_1  and  O_2
REMARK    2  A    between atoms: O_2  and  C_3
REMARK    3  A    between atoms: C_8  and  C_9
REMARK    4  A    between atoms: C_14  and  C_15
REMARK    5  A    between atoms: C_16  and  C_17
REMARK    6  A    between atoms: C_17  and  O_19
REMARK    7  A    between atoms: O_19  and  C_20
REMARK    8  A    between atoms: C_24  and  C_25
REMARK                            x       y       z     vdW  Elec       q    Type
REMARK                         _______ _______ _______ _____ _____    ______ ____
ROOT
ATOM      1  C   UNL     1       5.743   4.864  17.883  0.00  0.00    +0.000 C 
ATOM      2  N   UNL     1       6.428   4.683  19.156  0.00  0.00    +0.000 N 
ATOM      3  C   UNL     1       7.490   5.409  19.570  0.00  0.00    +0.000 C 
ATOM      4  O   UNL     1       8.143   5.093  20.552  0.00  0.00    +0.000 OA
ATOM      5  N   UNL     1       7.738   6.544  18.862  0.00  0.00    +0.000 N 
ATOM      6  C   UNL     1       7.016   6.998  17.784  0.00  0.00    +0.000 C 
ATOM      7  C   UNL     1       7.376   8.391  17.355  0.00  0.00    +0.000 C 
ATOM      8  C   UNL     1       6.044   6.211  17.260  0.00  0.00    +0.000 C 
ATOM      9  H   UNL     1       6.256   3.840  19.690  0.00  0.00    +0.000 HD
ATOM     10  H   UNL     1       8.491   7.103  19.252  0.00  0.00    +0.000 HD
ENDROOT
BRANCH   1  16
ATOM     11  C   UNL     1       3.344   5.079  18.911  0.00  0.00    +0.000 A 
ATOM     12  C   UNL     1       2.020   4.603  18.939  0.00  0.00    +0.000 A 
ATOM     13  C   UNL     1       1.635   3.475  18.210  0.00  0.00    +0.000 A 
ATOM     14  C   UNL     1       2.575   2.799  17.448  0.00  0.00    +0.000 A 
ATOM     15  C   UNL     1       3.887   3.273  17.400  0.00  0.00    +0.000 A 
ATOM     16  C   UNL     1       4.294   4.442  18.094  0.00  0.00    +0.000 A 
BRANCH  11  18
ATOM     17  C   UNL     1       2.548   7.265  19.356  0.00  0.00    +0.000 C 
ATOM     18  O   UNL     1       3.531   6.259  19.580  0.00  0.00    +0.000 OA
ENDBRANCH  11  18
ENDBRANCH   1  16
BRANCH   8  19
ATOM     19  C   UNL     1       5.272   6.529  16.021  0.00  0.00    +0.000 C 
ATOM     20  O   UNL     1       4.172   7.050  16.035  0.00  0.00    +0.000 OA
BRANCH  19  21
ATOM     21  O   UNL     1       5.943   6.143  14.905  0.00  0.00    +0.000 OA
BRANCH  21  22
ATOM     22  C   UNL     1       6.687   4.908  14.943  0.00  0.00    +0.000 C 
ATOM     23  C   UNL     1       8.057   5.077  14.277  0.00  0.00    +0.000 C 
ATOM     24  C   UNL     1       7.966   5.305  12.768  0.00  0.00    +0.000 C 
ATOM     25  C   UNL     1       7.144   4.226  12.070  0.00  0.00    +0.000 C 
ATOM     26  C   UNL     1       5.753   4.084  12.696  0.00  0.00    +0.000 C 
ATOM     27  C   UNL     1       4.966   2.971  12.004  0.00  0.00    +0.000 C 
ATOM     28  C   UNL     1       5.859   3.835  14.211  0.00  0.00    +0.000 C 
ENDBRANCH  21  22
ENDBRANCH  19  21
ENDBRANCH   8  19
TORSDOF 5
ENDMDL
MODEL 2
REMARK VINA RESULT:      -8.0      1.087      1.866
REMARK  Name = 
REMARK  8 active torsions:
REMARK  status: ('A' for Active; 'I' for Inactive)
REMARK    1  A    between atoms: C_1  and  O_2
REMARK    2  A    between atoms: O_2  and  C_3
REMARK    3  A    between atoms: C_8  and  C_9
REMARK    4  A    between atoms: C_14  and  C_15
REMARK    5  A    between atoms: C_16  and  C_17
REMARK    6  A    between atoms: C_17  and  O_19
REMARK    7  A    between atoms: O_19  and  C_20
REMARK    8  A    between atoms: C_24  and  C_25
REMARK                            x       y       z     vdW  Elec       q    Type
REMARK                         _______ _______ _______ _____ _____    ______ ____
ROOT
ATOM      1  C   UNL     1       5.635   5.036  18.316  0.00  0.00    +0.000 C 
ATOM      2  N   UNL     1       6.449   4.856  19.510  0.00  0.00    +0.000 N 
ATOM      3  C   UNL     1       7.636   5.462  19.733  0.00  0.00    +0.000 C 
ATOM      4  O   UNL     1       8.366   5.131  20.654  0.00  0.00    +0.000 OA
ATOM      5  N   UNL     1       7.929   6.502  18.907  0.00  0.00    +0.000 N 
ATOM      6  C   UNL     1       7.136   6.972  17.886  0.00  0.00    +0.000 C 
ATOM      7  C   UNL     1       7.605   8.272  17.301  0.00  0.00    +0.000 C 
ATOM      8  C   UNL     1       6.016   6.285  17.550  0.00  0.00    +0.000 C 
ATOM      9  H   UNL     1       6.246   4.081  20.131  0.00  0.00    +0.000 HD
ATOM     10  H   UNL     1       8.788   6.983  19.156  0.00  0.00    +0.000 HD
ENDROOT
BRANCH   1  16
ATOM     11  C   UNL     1       3.336   3.781  18.325  0.00  0.00    +0.000 A 
ATOM     12  C   UNL     1       2.038   3.689  18.861  0.00  0.00    +0.000 A 
ATOM     13  C   UNL     1       1.549   4.645  19.755  0.00  0.00    +0.000 A 
ATOM     14  C   UNL     1       2.352   5.715  20.118  0.00  0.00    +0.000 A 
ATOM     15  C   UNL     1       3.646   5.806  19.605  0.00  0.00    +0.000 A 
ATOM     16  C   UNL     1       4.183   4.825  18.732  0.00  0.00    +0.000 A 
BRANCH  11  18
ATOM     17  C   UNL     1       3.656   1.437  18.205  0.00  0.00    +0.000 C 
ATOM     18  O   UNL     1       3.705   2.706  17.561  0.00  0.00    +0.000 OA
ENDBRANCH  11  18
ENDBRANCH   1  16
BRANCH   8  19
ATOM     19  C   UNL     1       5.137   6.616  16.388  0.00  0.00    +0.000 C 
ATOM     20  O   UNL     1       4.104   7.252  16.491  0.00  0.00    +0.000 OA
BRANCH  19  21
ATOM     21  O   UNL     1       5.627   6.099  15.231  0.00  0.00    +0.000 OA
BRANCH  21  22
ATOM     22  C   UNL     1       6.238   4.793  15.267  0.00  0.00    +0.000 C 
ATOM     23  C   UNL     1       7.688   4.857  14.773  0.00  0.00    +0.000 C 
ATOM     24  C   UNL     1       7.800   5.180  13.283  0.00  0.00    +0.000 C 
ATOM     25  C   UNL     1       6.966   4.235  12.423  0.00  0.00    +0.000 C 
ATOM     26  C   UNL     1       5.503   4.203  12.877  0.00  0.00    +0.000 C 
ATOM     27  C   UNL     1       4.700   3.220  12.024  0.00  0.00    +0.000 C 
ATOM     28  C   UNL     1       5.404   3.856  14.373  0.00  0.00    +0.000 C 
ENDBRANCH  21  22
ENDBRANCH  19  21
ENDBRANCH   8  19
TORSDOF 5
ENDMDL
MODEL 3
REMARK VINA RESULT:      -7.1      2.232      6.135
REMARK  Name = 
REMARK  8 active torsions:
REMARK  status: ('A' for Active; 'I' for Inactive)
REMARK    1  A    between atoms: C_1  and  O_2
REMARK    2  A    between atoms: O_2  and  C_3
REMARK    3  A    between atoms: C_8  and  C_9
REMARK    4  A    between atoms: C_14  and  C_15
REMARK    5  A    between atoms: C_16  and  C_17
REMARK    6  A    between atoms: C_17  and  O_19
REMARK    7  A    between atoms: O_19  and  C_20
REMARK    8  A    between atoms: C_24  and  C_25
REMARK                            x       y       z     vdW  Elec       q    Type
REMARK                         _______ _______ _______ _____ _____    ______ ____
ROOT
ATOM      1  C   UNL     1       4.434   4.031  18.822  0.00  0.00    +0.000 C 
ATOM      2  N   UNL     1       5.226   3.068  19.576  0.00  0.00    +0.000 N 
ATOM      3  C   UNL     1       4.716   2.127  20.400  0.00  0.00    +0.000 C 
ATOM      4  O   UNL     1       5.424   1.475  21.152  0.00  0.00    +0.000 OA
ATOM      5  N   UNL     1       3.378   1.909  20.286  0.00  0.00    +0.000 N 
ATOM      6  C   UNL     1       2.523   2.557  19.426  0.00  0.00    +0.000 C 
ATOM      7  C   UNL     1       1.153   1.948  19.355  0.00  0.00    +0.000 C 
ATOM      8  C   UNL     1       2.986   3.606  18.701  0.00  0.00    +0.000 C 
ATOM      9  H   UNL     1       6.223   3.221  19.673  0.00  0.00    +0.000 HD
ATOM     10  H   UNL     1       3.046   1.141  20.861  0.00  0.00    +0.000 HD
ENDROOT
BRANCH   1  16
ATOM     11  C   UNL     1       6.131   5.428  17.398  0.00  0.00    +0.000 A 
ATOM     12  C   UNL     1       6.838   5.558  16.188  0.00  0.00    +0.000 A 
ATOM     13  C   UNL     1       6.622   4.682  15.120  0.00  0.00    +0.000 A 
ATOM     14  C   UNL     1       5.685   3.668  15.246  0.00  0.00    +0.000 A 
ATOM     15  C   UNL     1       4.992   3.521  16.447  0.00  0.00    +0.000 A 
ATOM     16  C   UNL     1       5.224   4.367  17.563  0.00  0.00    +0.000 A 
BRANCH  11  18
ATOM     17  C   UNL     1       7.717   5.902  19.093  0.00  0.00    +0.000 C 
ATOM     18  O   UNL     1       6.542   6.286  18.383  0.00  0.00    +0.000 OA
ENDBRANCH  11  18
ENDBRANCH   1  16
BRANCH   8  19
ATOM     19  C   UNL     1       2.138   4.470  17.825  0.00  0.00    +0.000 C 
ATOM     20  O   UNL     1       1.849   4.181  16.679  0.00  0.00    +0.000 OA
BRANCH  19  21
ATOM     21  O   UNL     1       1.763   5.609  18.464  0.00  0.00    +0.000 OA
BRANCH  21  22
ATOM     22  C   UNL     1       2.777   6.391  19.128  0.00  0.00    +0.000 C 
ATOM     23  C   UNL     1       2.402   6.638  20.593  0.00  0.00    +0.000 C 
ATOM     24  C   UNL     1       1.189   7.555  20.755  0.00  0.00    +0.000 C 
ATOM     25  C   UNL     1       1.355   8.869  19.999  0.00  0.00    +0.000 C 
ATOM     26  C   UNL     1       1.681   8.633  18.521  0.00  0.00    +0.000 C 
ATOM     27  C   UNL     1       1.881   9.965  17.797  0.00  0.00    +0.000 C 
ATOM     28  C   UNL     1       2.915   7.725  18.373  0.00  0.00    +0.000 C 
ENDBRANCH  21  22
ENDBRANCH  19  21
ENDBRANCH   8  19
TORSDOF 5
ENDMDL
MODEL 4
REMARK VINA RESULT:      -6.9      2.496      4.665
REMARK  Name = 
REMARK  8 active torsions:
REMARK  status: ('A' for Active; 'I' for Inactive)
REMARK    1  A    between atoms: C_1  and  O_2
REMARK    2  A    between atoms: O_2  and  C_3
REMARK    3  A    between atoms: C_8  and  C_9
REMARK    4  A    between atoms: C_14  and  C_15
REMARK    5  A    between atoms: C_16  and  C_17
REMARK    6  A    between atoms: C_17  and  O_19
REMARK    7  A    between atoms: O_19  and  C_20
REMARK    8  A    between atoms: C_24  and  C_25
REMARK                            x       y       z     vdW  Elec       q    Type
REMARK                         _______ _______ _______ _____ _____    ______ ____
ROOT
ATOM      1  C   UNL     1       2.501   4.452  18.286  0.00  0.00    +0.000 C 
ATOM      2  N   UNL     1       1.266   3.684  18.368  0.00  0.00    +0.000 N 
ATOM      3  C   UNL     1       1.201   2.338  18.476  0.00  0.00    +0.000 C 
ATOM      4  O   UNL     1       0.149   1.731  18.347  0.00  0.00    +0.000 OA
ATOM      5  N   UNL     1       2.367   1.718  18.803  0.00  0.00    +0.000 N 
ATOM      6  C   UNL     1       3.576   2.334  19.022  0.00  0.00    +0.000 C 
ATOM      7  C   UNL     1       4.626   1.426  19.595  0.00  0.00    +0.000 C 
ATOM      8  C   UNL     1       3.697   3.661  18.771  0.00  0.00    +0.000 C 
ATOM      9  H   UNL     1       0.392   4.132  18.121  0.00  0.00    +0.000 HD
ATOM     10  H   UNL     1       2.261   0.720  18.955  0.00  0.00    +0.000 HD
ENDROOT
BRANCH   1  16
ATOM     11  C   UNL     1       1.647   6.082  20.151  0.00  0.00    +0.000 A 
ATOM     12  C   UNL     1       1.513   7.411  20.592  0.00  0.00    +0.000 A 
ATOM     13  C   UNL     1       1.885   8.489  19.784  0.00  0.00    +0.000 A 
ATOM     14  C   UNL     1       2.387   8.250  18.514  0.00  0.00    +0.000 A 
ATOM     15  C   UNL     1       2.539   6.935  18.073  0.00  0.00    +0.000 A 
ATOM     16  C   UNL     1       2.212   5.822  18.891  0.00  0.00    +0.000 A 
BRANCH  11  18
ATOM     17  C   UNL     1       2.468   4.472  21.682  0.00  0.00    +0.000 C 
ATOM     18  O   UNL     1       1.352   5.142  21.102  0.00  0.00    +0.000 OA
ENDBRANCH  11  18
ENDBRANCH   1  16
BRANCH   8  19
ATOM     19  C   UNL     1       4.979   4.425  18.849  0.00  0.00    +0.000 C 
ATOM     20  O   UNL     1       5.208   5.260  19.704  0.00  0.00    +0.000 OA
BRANCH  19  21
ATOM     21  O   UNL     1       5.824   4.082  17.842  0.00  0.00    +0.000 OA
BRANCH  21  22
ATOM     22  C   UNL     1       6.722   5.086  17.326  0.00  0.00    +0.000 C 
ATOM     23  C   UNL     1       6.004   6.431  17.172  0.00  0.00    +0.000 C 
ATOM     24  C   UNL     1       4.937   6.419  16.077  0.00  0.00    +0.000 C 
ATOM     25  C   UNL     1       5.487   5.931  14.741  0.00  0.00    +0.000 C 
ATOM     26  C   UNL     1       6.163   4.563  14.874  0.00  0.00    +0.000 C 
ATOM     27  C   UNL     1       6.739   4.117  13.530  0.00  0.00    +0.000 C 
ATOM     28  C   UNL     1       7.248   4.595  15.965  0.00  0.00    +0.000 C 
ENDBRANCH  21  22
ENDBRANCH  19  21
ENDBRANCH   8  19
TORSDOF 5
ENDMDL
MODEL 5
REMARK VINA RESULT:      -6.8      2.400      3.752
REMARK  Name = 
REMARK  8 active torsions:
REMARK  status: ('A' for Active; 'I' for Inactive)
REMARK    1  A    between atoms: C_1  and  O_2
REMARK    2  A    between atoms: O_2  and  C_3
REMARK    3  A    between atoms: C_8  and  C_9
REMARK    4  A    between atoms: C_14  and  C_15
REMARK    5  A    between atoms: C_16  and  C_17
REMARK    6  A    between atoms: C_17  and  O_19
REMARK    7  A    between atoms: O_19  and  C_20
REMARK    8  A    between atoms: C_24  and  C_25
REMARK                            x       y       z     vdW  Elec       q    Type
REMARK                         _______ _______ _______ _____ _____    ______ ____
ROOT
ATOM      1  C   UNL     1       2.989   6.191  19.690  0.00  0.00    +0.000 C 
ATOM      2  N   UNL     1       1.948   7.208  19.636  0.00  0.00    +0.000 N 
ATOM      3  C   UNL     1       1.977   8.300  18.839  0.00  0.00    +0.000 C 
ATOM      4  O   UNL     1       1.179   9.215  18.970  0.00  0.00    +0.000 OA
ATOM      5  N   UNL     1       2.906   8.277  17.845  0.00  0.00    +0.000 N 
ATOM      6  C   UNL     1       3.798   7.261  17.596  0.00  0.00    +0.000 C 
ATOM      7  C   UNL     1       4.538   7.407  16.298  0.00  0.00    +0.000 C 
ATOM      8  C   UNL     1       3.888   6.230  18.472  0.00  0.00    +0.000 C 
ATOM      9  H   UNL     1       1.254   7.240  20.373  0.00  0.00    +0.000 HD
ATOM     10  H   UNL     1       2.843   9.074  17.220  0.00  0.00    +0.000 HD
ENDROOT
BRANCH   1  16
ATOM     11  C   UNL     1       1.506   4.075  19.259  0.00  0.00    +0.000 A 
ATOM     12  C   UNL     1       1.013   2.853  19.753  0.00  0.00    +0.000 A 
ATOM     13  C   UNL     1       1.264   2.443  21.065  0.00  0.00    +0.000 A 
ATOM     14  C   UNL     1       2.005   3.257  21.906  0.00  0.00    +0.000 A 
ATOM     15  C   UNL     1       2.513   4.463  21.421  0.00  0.00    +0.000 A 
ATOM     16  C   UNL     1       2.312   4.882  20.080  0.00  0.00    +0.000 A 
BRANCH  11  18
ATOM     17  C   UNL     1       1.962   3.398  17.035  0.00  0.00    +0.000 C 
ATOM     18  O   UNL     1       1.277   4.276  17.924  0.00  0.00    +0.000 OA
ENDBRANCH  11  18
ENDBRANCH   1  16
BRANCH   8  19
ATOM     19  C   UNL     1       4.895   5.130  18.385  0.00  0.00    +0.000 C 
ATOM     20  O   UNL     1       5.601   4.794  19.319  0.00  0.00    +0.000 OA
BRANCH  19  21
ATOM     21  O   UNL     1       4.931   4.585  17.141  0.00  0.00    +0.000 OA
BRANCH  21  22
ATOM     22  C   UNL     1       6.066   3.774  16.778  0.00  0.00    +0.000 C 
ATOM     23  C   UNL     1       7.353   4.606  16.778  0.00  0.00    +0.000 C 
ATOM     24  C   UNL     1       7.388   5.654  15.665  0.00  0.00    +0.000 C 
ATOM     25  C   UNL     1       7.125   5.046  14.291  0.00  0.00    +0.000 C 
ATOM     26  C   UNL     1       5.814   4.253  14.267  0.00  0.00    +0.000 C 
ATOM     27  C   UNL     1       5.595   3.623  12.892  0.00  0.00    +0.000 C 
ATOM     28  C   UNL     1       5.800   3.189  15.379  0.00  0.00    +0.000 C 
ENDBRANCH  21  22
ENDBRANCH  19  21
ENDBRANCH   8  19
TORSDOF 5
ENDMDL
MODEL 6
REMARK VINA RESULT:      -6.7      2.378      6.647
REMARK  Name = 
REMARK  8 active torsions:
REMARK  status: ('A' for Active; 'I' for Inactive)
REMARK    1  A    between atoms: C_1  and  O_2
REMARK    2  A    between atoms: O_2  and  C_3
REMARK    3  A    between atoms: C_8  and  C_9
REMARK    4  A    between atoms: C_14  and  C_15
REMARK    5  A    between atoms: C_16  and  C_17
REMARK    6  A    between atoms: C_17  and  O_19
REMARK    7  A    between atoms: O_19  and  C_20
REMARK    8  A    between atoms: C_24  and  C_25
REMARK                            x       y       z     vdW  Elec       q    Type
REMARK                         _______ _______ _______ _____ _____    ______ ____
ROOT
ATOM      1  C   UNL     1       4.748   4.720  18.972  0.00  0.00    +0.000 C 
ATOM      2  N   UNL     1       5.160   3.399  19.429  0.00  0.00    +0.000 N 
ATOM      3  C   UNL     1       4.443   2.614  20.263  0.00  0.00    +0.000 C 
ATOM      4  O   UNL     1       4.916   1.606  20.766  0.00  0.00    +0.000 OA
ATOM      5  N   UNL     1       3.147   2.983  20.449  0.00  0.00    +0.000 N 
ATOM      6  C   UNL     1       2.525   4.066  19.875  0.00  0.00    +0.000 C 
ATOM      7  C   UNL     1       1.037   4.090  20.075  0.00  0.00    +0.000 C 
ATOM      8  C   UNL     1       3.263   4.950  19.159  0.00  0.00    +0.000 C 
ATOM      9  H   UNL     1       6.123   3.114  19.302  0.00  0.00    +0.000 HD
ATOM     10  H   UNL     1       2.620   2.325  21.015  0.00  0.00    +0.000 HD
ENDROOT
BRANCH   1  16
ATOM     11  C   UNL     1       6.397   5.832  17.269  0.00  0.00    +0.000 A 
ATOM     12  C   UNL     1       6.915   5.851  15.960  0.00  0.00    +0.000 A 
ATOM     13  C   UNL     1       6.398   5.024  14.960  0.00  0.00    +0.000 A 
ATOM     14  C   UNL     1       5.344   4.172  15.253  0.00  0.00    +0.000 A 
ATOM     15  C   UNL     1       4.835   4.134  16.552  0.00  0.00    +0.000 A 
ATOM     16  C   UNL     1       5.372   4.929  17.598  0.00  0.00    +0.000 A 
BRANCH  11  18
ATOM     17  C   UNL     1       7.690   7.786  17.621  0.00  0.00    +0.000 C 
ATOM     18  O   UNL     1       7.089   6.611  18.158  0.00  0.00    +0.000 OA
ENDBRANCH  11  18
ENDBRANCH   1  16
BRANCH   8  19
ATOM     19  C   UNL     1       2.738   6.227  18.589  0.00  0.00    +0.000 C 
ATOM     20  O   UNL     1       3.088   6.672  17.511  0.00  0.00    +0.000 OA
BRANCH  19  21
ATOM     21  O   UNL     1       1.853   6.821  19.432  0.00  0.00    +0.000 OA
BRANCH  21  22
ATOM     22  C   UNL     1       2.207   8.092  20.015  0.00  0.00    +0.000 C 
ATOM     23  C   UNL     1       1.641   8.216  21.434  0.00  0.00    +0.000 C 
ATOM     24  C   UNL     1       0.114   8.306  21.465  0.00  0.00    +0.000 C 
ATOM     25  C   UNL     1      -0.416   9.414  20.560  0.00  0.00    +0.000 C 
ATOM     26  C   UNL     1       0.103   9.270  19.126  0.00  0.00    +0.000 C 
ATOM     27  C   UNL     1      -0.412  10.414  18.253  0.00  0.00    +0.000 C 
ATOM     28  C   UNL     1       1.641   9.201  19.108  0.00  0.00    +0.000 C 
ENDBRANCH  21  22
ENDBRANCH  19  21
ENDBRANCH   8  19
TORSDOF 5
ENDMDL
MODEL 7
REMARK VINA RESULT:      -6.4      3.154      5.000
REMARK  Name = 
REMARK  8 active torsions:
REMARK  status: ('A' for Active; 'I' for Inactive)
REMARK    1  A    between atoms: C_1  and  O_2
REMARK    2  A    between atoms: O_2  and  C_3
REMARK    3  A    between atoms: C_8  and  C_9
REMARK    4  A    between atoms: C_14  and  C_15
REMARK    5  A    between atoms: C_16  and  C_17
REMARK    6  A    between atoms: C_17  and  O_19
REMARK    7  A    between atoms: O_19  and  C_20
REMARK    8  A    between atoms: C_24  and  C_25
REMARK                            x       y       z     vdW  Elec       q    Type
REMARK                         _______ _______ _______ _____ _____    ______ ____
ROOT
ATOM      1  C   UNL     1       2.250   6.907  19.911  0.00  0.00    +0.000 C 
ATOM      2  N   UNL     1       1.279   7.124  20.975  0.00  0.00    +0.000 N 
ATOM      3  C   UNL     1       0.740   8.321  21.295  0.00  0.00    +0.000 C 
ATOM      4  O   UNL     1       0.083   8.481  22.312  0.00  0.00    +0.000 OA
ATOM      5  N   UNL     1       0.921   9.311  20.379  0.00  0.00    +0.000 N 
ATOM      6  C   UNL     1       1.596   9.195  19.187  0.00  0.00    +0.000 C 
ATOM      7  C   UNL     1       1.433  10.379  18.278  0.00  0.00    +0.000 C 
ATOM      8  C   UNL     1       2.272   8.050  18.918  0.00  0.00    +0.000 C 
ATOM      9  H   UNL     1       1.139   6.397  21.667  0.00  0.00    +0.000 HD
ATOM     10  H   UNL     1       0.434  10.169  20.615  0.00  0.00    +0.000 HD
ENDROOT
BRANCH   1  16
ATOM     11  C   UNL     1       2.155   4.302  20.165  0.00  0.00    +0.000 A 
ATOM     12  C   UNL     1       1.865   3.062  19.564  0.00  0.00    +0.000 A 
ATOM     13  C   UNL     1       1.520   2.970  18.214  0.00  0.00    +0.000 A 
ATOM     14  C   UNL     1       1.472   4.119  17.440  0.00  0.00    +0.000 A 
ATOM     15  C   UNL     1       1.741   5.354  18.029  0.00  0.00    +0.000 A 
ATOM     16  C   UNL     1       2.049   5.482  19.409  0.00  0.00    +0.000 A 
BRANCH  11  18
ATOM     17  C   UNL     1       2.152   2.962  22.118  0.00  0.00    +0.000 C 
ATOM     18  O   UNL     1       2.357   4.237  21.518  0.00  0.00    +0.000 OA
ENDBRANCH  11  18
ENDBRANCH   1  16
BRANCH   8  19
ATOM     19  C   UNL     1       3.142   7.841  17.721  0.00  0.00    +0.000 C 
ATOM     20  O   UNL     1       2.878   8.282  16.618  0.00  0.00    +0.000 OA
BRANCH  19  21
ATOM     21  O   UNL     1       4.230   7.086  18.024  0.00  0.00    +0.000 OA
BRANCH  21  22
ATOM     22  C   UNL     1       5.221   6.868  17.000  0.00  0.00    +0.000 C 
ATOM     23  C   UNL     1       4.980   5.533  16.285  0.00  0.00    +0.000 C 
ATOM     24  C   UNL     1       5.228   4.319  17.181  0.00  0.00    +0.000 C 
ATOM     25  C   UNL     1       6.607   4.355  17.831  0.00  0.00    +0.000 C 
ATOM     26  C   UNL     1       6.839   5.664  18.592  0.00  0.00    +0.000 C 
ATOM     27  C   UNL     1       8.241   5.688  19.200  0.00  0.00    +0.000 C 
ATOM     28  C   UNL     1       6.606   6.877  17.673  0.00  0.00    +0.000 C 
ENDBRANCH  21  22
ENDBRANCH  19  21
ENDBRANCH   8  19
TORSDOF 5
ENDMDL
MODEL 8
REMARK VINA RESULT:      -6.4      7.320     11.638
REMARK  Name = 
REMARK  8 active torsions:
REMARK  status: ('A' for Active; 'I' for Inactive)
REMARK    1  A    between atoms: C_1  and  O_2
REMARK    2  A    between atoms: O_2  and  C_3
REMARK    3  A    between atoms: C_8  and  C_9
REMARK    4  A    between atoms: C_14  and  C_15
REMARK    5  A    between atoms: C_16  and  C_17
REMARK    6  A    between atoms: C_17  and  O_19
REMARK    7  A    between atoms: O_19  and  C_20
REMARK    8  A    between atoms: C_24  and  C_25
REMARK                            x       y       z     vdW  Elec       q    Type
REMARK                         _______ _______ _______ _____ _____    ______ ____
ROOT
ATOM      1  C   UNL     1      -1.040  11.078  19.719  0.00  0.00    +0.000 C 
ATOM      2  N   UNL     1      -1.480  10.682  18.387  0.00  0.00    +0.000 N 
ATOM      3  C   UNL     1      -1.773  11.540  17.385  0.00  0.00    +0.000 C 
ATOM      4  O   UNL     1      -2.318  11.169  16.357  0.00  0.00    +0.000 OA
ATOM      5  N   UNL     1      -1.360  12.823  17.570  0.00  0.00    +0.000 N 
ATOM      6  C   UNL     1      -0.690  13.306  18.669  0.00  0.00    +0.000 C 
ATOM      7  C   UNL     1      -0.157  14.698  18.494  0.00  0.00    +0.000 C 
ATOM      8  C   UNL     1      -0.522  12.500  19.747  0.00  0.00    +0.000 C 
ATOM      9  H   UNL     1      -1.795   9.731  18.237  0.00  0.00    +0.000 HD
ATOM     10  H   UNL     1      -1.524  13.417  16.764  0.00  0.00    +0.000 HD
ENDROOT
BRANCH   1  16
ATOM     11  C   UNL     1       0.874   9.297  19.566  0.00  0.00    +0.000 A 
ATOM     12  C   UNL     1       1.639   8.319  20.230  0.00  0.00    +0.000 A 
ATOM     13  C   UNL     1       1.357   7.942  21.545  0.00  0.00    +0.000 A 
ATOM     14  C   UNL     1       0.295   8.533  22.213  0.00  0.00    +0.000 A 
ATOM     15  C   UNL     1      -0.458   9.515  21.571  0.00  0.00    +0.000 A 
ATOM     16  C   UNL     1      -0.165   9.949  20.251  0.00  0.00    +0.000 A 
BRANCH  11  18
ATOM     17  C   UNL     1       2.251   8.710  17.730  0.00  0.00    +0.000 C 
ATOM     18  O   UNL     1       1.351   9.638  18.329  0.00  0.00    +0.000 OA
ENDBRANCH  11  18
ENDBRANCH   1  16
BRANCH   8  19
ATOM     19  C   UNL     1       0.077  12.936  21.046  0.00  0.00    +0.000 C 
ATOM     20  O   UNL     1       1.227  12.698  21.364  0.00  0.00    +0.000 OA
BRANCH  19  21
ATOM     21  O   UNL     1      -0.829  13.597  21.813  0.00  0.00    +0.000 OA
BRANCH  21  22
ATOM     22  C   UNL     1      -1.110  13.092  23.133  0.00  0.00    +0.000 C 
ATOM     23  C   UNL     1      -2.269  12.088  23.097  0.00  0.00    +0.000 C 
ATOM     24  C   UNL     1      -3.610  12.734  22.750  0.00  0.00    +0.000 C 
ATOM     25  C   UNL     1      -3.934  13.915  23.659  0.00  0.00    +0.000 C 
ATOM     26  C   UNL     1      -2.804  14.950  23.663  0.00  0.00    +0.000 C 
ATOM     27  C   UNL     1      -3.136  16.102  24.611  0.00  0.00    +0.000 C 
ATOM     28  C   UNL     1      -1.463  14.290  24.033  0.00  0.00    +0.000 C 
ENDBRANCH  21  22
ENDBRANCH  19  21
ENDBRANCH   8  19
TORSDOF 5
ENDMDL
MODEL 9
REMARK VINA RESULT:      -6.4      2.556      4.440
REMARK  Name = 
REMARK  8 active torsions:
REMARK  status: ('A' for Active; 'I' for Inactive)
REMARK    1  A    between atoms: C_1  and  O_2
REMARK    2  A    between atoms: O_2  and  C_3
REMARK    3  A    between atoms: C_8  and  C_9
REMARK    4  A    between atoms: C_14  and  C_15
REMARK    5  A    between atoms: C_16  and  C_17
REMARK    6  A    between atoms: C_17  and  O_19
REMARK    7  A    between atoms: O_19  and  C_20
REMARK    8  A    between atoms: C_24  and  C_25
REMARK                            x       y       z     vdW  Elec       q    Type
REMARK                         _______ _______ _______ _____ _____    ______ ____
ROOT
ATOM      1  C   UNL     1       2.337   4.563  18.148  0.00  0.00    +0.000 C 
ATOM      2  N   UNL     1       1.129   3.773  18.345  0.00  0.00    +0.000 N 
ATOM      3  C   UNL     1       1.098   2.426  18.455  0.00  0.00    +0.000 C 
ATOM      4  O   UNL     1       0.049   1.801  18.426  0.00  0.00    +0.000 OA
ATOM      5  N   UNL     1       2.300   1.827  18.668  0.00  0.00    +0.000 N 
ATOM      6  C   UNL     1       3.514   2.463  18.773  0.00  0.00    +0.000 C 
ATOM      7  C   UNL     1       4.629   1.574  19.241  0.00  0.00    +0.000 C 
ATOM      8  C   UNL     1       3.587   3.793  18.514  0.00  0.00    +0.000 C 
ATOM      9  H   UNL     1       0.227   4.206  18.184  0.00  0.00    +0.000 HD
ATOM     10  H   UNL     1       2.226   0.827  18.827  0.00  0.00    +0.000 HD
ENDROOT
BRANCH   1  16
ATOM     11  C   UNL     1       1.575   6.175  20.067  0.00  0.00    +0.000 A 
ATOM     12  C   UNL     1       1.470   7.500  20.530  0.00  0.00    +0.000 A 
ATOM     13  C   UNL     1       1.813   8.585  19.719  0.00  0.00    +0.000 A 
ATOM     14  C   UNL     1       2.257   8.358  18.426  0.00  0.00    +0.000 A 
ATOM     15  C   UNL     1       2.382   7.048  17.963  0.00  0.00    +0.000 A 
ATOM     16  C   UNL     1       2.084   5.927  18.781  0.00  0.00    +0.000 A 
BRANCH  11  18
ATOM     17  C   UNL     1       2.456   4.581  21.582  0.00  0.00    +0.000 C 
ATOM     18  O   UNL     1       1.317   5.225  21.019  0.00  0.00    +0.000 OA
ENDBRANCH  11  18
ENDBRANCH   1  16
BRANCH   8  19
ATOM     19  C   UNL     1       4.858   4.579  18.472  0.00  0.00    +0.000 C 
ATOM     20  O   UNL     1       5.413   5.006  19.467  0.00  0.00    +0.000 OA
BRANCH  19  21
ATOM     21  O   UNL     1       5.283   4.766  17.195  0.00  0.00    +0.000 OA
BRANCH  21  22
ATOM     22  C   UNL     1       6.294   3.882  16.670  0.00  0.00    +0.000 C 
ATOM     23  C   UNL     1       7.607   4.636  16.431  0.00  0.00    +0.000 C 
ATOM     24  C   UNL     1       7.512   5.659  15.299  0.00  0.00    +0.000 C 
ATOM     25  C   UNL     1       6.987   5.042  14.006  0.00  0.00    +0.000 C 
ATOM     26  C   UNL     1       5.649   4.329  14.224  0.00  0.00    +0.000 C 
ATOM     27  C   UNL     1       5.166   3.687  12.923  0.00  0.00    +0.000 C 
ATOM     28  C   UNL     1       5.764   3.288  15.352  0.00  0.00    +0.000 C 
ENDBRANCH  21  22
ENDBRANCH  19  21
ENDBRANCH   8  19
TORSDOF 5
ENDMDL
