MODEL 1
REMARK VINA RESULT:      -8.9      0.000      0.000
REMARK  Name = 
REMARK  3 active torsions:
REMARK  status: ('A' for Active; 'I' for Inactive)
REMARK    1  A    between atoms: C_8  and  C_9
REMARK    2  A    between atoms: C_13  and  N_14
REMARK    3  A    between atoms: C_24  and  O_25
REMARK                            x       y       z     vdW  Elec       q    Type
REMARK                         _______ _______ _______ _____ _____    ______ ____
ROOT
ATOM      1  O   UNL     1       2.431   4.985  20.444  0.00  0.00    +0.000 OA
ATOM      2  C   UNL     1       2.099   6.163  20.470  0.00  0.00    +0.000 C 
ATOM      3  N   UNL     1       1.448   6.696  21.545  0.00  0.00    +0.000 N 
ATOM      4  C   UNL     1       1.000   7.978  21.411  0.00  0.00    +0.000 C 
ATOM      5  O   UNL     1       0.335   8.529  22.275  0.00  0.00    +0.000 OA
ATOM      6  C   UNL     1       1.495   8.355  20.125  0.00  0.00    +0.000 A 
ATOM      7  C   UNL     1       2.210   7.265  19.536  0.00  0.00    +0.000 A 
ATOM      8  C   UNL     1       2.865   7.311  18.281  0.00  0.00    +0.000 A 
ATOM      9  C   UNL     1       2.739   8.522  17.563  0.00  0.00    +0.000 A 
ATOM     10  C   UNL     1       2.019   9.572  18.124  0.00  0.00    +0.000 A 
ATOM     11  N   UNL     1       1.741  10.836  17.663  0.00  0.00    +0.000 N 
ATOM     12  C   UNL     1       0.989  11.543  18.587  0.00  0.00    +0.000 A 
ATOM     13  C   UNL     1       0.505  12.856  18.499  0.00  0.00    +0.000 A 
ATOM     14  C   UNL     1      -0.239  13.349  19.573  0.00  0.00    +0.000 A 
ATOM     15  C   UNL     1      -0.476  12.550  20.682  0.00  0.00    +0.000 A 
ATOM     16  C   UNL     1       0.010  11.243  20.768  0.00  0.00    +0.000 A 
ATOM     17  C   UNL     1       0.762  10.717  19.697  0.00  0.00    +0.000 A 
ATOM     18  C   UNL     1       1.415   9.532  19.351  0.00  0.00    +0.000 A 
ATOM     19  H   UNL     1       1.228   6.142  22.355  0.00  0.00    +0.000 HD
ATOM     20  H   UNL     1       2.043  11.205  16.774  0.00  0.00    +0.000 HD
ENDROOT
BRANCH   8  21
ATOM     21  C   UNL     1       3.652   6.187  17.735  0.00  0.00    +0.000 A 
ATOM     22  C   UNL     1       3.059   4.928  17.491  0.00  0.00    +0.000 A 
ATOM     23  C   UNL     1       3.788   3.851  16.969  0.00  0.00    +0.000 A 
ATOM     24  C   UNL     1       5.147   3.992  16.707  0.00  0.00    +0.000 A 
ATOM     25  C   UNL     1       5.751   5.232  16.921  0.00  0.00    +0.000 A 
ATOM     26  C   UNL     1       4.999   6.326  17.374  0.00  0.00    +0.000 A 
BRANCH  25  27
ATOM     27  N   UNL     1       7.190   5.400  16.681  0.00  0.00    +0.000 N 
ATOM     28  O   UNL     1       7.603   6.546  16.452  0.00  0.00    +0.000 OA
ATOM     29  O   UNL     1       7.909   4.393  16.728  0.00  0.00    +0.000 OA
ENDBRANCH  25  27
ENDBRANCH   8  21
BRANCH  15  30
ATOM     30  O   UNL     1      -1.203  13.019  21.740  0.00  0.00    +0.000 OA
ATOM     31  H   UNL     1      -2.086  12.618  21.714  0.00  0.00    +0.000 HD
ENDBRANCH  15  30
TORSDOF 3
ENDMDL
MODEL 2
REMARK VINA RESULT:      -8.8      2.343      3.520
REMARK  Name = 
REMARK  3 active torsions:
REMARK  status: ('A' for Active; 'I' for Inactive)
REMARK    1  A    between atoms: C_8  and  C_9
REMARK    2  A    between atoms: C_13  and  N_14
REMARK    3  A    between atoms: C_24  and  O_25
REMARK                            x       y       z     vdW  Elec       q    Type
REMARK                         _______ _______ _______ _____ _____    ______ ____
ROOT
ATOM      1  O   UNL     1       4.713   3.004  18.177  0.00  0.00    +0.000 OA
ATOM      2  C   UNL     1       4.092   3.932  18.680  0.00  0.00    +0.000 C 
ATOM      3  N   UNL     1       3.430   3.787  19.865  0.00  0.00    +0.000 N 
ATOM      4  C   UNL     1       2.655   4.838  20.261  0.00  0.00    +0.000 C 
ATOM      5  O   UNL     1       1.955   4.790  21.262  0.00  0.00    +0.000 OA
ATOM      6  C   UNL     1       2.913   5.820  19.255  0.00  0.00    +0.000 A 
ATOM      7  C   UNL     1       3.826   5.300  18.286  0.00  0.00    +0.000 A 
ATOM      8  C   UNL     1       4.325   6.025  17.175  0.00  0.00    +0.000 A 
ATOM      9  C   UNL     1       3.823   7.336  17.018  0.00  0.00    +0.000 A 
ATOM     10  C   UNL     1       2.912   7.831  17.946  0.00  0.00    +0.000 A 
ATOM     11  N   UNL     1       2.276   9.044  18.041  0.00  0.00    +0.000 N 
ATOM     12  C   UNL     1       1.457   9.085  19.158  0.00  0.00    +0.000 A 
ATOM     13  C   UNL     1       0.644  10.134  19.609  0.00  0.00    +0.000 A 
ATOM     14  C   UNL     1      -0.097   9.930  20.775  0.00  0.00    +0.000 A 
ATOM     15  C   UNL     1      -0.014   8.721  21.451  0.00  0.00    +0.000 A 
ATOM     16  C   UNL     1       0.800   7.678  21.001  0.00  0.00    +0.000 A 
ATOM     17  C   UNL     1       1.557   7.855  19.824  0.00  0.00    +0.000 A 
ATOM     18  C   UNL     1       2.458   7.138  19.034  0.00  0.00    +0.000 A 
ATOM     19  H   UNL     1       3.438   2.917  20.369  0.00  0.00    +0.000 HD
ATOM     20  H   UNL     1       2.387   9.808  17.390  0.00  0.00    +0.000 HD
ENDROOT
BRANCH   8  21
ATOM     21  C   UNL     1       5.321   5.479  16.231  0.00  0.00    +0.000 A 
ATOM     22  C   UNL     1       6.706   5.600  16.477  0.00  0.00    +0.000 A 
ATOM     23  C   UNL     1       7.666   5.084  15.596  0.00  0.00    +0.000 A 
ATOM     24  C   UNL     1       7.267   4.460  14.419  0.00  0.00    +0.000 A 
ATOM     25  C   UNL     1       5.903   4.310  14.163  0.00  0.00    +0.000 A 
ATOM     26  C   UNL     1       4.948   4.763  15.085  0.00  0.00    +0.000 A 
BRANCH  25  27
ATOM     27  N   UNL     1       5.453   3.681  12.915  0.00  0.00    +0.000 N 
ATOM     28  O   UNL     1       6.316   3.167  12.189  0.00  0.00    +0.000 OA
ATOM     29  O   UNL     1       4.241   3.694  12.661  0.00  0.00    +0.000 OA
ENDBRANCH  25  27
ENDBRANCH   8  21
BRANCH  15  30
ATOM     30  O   UNL     1      -0.734   8.506  22.592  0.00  0.00    +0.000 OA
ATOM     31  H   UNL     1      -0.615   9.265  23.185  0.00  0.00    +0.000 HD
ENDBRANCH  15  30
TORSDOF 3
ENDMDL
MODEL 3
REMARK VINA RESULT:      -8.5      1.093      1.213
REMARK  Name = 
REMARK  3 active torsions:
REMARK  status: ('A' for Active; 'I' for Inactive)
REMARK    1  A    between atoms: C_8  and  C_9
REMARK    2  A    between atoms: C_13  and  N_14
REMARK    3  A    between atoms: C_24  and  O_25
REMARK                            x       y       z     vdW  Elec       q    Type
REMARK                         _______ _______ _______ _____ _____    ______ ____
ROOT
ATOM      1  O   UNL     1       3.010   4.510  20.075  0.00  0.00    +0.000 OA
ATOM      2  C   UNL     1       2.531   5.635  20.145  0.00  0.00    +0.000 C 
ATOM      3  N   UNL     1       1.704   5.995  21.169  0.00  0.00    +0.000 N 
ATOM      4  C   UNL     1       1.115   7.222  21.072  0.00  0.00    +0.000 C 
ATOM      5  O   UNL     1       0.295   7.617  21.888  0.00  0.00    +0.000 OA
ATOM      6  C   UNL     1       1.696   7.761  19.883  0.00  0.00    +0.000 A 
ATOM      7  C   UNL     1       2.603   6.816  19.309  0.00  0.00    +0.000 A 
ATOM      8  C   UNL     1       3.380   7.044  18.147  0.00  0.00    +0.000 A 
ATOM      9  C   UNL     1       3.181   8.287  17.506  0.00  0.00    +0.000 A 
ATOM     10  C   UNL     1       2.277   9.195  18.049  0.00  0.00    +0.000 A 
ATOM     11  N   UNL     1       1.894  10.452  17.648  0.00  0.00    +0.000 N 
ATOM     12  C   UNL     1       0.962  10.986  18.523  0.00  0.00    +0.000 A 
ATOM     13  C   UNL     1       0.328  12.235  18.471  0.00  0.00    +0.000 A 
ATOM     14  C   UNL     1      -0.584  12.546  19.481  0.00  0.00    +0.000 A 
ATOM     15  C   UNL     1      -0.838  11.635  20.495  0.00  0.00    +0.000 A 
ATOM     16  C   UNL     1      -0.203  10.391  20.546  0.00  0.00    +0.000 A 
ATOM     17  C   UNL     1       0.722  10.049  19.538  0.00  0.00    +0.000 A 
ATOM     18  C   UNL     1       1.553   8.982  19.189  0.00  0.00    +0.000 A 
ATOM     19  H   UNL     1       1.469   5.353  21.906  0.00  0.00    +0.000 HD
ATOM     20  H   UNL     1       2.242  10.928  16.828  0.00  0.00    +0.000 HD
ENDROOT
BRANCH   8  21
ATOM     21  C   UNL     1       4.358   6.071  17.621  0.00  0.00    +0.000 A 
ATOM     22  C   UNL     1       4.052   5.253  16.510  0.00  0.00    +0.000 A 
ATOM     23  C   UNL     1       4.968   4.327  15.993  0.00  0.00    +0.000 A 
ATOM     24  C   UNL     1       6.210   4.165  16.597  0.00  0.00    +0.000 A 
ATOM     25  C   UNL     1       6.543   4.975  17.684  0.00  0.00    +0.000 A 
ATOM     26  C   UNL     1       5.649   5.951  18.150  0.00  0.00    +0.000 A 
BRANCH  25  27
ATOM     27  N   UNL     1       7.835   4.804  18.360  0.00  0.00    +0.000 N 
ATOM     28  O   UNL     1       8.649   4.021  17.851  0.00  0.00    +0.000 OA
ATOM     29  O   UNL     1       8.042   5.454  19.394  0.00  0.00    +0.000 OA
ENDBRANCH  25  27
ENDBRANCH   8  21
BRANCH  15  30
ATOM     30  O   UNL     1      -1.730  11.924  21.490  0.00  0.00    +0.000 OA
ATOM     31  H   UNL     1      -1.256  12.354  22.219  0.00  0.00    +0.000 HD
ENDBRANCH  15  30
TORSDOF 3
ENDMDL
MODEL 4
REMARK VINA RESULT:      -8.5      2.092      3.347
REMARK  Name = 
REMARK  3 active torsions:
REMARK  status: ('A' for Active; 'I' for Inactive)
REMARK    1  A    between atoms: C_8  and  C_9
REMARK    2  A    between atoms: C_13  and  N_14
REMARK    3  A    between atoms: C_24  and  O_25
REMARK                            x       y       z     vdW  Elec       q    Type
REMARK                         _______ _______ _______ _____ _____    ______ ____
ROOT
ATOM      1  O   UNL     1       3.228   8.123  17.088  0.00  0.00    +0.000 OA
ATOM      2  C   UNL     1       2.442   8.738  17.797  0.00  0.00    +0.000 C 
ATOM      3  N   UNL     1       1.959   9.961  17.431  0.00  0.00    +0.000 N 
ATOM      4  C   UNL     1       1.203  10.618  18.358  0.00  0.00    +0.000 C 
ATOM      5  O   UNL     1       0.786  11.752  18.172  0.00  0.00    +0.000 OA
ATOM      6  C   UNL     1       1.110   9.671  19.423  0.00  0.00    +0.000 A 
ATOM      7  C   UNL     1       1.836   8.485  19.089  0.00  0.00    +0.000 A 
ATOM      8  C   UNL     1       1.918   7.329  19.905  0.00  0.00    +0.000 A 
ATOM      9  C   UNL     1       1.266   7.410  21.156  0.00  0.00    +0.000 A 
ATOM     10  C   UNL     1       0.584   8.575  21.493  0.00  0.00    +0.000 A 
ATOM     11  N   UNL     1      -0.126   8.924  22.615  0.00  0.00    +0.000 N 
ATOM     12  C   UNL     1      -0.646  10.203  22.493  0.00  0.00    +0.000 A 
ATOM     13  C   UNL     1      -1.425  10.922  23.409  0.00  0.00    +0.000 A 
ATOM     14  C   UNL     1      -1.831  12.209  23.051  0.00  0.00    +0.000 A 
ATOM     15  C   UNL     1      -1.466  12.738  21.822  0.00  0.00    +0.000 A 
ATOM     16  C   UNL     1      -0.692  12.017  20.909  0.00  0.00    +0.000 A 
ATOM     17  C   UNL     1      -0.265  10.716  21.244  0.00  0.00    +0.000 A 
ATOM     18  C   UNL     1       0.482   9.676  20.687  0.00  0.00    +0.000 A 
ATOM     19  H   UNL     1       2.225  10.393  16.564  0.00  0.00    +0.000 HD
ATOM     20  H   UNL     1      -0.257   8.332  23.423  0.00  0.00    +0.000 HD
ENDROOT
BRANCH   8  21
ATOM     21  C   UNL     1       2.620   6.096  19.497  0.00  0.00    +0.000 A 
ATOM     22  C   UNL     1       1.907   4.922  19.169  0.00  0.00    +0.000 A 
ATOM     23  C   UNL     1       2.555   3.743  18.775  0.00  0.00    +0.000 A 
ATOM     24  C   UNL     1       3.944   3.694  18.732  0.00  0.00    +0.000 A 
ATOM     25  C   UNL     1       4.671   4.847  19.033  0.00  0.00    +0.000 A 
ATOM     26  C   UNL     1       4.013   6.043  19.355  0.00  0.00    +0.000 A 
BRANCH  25  27
ATOM     27  N   UNL     1       6.138   4.814  19.025  0.00  0.00    +0.000 N 
ATOM     28  O   UNL     1       6.694   4.221  18.089  0.00  0.00    +0.000 OA
ATOM     29  O   UNL     1       6.738   5.385  19.947  0.00  0.00    +0.000 OA
ENDBRANCH  25  27
ENDBRANCH   8  21
BRANCH  15  30
ATOM     30  O   UNL     1      -1.855  13.997  21.458  0.00  0.00    +0.000 OA
ATOM     31  H   UNL     1      -1.498  14.631  22.100  0.00  0.00    +0.000 HD
ENDBRANCH  15  30
TORSDOF 3
ENDMDL
MODEL 5
REMARK VINA RESULT:      -8.4      2.577      3.632
REMARK  Name = 
REMARK  3 active torsions:
REMARK  status: ('A' for Active; 'I' for Inactive)
REMARK    1  A    between atoms: C_8  and  C_9
REMARK    2  A    between atoms: C_13  and  N_14
REMARK    3  A    between atoms: C_24  and  O_25
REMARK                            x       y       z     vdW  Elec       q    Type
REMARK                         _______ _______ _______ _____ _____    ______ ____
ROOT
ATOM      1  O   UNL     1       3.297   6.404  17.637  0.00  0.00    +0.000 OA
ATOM      2  C   UNL     1       2.695   7.368  18.094  0.00  0.00    +0.000 C 
ATOM      3  N   UNL     1       2.670   8.567  17.442  0.00  0.00    +0.000 N 
ATOM      4  C   UNL     1       2.093   9.609  18.108  0.00  0.00    +0.000 C 
ATOM      5  O   UNL     1       2.085  10.745  17.658  0.00  0.00    +0.000 OA
ATOM      6  C   UNL     1       1.605   8.992  19.302  0.00  0.00    +0.000 A 
ATOM      7  C   UNL     1       1.931   7.600  19.303  0.00  0.00    +0.000 A 
ATOM      8  C   UNL     1       1.562   6.683  20.318  0.00  0.00    +0.000 A 
ATOM      9  C   UNL     1       0.866   7.230  21.419  0.00  0.00    +0.000 A 
ATOM     10  C   UNL     1       0.575   8.591  21.431  0.00  0.00    +0.000 A 
ATOM     11  N   UNL     1      -0.078   9.376  22.350  0.00  0.00    +0.000 N 
ATOM     12  C   UNL     1      -0.140  10.691  21.920  0.00  0.00    +0.000 A 
ATOM     13  C   UNL     1      -0.719  11.796  22.561  0.00  0.00    +0.000 A 
ATOM     14  C   UNL     1      -0.651  13.032  21.918  0.00  0.00    +0.000 A 
ATOM     15  C   UNL     1      -0.029  13.142  20.682  0.00  0.00    +0.000 A 
ATOM     16  C   UNL     1       0.544  12.040  20.044  0.00  0.00    +0.000 A 
ATOM     17  C   UNL     1       0.493  10.778  20.672  0.00  0.00    +0.000 A 
ATOM     18  C   UNL     1       0.906   9.465  20.433  0.00  0.00    +0.000 A 
ATOM     19  H   UNL     1       3.137   8.697  16.561  0.00  0.00    +0.000 HD
ATOM     20  H   UNL     1      -0.464   9.044  23.222  0.00  0.00    +0.000 HD
ENDROOT
BRANCH   8  21
ATOM     21  C   UNL     1       1.857   5.238  20.253  0.00  0.00    +0.000 A 
ATOM     22  C   UNL     1       0.827   4.276  20.351  0.00  0.00    +0.000 A 
ATOM     23  C   UNL     1       1.086   2.900  20.286  0.00  0.00    +0.000 A 
ATOM     24  C   UNL     1       2.393   2.443  20.157  0.00  0.00    +0.000 A 
ATOM     25  C   UNL     1       3.426   3.375  20.038  0.00  0.00    +0.000 A 
ATOM     26  C   UNL     1       3.151   4.750  20.030  0.00  0.00    +0.000 A 
BRANCH  25  27
ATOM     27  N   UNL     1       4.818   2.920  19.931  0.00  0.00    +0.000 N 
ATOM     28  O   UNL     1       5.617   3.656  19.334  0.00  0.00    +0.000 OA
ATOM     29  O   UNL     1       5.116   1.834  20.446  0.00  0.00    +0.000 OA
ENDBRANCH  25  27
ENDBRANCH   8  21
BRANCH  15  30
ATOM     30  O   UNL     1       0.046  14.347  20.041  0.00  0.00    +0.000 OA
ATOM     31  H   UNL     1       0.014  14.194  19.084  0.00  0.00    +0.000 HD
ENDBRANCH  15  30
TORSDOF 3
ENDMDL
MODEL 6
REMARK VINA RESULT:      -8.4      2.648      4.054
REMARK  Name = 
REMARK  3 active torsions:
REMARK  status: ('A' for Active; 'I' for Inactive)
REMARK    1  A    between atoms: C_8  and  C_9
REMARK    2  A    between atoms: C_13  and  N_14
REMARK    3  A    between atoms: C_24  and  O_25
REMARK                            x       y       z     vdW  Elec       q    Type
REMARK                         _______ _______ _______ _____ _____    ______ ____
ROOT
ATOM      1  O   UNL     1       3.213   8.126  17.135  0.00  0.00    +0.000 OA
ATOM      2  C   UNL     1       2.428   8.755  17.834  0.00  0.00    +0.000 C 
ATOM      3  N   UNL     1       1.972   9.986  17.461  0.00  0.00    +0.000 N 
ATOM      4  C   UNL     1       1.217  10.659  18.378  0.00  0.00    +0.000 C 
ATOM      5  O   UNL     1       0.822  11.799  18.187  0.00  0.00    +0.000 OA
ATOM      6  C   UNL     1       1.095   9.714  19.444  0.00  0.00    +0.000 A 
ATOM      7  C   UNL     1       1.803   8.515  19.119  0.00  0.00    +0.000 A 
ATOM      8  C   UNL     1       1.855   7.359  19.937  0.00  0.00    +0.000 A 
ATOM      9  C   UNL     1       1.190   7.453  21.180  0.00  0.00    +0.000 A 
ATOM     10  C   UNL     1       0.525   8.631  21.507  0.00  0.00    +0.000 A 
ATOM     11  N   UNL     1      -0.193   8.993  22.621  0.00  0.00    +0.000 N 
ATOM     12  C   UNL     1      -0.688  10.281  22.491  0.00  0.00    +0.000 A 
ATOM     13  C   UNL     1      -1.465  11.015  23.398  0.00  0.00    +0.000 A 
ATOM     14  C   UNL     1      -1.843  12.308  23.034  0.00  0.00    +0.000 A 
ATOM     15  C   UNL     1      -1.455  12.830  21.808  0.00  0.00    +0.000 A 
ATOM     16  C   UNL     1      -0.683  12.094  20.905  0.00  0.00    +0.000 A 
ATOM     17  C   UNL     1      -0.283  10.786  21.247  0.00  0.00    +0.000 A 
ATOM     18  C   UNL     1       0.452   9.732  20.700  0.00  0.00    +0.000 A 
ATOM     19  H   UNL     1       2.256  10.414  16.596  0.00  0.00    +0.000 HD
ATOM     20  H   UNL     1      -0.344   8.405  23.427  0.00  0.00    +0.000 HD
ENDROOT
BRANCH   8  21
ATOM     21  C   UNL     1       2.540   6.113  19.539  0.00  0.00    +0.000 A 
ATOM     22  C   UNL     1       3.949   6.011  19.566  0.00  0.00    +0.000 A 
ATOM     23  C   UNL     1       4.617   4.836  19.196  0.00  0.00    +0.000 A 
ATOM     24  C   UNL     1       3.893   3.735  18.752  0.00  0.00    +0.000 A 
ATOM     25  C   UNL     1       2.499   3.804  18.734  0.00  0.00    +0.000 A 
ATOM     26  C   UNL     1       1.835   4.958  19.175  0.00  0.00    +0.000 A 
BRANCH  25  27
ATOM     27  N   UNL     1       1.712   2.667  18.241  0.00  0.00    +0.000 N 
ATOM     28  O   UNL     1       0.620   2.448  18.782  0.00  0.00    +0.000 OA
ATOM     29  O   UNL     1       2.179   1.997  17.309  0.00  0.00    +0.000 OA
ENDBRANCH  25  27
ENDBRANCH   8  21
BRANCH  15  30
ATOM     30  O   UNL     1      -1.816  14.095  21.439  0.00  0.00    +0.000 OA
ATOM     31  H   UNL     1      -2.458  14.436  22.081  0.00  0.00    +0.000 HD
ENDBRANCH  15  30
TORSDOF 3
ENDMDL
MODEL 7
REMARK VINA RESULT:      -8.4      8.012     10.350
REMARK  Name = 
REMARK  3 active torsions:
REMARK  status: ('A' for Active; 'I' for Inactive)
REMARK    1  A    between atoms: C_8  and  C_9
REMARK    2  A    between atoms: C_13  and  N_14
REMARK    3  A    between atoms: C_24  and  O_25
REMARK                            x       y       z     vdW  Elec       q    Type
REMARK                         _______ _______ _______ _____ _____    ______ ____
ROOT
ATOM      1  O   UNL     1       4.881  14.300  23.970  0.00  0.00    +0.000 OA
ATOM      2  C   UNL     1       5.773  14.249  23.132  0.00  0.00    +0.000 C 
ATOM      3  N   UNL     1       5.809  15.115  22.078  0.00  0.00    +0.000 N 
ATOM      4  C   UNL     1       6.762  14.879  21.130  0.00  0.00    +0.000 C 
ATOM      5  O   UNL     1       6.837  15.538  20.104  0.00  0.00    +0.000 OA
ATOM      6  C   UNL     1       7.489  13.778  21.677  0.00  0.00    +0.000 A 
ATOM      7  C   UNL     1       6.923  13.391  22.932  0.00  0.00    +0.000 A 
ATOM      8  C   UNL     1       7.425  12.359  23.763  0.00  0.00    +0.000 A 
ATOM      9  C   UNL     1       8.537  11.648  23.259  0.00  0.00    +0.000 A 
ATOM     10  C   UNL     1       9.070  12.005  22.025  0.00  0.00    +0.000 A 
ATOM     11  N   UNL     1      10.127  11.501  21.307  0.00  0.00    +0.000 N 
ATOM     12  C   UNL     1      10.293  12.196  20.120  0.00  0.00    +0.000 A 
ATOM     13  C   UNL     1      11.251  11.996  19.116  0.00  0.00    +0.000 A 
ATOM     14  C   UNL     1      11.211  12.835  18.001  0.00  0.00    +0.000 A 
ATOM     15  C   UNL     1      10.249  13.831  17.912  0.00  0.00    +0.000 A 
ATOM     16  C   UNL     1       9.298  14.030  18.915  0.00  0.00    +0.000 A 
ATOM     17  C   UNL     1       9.311  13.195  20.052  0.00  0.00    +0.000 A 
ATOM     18  C   UNL     1       8.600  13.024  21.242  0.00  0.00    +0.000 A 
ATOM     19  H   UNL     1       5.111  15.829  21.959  0.00  0.00    +0.000 HD
ATOM     20  H   UNL     1      10.708  10.730  21.601  0.00  0.00    +0.000 HD
ENDROOT
BRANCH   8  21
ATOM     21  C   UNL     1       6.855  12.033  25.085  0.00  0.00    +0.000 A 
ATOM     22  C   UNL     1       7.400  12.573  26.271  0.00  0.00    +0.000 A 
ATOM     23  C   UNL     1       6.870  12.279  27.535  0.00  0.00    +0.000 A 
ATOM     24  C   UNL     1       5.796  11.403  27.653  0.00  0.00    +0.000 A 
ATOM     25  C   UNL     1       5.228  10.871  26.494  0.00  0.00    +0.000 A 
ATOM     26  C   UNL     1       5.717  11.228  25.229  0.00  0.00    +0.000 A 
BRANCH  25  27
ATOM     27  N   UNL     1       4.113   9.921  26.591  0.00  0.00    +0.000 N 
ATOM     28  O   UNL     1       3.444   9.715  25.569  0.00  0.00    +0.000 OA
ATOM     29  O   UNL     1       3.908   9.374  27.684  0.00  0.00    +0.000 OA
ENDBRANCH  25  27
ENDBRANCH   8  21
BRANCH  15  30
ATOM     30  O   UNL     1      10.198  14.659  16.826  0.00  0.00    +0.000 OA
ATOM     31  H   UNL     1       9.648  14.244  16.142  0.00  0.00    +0.000 HD
ENDBRANCH  15  30
TORSDOF 3
ENDMDL
MODEL 8
REMARK VINA RESULT:      -8.1      2.067      7.698
REMARK  Name = 
REMARK  3 active torsions:
REMARK  status: ('A' for Active; 'I' for Inactive)
REMARK    1  A    between atoms: C_8  and  C_9
REMARK    2  A    between atoms: C_13  and  N_14
REMARK    3  A    between atoms: C_24  and  O_25
REMARK                            x       y       z     vdW  Elec       q    Type
REMARK                         _______ _______ _______ _____ _____    ______ ____
ROOT
ATOM      1  O   UNL     1      -0.080   9.468  21.535  0.00  0.00    +0.000 OA
ATOM      2  C   UNL     1       0.605   8.611  20.990  0.00  0.00    +0.000 C 
ATOM      3  N   UNL     1       0.823   7.396  21.574  0.00  0.00    +0.000 N 
ATOM      4  C   UNL     1       1.715   6.573  20.949  0.00  0.00    +0.000 C 
ATOM      5  O   UNL     1       2.049   5.497  21.422  0.00  0.00    +0.000 OA
ATOM      6  C   UNL     1       2.052   7.306  19.770  0.00  0.00    +0.000 A 
ATOM      7  C   UNL     1       1.353   8.553  19.751  0.00  0.00    +0.000 A 
ATOM      8  C   UNL     1       1.426   9.506  18.704  0.00  0.00    +0.000 A 
ATOM      9  C   UNL     1       2.303   9.190  17.643  0.00  0.00    +0.000 A 
ATOM     10  C   UNL     1       3.005   7.989  17.676  0.00  0.00    +0.000 A 
ATOM     11  N   UNL     1       3.904   7.433  16.799  0.00  0.00    +0.000 N 
ATOM     12  C   UNL     1       4.339   6.199  17.253  0.00  0.00    +0.000 A 
ATOM     13  C   UNL     1       5.248   5.316  16.654  0.00  0.00    +0.000 A 
ATOM     14  C   UNL     1       5.527   4.119  17.315  0.00  0.00    +0.000 A 
ATOM     15  C   UNL     1       4.910   3.830  18.524  0.00  0.00    +0.000 A 
ATOM     16  C   UNL     1       4.002   4.711  19.118  0.00  0.00    +0.000 A 
ATOM     17  C   UNL     1       3.703   5.929  18.474  0.00  0.00    +0.000 A 
ATOM     18  C   UNL     1       2.906   7.059  18.674  0.00  0.00    +0.000 A 
ATOM     19  H   UNL     1       0.422   7.161  22.465  0.00  0.00    +0.000 HD
ATOM     20  H   UNL     1       4.210   7.862  15.937  0.00  0.00    +0.000 HD
ENDROOT
BRANCH   8  21
ATOM     21  C   UNL     1       0.636  10.753  18.686  0.00  0.00    +0.000 A 
ATOM     22  C   UNL     1       1.251  12.012  18.870  0.00  0.00    +0.000 A 
ATOM     23  C   UNL     1       0.520  13.207  18.852  0.00  0.00    +0.000 A 
ATOM     24  C   UNL     1      -0.860  13.176  18.684  0.00  0.00    +0.000 A 
ATOM     25  C   UNL     1      -1.489  11.946  18.480  0.00  0.00    +0.000 A 
ATOM     26  C   UNL     1      -0.741  10.760  18.427  0.00  0.00    +0.000 A 
BRANCH  25  27
ATOM     27  N   UNL     1      -2.948  11.881  18.330  0.00  0.00    +0.000 N 
ATOM     28  O   UNL     1      -3.639  12.153  19.322  0.00  0.00    +0.000 OA
ATOM     29  O   UNL     1      -3.405  11.567  17.223  0.00  0.00    +0.000 OA
ENDBRANCH  25  27
ENDBRANCH   8  21
BRANCH  15  30
ATOM     30  O   UNL     1       5.175   2.663  19.184  0.00  0.00    +0.000 OA
ATOM     31  H   UNL     1       4.906   1.919  18.622  0.00  0.00    +0.000 HD
ENDBRANCH  15  30
TORSDOF 3
ENDMDL
MODEL 9
REMARK VINA RESULT:      -8.0      2.598      3.815
REMARK  Name = 
REMARK  3 active torsions:
REMARK  status: ('A' for Active; 'I' for Inactive)
REMARK    1  A    between atoms: C_8  and  C_9
REMARK    2  A    between atoms: C_13  and  N_14
REMARK    3  A    between atoms: C_24  and  O_25
REMARK                            x       y       z     vdW  Elec       q    Type
REMARK                         _______ _______ _______ _____ _____    ______ ____
ROOT
ATOM      1  O   UNL     1       3.588   7.325  17.145  0.00  0.00    +0.000 OA
ATOM      2  C   UNL     1       2.876   8.066  17.810  0.00  0.00    +0.000 C 
ATOM      3  N   UNL     1       2.732   9.386  17.496  0.00  0.00    +0.000 N 
ATOM      4  C   UNL     1       2.031  10.150  18.384  0.00  0.00    +0.000 C 
ATOM      5  O   UNL     1       1.907  11.358  18.249  0.00  0.00    +0.000 OA
ATOM      6  C   UNL     1       1.592   9.192  19.350  0.00  0.00    +0.000 A 
ATOM      7  C   UNL     1       2.069   7.890  19.000  0.00  0.00    +0.000 A 
ATOM      8  C   UNL     1       1.783   6.704  19.721  0.00  0.00    +0.000 A 
ATOM      9  C   UNL     1       1.011   6.865  20.893  0.00  0.00    +0.000 A 
ATOM     10  C   UNL     1       0.572   8.137  21.248  0.00  0.00    +0.000 A 
ATOM     11  N   UNL     1      -0.180   8.578  22.309  0.00  0.00    +0.000 N 
ATOM     12  C   UNL     1      -0.378   9.948  22.237  0.00  0.00    +0.000 A 
ATOM     13  C   UNL     1      -1.087  10.777  23.118  0.00  0.00    +0.000 A 
ATOM     14  C   UNL     1      -1.143  12.141  22.825  0.00  0.00    +0.000 A 
ATOM     15  C   UNL     1      -0.514  12.638  21.693  0.00  0.00    +0.000 A 
ATOM     16  C   UNL     1       0.189  11.809  20.815  0.00  0.00    +0.000 A 
ATOM     17  C   UNL     1       0.265  10.427  21.086  0.00  0.00    +0.000 A 
ATOM     18  C   UNL     1       0.824   9.273  20.531  0.00  0.00    +0.000 A 
ATOM     19  H   UNL     1       3.198   9.793  16.703  0.00  0.00    +0.000 HD
ATOM     20  H   UNL     1      -0.543   7.990  23.044  0.00  0.00    +0.000 HD
ENDROOT
BRANCH   8  21
ATOM     21  C   UNL     1       2.236   5.365  19.292  0.00  0.00    +0.000 A 
ATOM     22  C   UNL     1       1.997   4.897  17.981  0.00  0.00    +0.000 A 
ATOM     23  C   UNL     1       2.423   3.632  17.554  0.00  0.00    +0.000 A 
ATOM     24  C   UNL     1       3.072   2.780  18.441  0.00  0.00    +0.000 A 
ATOM     25  C   UNL     1       3.338   3.228  19.736  0.00  0.00    +0.000 A 
ATOM     26  C   UNL     1       2.973   4.522  20.134  0.00  0.00    +0.000 A 
BRANCH  25  27
ATOM     27  N   UNL     1       3.995   2.338  20.701  0.00  0.00    +0.000 N 
ATOM     28  O   UNL     1       3.424   2.145  21.784  0.00  0.00    +0.000 OA
ATOM     29  O   UNL     1       5.075   1.826  20.379  0.00  0.00    +0.000 OA
ENDBRANCH  25  27
ENDBRANCH   8  21
BRANCH  15  30
ATOM     30  O   UNL     1      -0.559  13.971  21.395  0.00  0.00    +0.000 OA
ATOM     31  H   UNL     1      -0.152  14.467  22.122  0.00  0.00    +0.000 HD
ENDBRANCH  15  30
TORSDOF 3
ENDMDL
