MODEL 1
REMARK VINA RESULT:      -8.0      0.000      0.000
REMARK  Name = 
REMARK  6 active torsions:
REMARK  status: ('A' for Active; 'I' for Inactive)
REMARK    1  A    between atoms: C_1  and  N_2
REMARK    2  A    between atoms: N_5  and  C_6
REMARK    3  A    between atoms: C_9  and  N_10
REMARK    4  A    between atoms: C_14  and  C_15
REMARK    5  A    between atoms: C_20  and  S_21
REMARK    6  A    between atoms: S_21  and  C_22
REMARK                            x       y       z     vdW  Elec       q    Type
REMARK                         _______ _______ _______ _____ _____    ______ ____
ROOT
ATOM      1  N   UNL     1       0.514  10.837  18.498  0.00  0.00    +0.000 N 
ATOM      2  C   UNL     1       1.137  12.030  18.497  0.00  0.00    +0.000 A 
ATOM      3  N   UNL     1       0.431  13.140  18.864  0.00  0.00    +0.000 NA
ATOM      4  C   UNL     1       1.367  14.066  18.952  0.00  0.00    +0.000 A 
ATOM      5  C   UNL     1       1.345  15.431  19.386  0.00  0.00    +0.000 A 
ATOM      6  C   UNL     1       2.524  16.084  19.523  0.00  0.00    +0.000 A 
ATOM      7  C   UNL     1       3.793  15.480  19.143  0.00  0.00    +0.000 A 
ATOM      8  C   UNL     1       3.794  14.231  18.665  0.00  0.00    +0.000 A 
ATOM      9  N   UNL     1       2.598  13.526  18.583  0.00  0.00    +0.000 N 
ATOM     10  N   UNL     1       2.422  12.251  18.215  0.00  0.00    +0.000 NA
ATOM     11  H   UNL     1      -0.458  10.855  18.776  0.00  0.00    +0.000 HD
ENDROOT
BRANCH   1  15
ATOM     12  C   UNL     1       2.372   7.101  19.412  0.00  0.00    +0.000 A 
ATOM     13  C   UNL     1       1.715   7.845  20.396  0.00  0.00    +0.000 A 
ATOM     14  C   UNL     1       1.103   9.067  20.104  0.00  0.00    +0.000 A 
ATOM     15  C   UNL     1       1.120   9.598  18.811  0.00  0.00    +0.000 A 
ATOM     16  C   UNL     1       1.766   8.868  17.817  0.00  0.00    +0.000 A 
ATOM     17  C   UNL     1       2.391   7.649  18.121  0.00  0.00    +0.000 A 
BRANCH  12  22
ATOM     18  C   UNL     1       3.771   1.767  19.003  0.00  0.00    +0.000 C 
ATOM     19  N   UNL     1       3.754   3.090  19.618  0.00  0.00    +0.000 NA
ATOM     20  C   UNL     1       2.369   3.487  19.964  0.00  0.00    +0.000 C 
ATOM     21  C   UNL     1       2.286   4.902  20.585  0.00  0.00    +0.000 C 
ATOM     22  N   UNL     1       2.925   5.869  19.682  0.00  0.00    +0.000 N 
ATOM     23  C   UNL     1       4.303   5.524  19.306  0.00  0.00    +0.000 C 
ATOM     24  C   UNL     1       4.330   4.102  18.701  0.00  0.00    +0.000 C 
ENDBRANCH  12  22
ENDBRANCH   1  15
BRANCH   5  25
ATOM     25  C   UNL     1       0.109  16.171  19.701  0.00  0.00    +0.000 A 
ATOM     26  C   UNL     1      -0.470  16.924  18.663  0.00  0.00    +0.000 A 
ATOM     27  C   UNL     1      -1.641  17.656  18.871  0.00  0.00    +0.000 A 
ATOM     28  C   UNL     1      -2.253  17.650  20.119  0.00  0.00    +0.000 A 
ATOM     29  C   UNL     1      -1.697  16.910  21.162  0.00  0.00    +0.000 A 
ATOM     30  C   UNL     1      -0.515  16.176  20.962  0.00  0.00    +0.000 A 
BRANCH  30  31
ATOM     31  S   UNL     1       0.094  15.235  22.355  0.00  0.00    +0.000 S 
ATOM     32  C   UNL     1      -0.963  15.712  23.695  0.00  0.00    +0.000 C 
ATOM     33  O   UNL     1      -0.170  13.835  22.072  0.00  0.00    +0.000 OA
ATOM     34  O   UNL     1       1.447  15.653  22.665  0.00  0.00    +0.000 OA
ENDBRANCH  30  31
ENDBRANCH   5  25
TORSDOF 4
ENDMDL
MODEL 2
REMARK VINA RESULT:      -7.7      3.754      4.875
REMARK  Name = 
REMARK  6 active torsions:
REMARK  status: ('A' for Active; 'I' for Inactive)
REMARK    1  A    between atoms: C_1  and  N_2
REMARK    2  A    between atoms: N_5  and  C_6
REMARK    3  A    between atoms: C_9  and  N_10
REMARK    4  A    between atoms: C_14  and  C_15
REMARK    5  A    between atoms: C_20  and  S_21
REMARK    6  A    between atoms: S_21  and  C_22
REMARK                            x       y       z     vdW  Elec       q    Type
REMARK                         _______ _______ _______ _____ _____    ______ ____
ROOT
ATOM      1  N   UNL     1      -0.083  11.524  19.332  0.00  0.00    +0.000 N 
ATOM      2  C   UNL     1      -0.876  11.937  20.337  0.00  0.00    +0.000 A 
ATOM      3  N   UNL     1      -1.966  12.705  20.043  0.00  0.00    +0.000 NA
ATOM      4  C   UNL     1      -2.612  12.749  21.192  0.00  0.00    +0.000 A 
ATOM      5  C   UNL     1      -3.881  13.297  21.572  0.00  0.00    +0.000 A 
ATOM      6  C   UNL     1      -4.353  13.030  22.814  0.00  0.00    +0.000 A 
ATOM      7  C   UNL     1      -3.568  12.303  23.801  0.00  0.00    +0.000 A 
ATOM      8  C   UNL     1      -2.351  11.864  23.460  0.00  0.00    +0.000 A 
ATOM      9  N   UNL     1      -1.884  12.072  22.167  0.00  0.00    +0.000 N 
ATOM     10  N   UNL     1      -0.739  11.630  21.629  0.00  0.00    +0.000 NA
ATOM     11  H   UNL     1      -0.362  11.825  18.408  0.00  0.00    +0.000 HD
ENDROOT
BRANCH   1  15
ATOM     12  C   UNL     1       2.034   7.818  19.171  0.00  0.00    +0.000 A 
ATOM     13  C   UNL     1       1.472   8.282  20.363  0.00  0.00    +0.000 A 
ATOM     14  C   UNL     1       0.776   9.493  20.423  0.00  0.00    +0.000 A 
ATOM     15  C   UNL     1       0.610  10.292  19.289  0.00  0.00    +0.000 A 
ATOM     16  C   UNL     1       1.159   9.844  18.091  0.00  0.00    +0.000 A 
ATOM     17  C   UNL     1       1.869   8.634  18.041  0.00  0.00    +0.000 A 
BRANCH  12  22
ATOM     18  C   UNL     1       3.232   2.596  17.802  0.00  0.00    +0.000 C 
ATOM     19  N   UNL     1       3.445   3.872  18.476  0.00  0.00    +0.000 NA
ATOM     20  C   UNL     1       2.315   4.179  19.384  0.00  0.00    +0.000 C 
ATOM     21  C   UNL     1       2.470   5.544  20.097  0.00  0.00    +0.000 C 
ATOM     22  N   UNL     1       2.669   6.599  19.093  0.00  0.00    +0.000 N 
ATOM     23  C   UNL     1       3.779   6.345  18.165  0.00  0.00    +0.000 C 
ATOM     24  C   UNL     1       3.581   4.969  17.488  0.00  0.00    +0.000 C 
ENDBRANCH  12  22
ENDBRANCH   1  15
BRANCH   5  25
ATOM     25  C   UNL     1      -4.712  14.131  20.686  0.00  0.00    +0.000 A 
ATOM     26  C   UNL     1      -4.552  15.526  20.782  0.00  0.00    +0.000 A 
ATOM     27  C   UNL     1      -5.298  16.394  19.980  0.00  0.00    +0.000 A 
ATOM     28  C   UNL     1      -6.218  15.884  19.072  0.00  0.00    +0.000 A 
ATOM     29  C   UNL     1      -6.392  14.505  18.959  0.00  0.00    +0.000 A 
ATOM     30  C   UNL     1      -5.649  13.625  19.766  0.00  0.00    +0.000 A 
BRANCH  30  31
ATOM     31  S   UNL     1      -5.926  11.877  19.518  0.00  0.00    +0.000 S 
ATOM     32  C   UNL     1      -7.236  11.811  18.327  0.00  0.00    +0.000 C 
ATOM     33  O   UNL     1      -4.734  11.344  18.881  0.00  0.00    +0.000 OA
ATOM     34  O   UNL     1      -6.396  11.282  20.754  0.00  0.00    +0.000 OA
ENDBRANCH  30  31
ENDBRANCH   5  25
TORSDOF 4
ENDMDL
MODEL 3
REMARK VINA RESULT:      -7.6      0.743      1.191
REMARK  Name = 
REMARK  6 active torsions:
REMARK  status: ('A' for Active; 'I' for Inactive)
REMARK    1  A    between atoms: C_1  and  N_2
REMARK    2  A    between atoms: N_5  and  C_6
REMARK    3  A    between atoms: C_9  and  N_10
REMARK    4  A    between atoms: C_14  and  C_15
REMARK    5  A    between atoms: C_20  and  S_21
REMARK    6  A    between atoms: S_21  and  C_22
REMARK                            x       y       z     vdW  Elec       q    Type
REMARK                         _______ _______ _______ _____ _____    ______ ____
ROOT
ATOM      1  N   UNL     1       0.586  10.891  18.524  0.00  0.00    +0.000 N 
ATOM      2  C   UNL     1       1.241  12.066  18.465  0.00  0.00    +0.000 A 
ATOM      3  N   UNL     1       0.600  13.198  18.880  0.00  0.00    +0.000 NA
ATOM      4  C   UNL     1       1.567  14.096  18.886  0.00  0.00    +0.000 A 
ATOM      5  C   UNL     1       1.619  15.464  19.312  0.00  0.00    +0.000 A 
ATOM      6  C   UNL     1       2.824  16.082  19.349  0.00  0.00    +0.000 A 
ATOM      7  C   UNL     1       4.039  15.439  18.871  0.00  0.00    +0.000 A 
ATOM      8  C   UNL     1       3.965  14.189  18.402  0.00  0.00    +0.000 A 
ATOM      9  N   UNL     1       2.747  13.519  18.422  0.00  0.00    +0.000 N 
ATOM     10  N   UNL     1       2.505  12.247  18.079  0.00  0.00    +0.000 NA
ATOM     11  H   UNL     1      -0.359  10.939  18.880  0.00  0.00    +0.000 HD
ENDROOT
BRANCH   1  15
ATOM     12  C   UNL     1       2.348   7.095  19.374  0.00  0.00    +0.000 A 
ATOM     13  C   UNL     1       2.400   7.649  18.092  0.00  0.00    +0.000 A 
ATOM     14  C   UNL     1       1.828   8.892  17.807  0.00  0.00    +0.000 A 
ATOM     15  C   UNL     1       1.179   9.636  18.796  0.00  0.00    +0.000 A 
ATOM     16  C   UNL     1       1.122   9.103  20.080  0.00  0.00    +0.000 A 
ATOM     17  C   UNL     1       1.686   7.848  20.356  0.00  0.00    +0.000 A 
BRANCH  12  22
ATOM     18  C   UNL     1       3.931   1.801  19.149  0.00  0.00    +0.000 C 
ATOM     19  N   UNL     1       3.894   3.152  19.699  0.00  0.00    +0.000 NA
ATOM     20  C   UNL     1       2.513   3.515  20.098  0.00  0.00    +0.000 C 
ATOM     21  C   UNL     1       2.407   4.955  20.654  0.00  0.00    +0.000 C 
ATOM     22  N   UNL     1       2.962   5.899  19.674  0.00  0.00    +0.000 N 
ATOM     23  C   UNL     1       4.331   5.585  19.243  0.00  0.00    +0.000 C 
ATOM     24  C   UNL     1       4.383   4.137  18.706  0.00  0.00    +0.000 C 
ENDBRANCH  12  22
ENDBRANCH   1  15
BRANCH   5  25
ATOM     25  C   UNL     1       0.435  16.240  19.720  0.00  0.00    +0.000 A 
ATOM     26  C   UNL     1      -0.326  16.837  18.698  0.00  0.00    +0.000 A 
ATOM     27  C   UNL     1      -1.464  17.591  18.993  0.00  0.00    +0.000 A 
ATOM     28  C   UNL     1      -1.861  17.764  20.314  0.00  0.00    +0.000 A 
ATOM     29  C   UNL     1      -1.123  17.182  21.343  0.00  0.00    +0.000 A 
ATOM     30  C   UNL     1       0.027  16.426  21.054  0.00  0.00    +0.000 A 
BRANCH  30  31
ATOM     31  S   UNL     1       0.881  15.695  22.445  0.00  0.00    +0.000 S 
ATOM     32  C   UNL     1       2.296  16.736  22.679  0.00  0.00    +0.000 C 
ATOM     33  O   UNL     1       0.023  15.863  23.606  0.00  0.00    +0.000 OA
ATOM     34  O   UNL     1       1.339  14.368  22.087  0.00  0.00    +0.000 OA
ENDBRANCH  30  31
ENDBRANCH   5  25
TORSDOF 4
ENDMDL
MODEL 4
REMARK VINA RESULT:      -7.6      1.474      1.684
REMARK  Name = 
REMARK  6 active torsions:
REMARK  status: ('A' for Active; 'I' for Inactive)
REMARK    1  A    between atoms: C_1  and  N_2
REMARK    2  A    between atoms: N_5  and  C_6
REMARK    3  A    between atoms: C_9  and  N_10
REMARK    4  A    between atoms: C_14  and  C_15
REMARK    5  A    between atoms: C_20  and  S_21
REMARK    6  A    between atoms: S_21  and  C_22
REMARK                            x       y       z     vdW  Elec       q    Type
REMARK                         _______ _______ _______ _____ _____    ______ ____
ROOT
ATOM      1  N   UNL     1       0.381  10.941  18.957  0.00  0.00    +0.000 N 
ATOM      2  C   UNL     1       0.805  12.102  19.490  0.00  0.00    +0.000 A 
ATOM      3  N   UNL     1      -0.123  13.028  19.872  0.00  0.00    +0.000 NA
ATOM      4  C   UNL     1       0.601  13.917  20.523  0.00  0.00    +0.000 A 
ATOM      5  C   UNL     1       0.257  15.090  21.271  0.00  0.00    +0.000 A 
ATOM      6  C   UNL     1       1.231  15.714  21.977  0.00  0.00    +0.000 A 
ATOM      7  C   UNL     1       2.624  15.295  21.912  0.00  0.00    +0.000 A 
ATOM      8  C   UNL     1       2.946  14.246  21.148  0.00  0.00    +0.000 A 
ATOM      9  N   UNL     1       1.946  13.556  20.472  0.00  0.00    +0.000 N 
ATOM     10  N   UNL     1       2.071  12.441  19.740  0.00  0.00    +0.000 NA
ATOM     11  H   UNL     1      -0.622  10.841  18.875  0.00  0.00    +0.000 HD
ENDROOT
BRANCH   1  15
ATOM     12  C   UNL     1       2.324   7.164  19.409  0.00  0.00    +0.000 A 
ATOM     13  C   UNL     1       1.671   7.778  20.481  0.00  0.00    +0.000 A 
ATOM     14  C   UNL     1       1.032   9.013  20.340  0.00  0.00    +0.000 A 
ATOM     15  C   UNL     1       1.015   9.687  19.117  0.00  0.00    +0.000 A 
ATOM     16  C   UNL     1       1.656   9.089  18.035  0.00  0.00    +0.000 A 
ATOM     17  C   UNL     1       2.310   7.856  18.188  0.00  0.00    +0.000 A 
BRANCH  12  22
ATOM     18  C   UNL     1       3.548   1.836  18.576  0.00  0.00    +0.000 C 
ATOM     19  N   UNL     1       3.670   3.140  19.219  0.00  0.00    +0.000 NA
ATOM     20  C   UNL     1       2.387   3.535  19.847  0.00  0.00    +0.000 C 
ATOM     21  C   UNL     1       2.448   4.931  20.512  0.00  0.00    +0.000 C 
ATOM     22  N   UNL     1       2.905   5.922  19.528  0.00  0.00    +0.000 N 
ATOM     23  C   UNL     1       4.176   5.579  18.874  0.00  0.00    +0.000 C 
ATOM     24  C   UNL     1       4.064   4.176  18.235  0.00  0.00    +0.000 C 
ENDBRANCH  12  22
ENDBRANCH   1  15
BRANCH   5  25
ATOM     25  C   UNL     1      -1.102  15.659  21.324  0.00  0.00    +0.000 A 
ATOM     26  C   UNL     1      -1.488  16.500  20.264  0.00  0.00    +0.000 A 
ATOM     27  C   UNL     1      -2.757  17.083  20.232  0.00  0.00    +0.000 A 
ATOM     28  C   UNL     1      -3.661  16.838  21.258  0.00  0.00    +0.000 A 
ATOM     29  C   UNL     1      -3.300  16.007  22.318  0.00  0.00    +0.000 A 
ATOM     30  C   UNL     1      -2.023  15.421  22.361  0.00  0.00    +0.000 A 
BRANCH  30  31
ATOM     31  S   UNL     1      -1.675  14.347  23.747  0.00  0.00    +0.000 S 
ATOM     32  C   UNL     1      -3.226  14.218  24.594  0.00  0.00    +0.000 C 
ATOM     33  O   UNL     1      -1.369  13.035  23.202  0.00  0.00    +0.000 OA
ATOM     34  O   UNL     1      -0.720  14.989  24.628  0.00  0.00    +0.000 OA
ENDBRANCH  30  31
ENDBRANCH   5  25
TORSDOF 4
ENDMDL
MODEL 5
REMARK VINA RESULT:      -7.4      5.752      7.527
REMARK  Name = 
REMARK  6 active torsions:
REMARK  status: ('A' for Active; 'I' for Inactive)
REMARK    1  A    between atoms: C_1  and  N_2
REMARK    2  A    between atoms: N_5  and  C_6
REMARK    3  A    between atoms: C_9  and  N_10
REMARK    4  A    between atoms: C_14  and  C_15
REMARK    5  A    between atoms: C_20  and  S_21
REMARK    6  A    between atoms: S_21  and  C_22
REMARK                            x       y       z     vdW  Elec       q    Type
REMARK                         _______ _______ _______ _____ _____    ______ ____
ROOT
ATOM      1  N   UNL     1       8.552   9.166  17.517  0.00  0.00    +0.000 N 
ATOM      2  C   UNL     1       8.920  10.007  18.500  0.00  0.00    +0.000 A 
ATOM      3  N   UNL     1       9.155  11.317  18.192  0.00  0.00    +0.000 NA
ATOM      4  C   UNL     1       9.282  11.879  19.379  0.00  0.00    +0.000 A 
ATOM      5  C   UNL     1       9.439  13.241  19.796  0.00  0.00    +0.000 A 
ATOM      6  C   UNL     1       9.372  13.521  21.120  0.00  0.00    +0.000 A 
ATOM      7  C   UNL     1       9.254  12.478  22.128  0.00  0.00    +0.000 A 
ATOM      8  C   UNL     1       9.188  11.203  21.730  0.00  0.00    +0.000 A 
ATOM      9  N   UNL     1       9.188  10.906  20.372  0.00  0.00    +0.000 N 
ATOM     10  N   UNL     1       9.040   9.707  19.795  0.00  0.00    +0.000 NA
ATOM     11  H   UNL     1       8.476   9.579  16.597  0.00  0.00    +0.000 HD
ENDROOT
BRANCH   1  15
ATOM     12  C   UNL     1       5.910   5.845  18.005  0.00  0.00    +0.000 A 
ATOM     13  C   UNL     1       5.559   6.943  17.214  0.00  0.00    +0.000 A 
ATOM     14  C   UNL     1       6.419   8.032  17.048  0.00  0.00    +0.000 A 
ATOM     15  C   UNL     1       7.671   8.069  17.666  0.00  0.00    +0.000 A 
ATOM     16  C   UNL     1       8.041   6.982  18.454  0.00  0.00    +0.000 A 
ATOM     17  C   UNL     1       7.166   5.899  18.628  0.00  0.00    +0.000 A 
BRANCH  12  22
ATOM     18  C   UNL     1       1.464   2.674  18.874  0.00  0.00    +0.000 C 
ATOM     19  N   UNL     1       2.859   2.939  18.539  0.00  0.00    +0.000 NA
ATOM     20  C   UNL     1       3.551   3.602  19.669  0.00  0.00    +0.000 C 
ATOM     21  C   UNL     1       5.027   3.942  19.354  0.00  0.00    +0.000 C 
ATOM     22  N   UNL     1       5.091   4.745  18.125  0.00  0.00    +0.000 N 
ATOM     23  C   UNL     1       4.420   4.132  16.970  0.00  0.00    +0.000 C 
ATOM     24  C   UNL     1       2.955   3.805  17.340  0.00  0.00    +0.000 C 
ENDBRANCH  12  22
ENDBRANCH   1  15
BRANCH   5  25
ATOM     25  C   UNL     1       9.663  14.363  18.866  0.00  0.00    +0.000 A 
ATOM     26  C   UNL     1      10.983  14.578  18.426  0.00  0.00    +0.000 A 
ATOM     27  C   UNL     1      11.288  15.617  17.545  0.00  0.00    +0.000 A 
ATOM     28  C   UNL     1      10.282  16.461  17.089  0.00  0.00    +0.000 A 
ATOM     29  C   UNL     1       8.967  16.266  17.511  0.00  0.00    +0.000 A 
ATOM     30  C   UNL     1       8.653  15.225  18.403  0.00  0.00    +0.000 A 
BRANCH  30  31
ATOM     31  S   UNL     1       6.933  15.043  18.854  0.00  0.00    +0.000 S 
ATOM     32  C   UNL     1       6.241  16.652  18.581  0.00  0.00    +0.000 C 
ATOM     33  O   UNL     1       6.332  14.143  17.885  0.00  0.00    +0.000 OA
ATOM     34  O   UNL     1       6.834  14.733  20.266  0.00  0.00    +0.000 OA
ENDBRANCH  30  31
ENDBRANCH   5  25
TORSDOF 4
ENDMDL
MODEL 6
REMARK VINA RESULT:      -7.2      3.260      4.327
REMARK  Name = 
REMARK  6 active torsions:
REMARK  status: ('A' for Active; 'I' for Inactive)
REMARK    1  A    between atoms: C_1  and  N_2
REMARK    2  A    between atoms: N_5  and  C_6
REMARK    3  A    between atoms: C_9  and  N_10
REMARK    4  A    between atoms: C_14  and  C_15
REMARK    5  A    between atoms: C_20  and  S_21
REMARK    6  A    between atoms: S_21  and  C_22
REMARK                            x       y       z     vdW  Elec       q    Type
REMARK                         _______ _______ _______ _____ _____    ______ ____
ROOT
ATOM      1  N   UNL     1      -0.112  11.248  19.056  0.00  0.00    +0.000 N 
ATOM      2  C   UNL     1      -0.839  11.697  20.095  0.00  0.00    +0.000 A 
ATOM      3  N   UNL     1      -2.002  12.367  19.843  0.00  0.00    +0.000 NA
ATOM      4  C   UNL     1      -2.545  12.472  21.041  0.00  0.00    +0.000 A 
ATOM      5  C   UNL     1      -3.810  12.971  21.493  0.00  0.00    +0.000 A 
ATOM      6  C   UNL     1      -4.150  12.784  22.792  0.00  0.00    +0.000 A 
ATOM      7  C   UNL     1      -3.232  12.195  23.756  0.00  0.00    +0.000 A 
ATOM      8  C   UNL     1      -2.023  11.804  23.338  0.00  0.00    +0.000 A 
ATOM      9  N   UNL     1      -1.687  11.928  21.995  0.00  0.00    +0.000 N 
ATOM     10  N   UNL     1      -0.568  11.512  21.388  0.00  0.00    +0.000 NA
ATOM     11  H   UNL     1      -0.492  11.450  18.140  0.00  0.00    +0.000 HD
ENDROOT
BRANCH   1  15
ATOM     12  C   UNL     1       2.238   7.682  18.998  0.00  0.00    +0.000 A 
ATOM     13  C   UNL     1       1.620   8.126  20.170  0.00  0.00    +0.000 A 
ATOM     14  C   UNL     1       0.847   9.290  20.196  0.00  0.00    +0.000 A 
ATOM     15  C   UNL     1       0.658  10.062  19.047  0.00  0.00    +0.000 A 
ATOM     16  C   UNL     1       1.263   9.634  17.868  0.00  0.00    +0.000 A 
ATOM     17  C   UNL     1       2.049   8.471  17.853  0.00  0.00    +0.000 A 
BRANCH  12  22
ATOM     18  C   UNL     1       3.706   2.469  17.882  0.00  0.00    +0.000 C 
ATOM     19  N   UNL     1       3.873   3.799  18.457  0.00  0.00    +0.000 NA
ATOM     20  C   UNL     1       2.786   4.092  19.421  0.00  0.00    +0.000 C 
ATOM     21  C   UNL     1       2.891   5.509  20.033  0.00  0.00    +0.000 C 
ATOM     22  N   UNL     1       2.950   6.504  18.954  0.00  0.00    +0.000 N 
ATOM     23  C   UNL     1       4.013   6.262  17.968  0.00  0.00    +0.000 C 
ATOM     24  C   UNL     1       3.867   4.833  17.395  0.00  0.00    +0.000 C 
ENDBRANCH  12  22
ENDBRANCH   1  15
BRANCH   5  25
ATOM     25  C   UNL     1      -4.773  13.672  20.625  0.00  0.00    +0.000 A 
ATOM     26  C   UNL     1      -5.670  12.878  19.887  0.00  0.00    +0.000 A 
ATOM     27  C   UNL     1      -6.616  13.457  19.039  0.00  0.00    +0.000 A 
ATOM     28  C   UNL     1      -6.681  14.840  18.911  0.00  0.00    +0.000 A 
ATOM     29  C   UNL     1      -5.803  15.647  19.633  0.00  0.00    +0.000 A 
ATOM     30  C   UNL     1      -4.844  15.071  20.485  0.00  0.00    +0.000 A 
BRANCH  30  31
ATOM     31  S   UNL     1      -3.790  16.196  21.389  0.00  0.00    +0.000 S 
ATOM     32  C   UNL     1      -4.249  17.798  20.785  0.00  0.00    +0.000 C 
ATOM     33  O   UNL     1      -4.192  16.128  22.784  0.00  0.00    +0.000 OA
ATOM     34  O   UNL     1      -2.406  15.950  21.037  0.00  0.00    +0.000 OA
ENDBRANCH  30  31
ENDBRANCH   5  25
TORSDOF 4
ENDMDL
MODEL 7
REMARK VINA RESULT:      -7.2      4.587     10.663
REMARK  Name = 
REMARK  6 active torsions:
REMARK  status: ('A' for Active; 'I' for Inactive)
REMARK    1  A    between atoms: C_1  and  N_2
REMARK    2  A    between atoms: N_5  and  C_6
REMARK    3  A    between atoms: C_9  and  N_10
REMARK    4  A    between atoms: C_14  and  C_15
REMARK    5  A    between atoms: C_20  and  S_21
REMARK    6  A    between atoms: S_21  and  C_22
REMARK                            x       y       z     vdW  Elec       q    Type
REMARK                         _______ _______ _______ _____ _____    ______ ____
ROOT
ATOM      1  N   UNL     1       1.674   8.412  18.008  0.00  0.00    +0.000 N 
ATOM      2  C   UNL     1       2.051   7.137  18.215  0.00  0.00    +0.000 A 
ATOM      3  N   UNL     1       3.125   6.648  17.529  0.00  0.00    +0.000 NA
ATOM      4  C   UNL     1       3.338   5.482  18.110  0.00  0.00    +0.000 A 
ATOM      5  C   UNL     1       4.365   4.494  17.956  0.00  0.00    +0.000 A 
ATOM      6  C   UNL     1       4.402   3.461  18.833  0.00  0.00    +0.000 A 
ATOM      7  C   UNL     1       3.376   3.270  19.848  0.00  0.00    +0.000 A 
ATOM      8  C   UNL     1       2.379   4.156  19.931  0.00  0.00    +0.000 A 
ATOM      9  N   UNL     1       2.366   5.257  19.082  0.00  0.00    +0.000 N 
ATOM     10  N   UNL     1       1.503   6.282  19.082  0.00  0.00    +0.000 NA
ATOM     11  H   UNL     1       2.231   8.925  17.337  0.00  0.00    +0.000 HD
ENDROOT
BRANCH   1  15
ATOM     12  C   UNL     1       0.025  10.997  20.981  0.00  0.00    +0.000 A 
ATOM     13  C   UNL     1      -0.261  11.175  19.624  0.00  0.00    +0.000 A 
ATOM     14  C   UNL     1       0.273  10.331  18.646  0.00  0.00    +0.000 A 
ATOM     15  C   UNL     1       1.117   9.270  18.984  0.00  0.00    +0.000 A 
ATOM     16  C   UNL     1       1.410   9.075  20.331  0.00  0.00    +0.000 A 
ATOM     17  C   UNL     1       0.882   9.934  21.306  0.00  0.00    +0.000 A 
BRANCH  12  22
ATOM     18  C   UNL     1      -3.537  14.248  23.687  0.00  0.00    +0.000 C 
ATOM     19  N   UNL     1      -2.299  13.496  23.509  0.00  0.00    +0.000 NA
ATOM     20  C   UNL     1      -1.540  14.007  22.344  0.00  0.00    +0.000 C 
ATOM     21  C   UNL     1      -0.234  13.219  22.085  0.00  0.00    +0.000 C 
ATOM     22  N   UNL     1      -0.545  11.788  21.952  0.00  0.00    +0.000 N 
ATOM     23  C   UNL     1      -1.299  11.229  23.083  0.00  0.00    +0.000 C 
ATOM     24  C   UNL     1      -2.586  12.056  23.304  0.00  0.00    +0.000 C 
ENDBRANCH  12  22
ENDBRANCH   1  15
BRANCH   5  25
ATOM     25  C   UNL     1       5.393   4.537  16.901  0.00  0.00    +0.000 A 
ATOM     26  C   UNL     1       5.013   4.104  15.617  0.00  0.00    +0.000 A 
ATOM     27  C   UNL     1       5.922   4.110  14.557  0.00  0.00    +0.000 A 
ATOM     28  C   UNL     1       7.226   4.547  14.760  0.00  0.00    +0.000 A 
ATOM     29  C   UNL     1       7.624   4.982  16.024  0.00  0.00    +0.000 A 
ATOM     30  C   UNL     1       6.716   4.973  17.098  0.00  0.00    +0.000 A 
BRANCH  30  31
ATOM     31  S   UNL     1       7.319   5.582  18.667  0.00  0.00    +0.000 S 
ATOM     32  C   UNL     1       7.948   7.196  18.292  0.00  0.00    +0.000 C 
ATOM     33  O   UNL     1       6.162   5.757  19.529  0.00  0.00    +0.000 OA
ATOM     34  O   UNL     1       8.419   4.752  19.116  0.00  0.00    +0.000 OA
ENDBRANCH  30  31
ENDBRANCH   5  25
TORSDOF 4
ENDMDL
MODEL 8
REMARK VINA RESULT:      -7.1      1.749      2.459
REMARK  Name = 
REMARK  6 active torsions:
REMARK  status: ('A' for Active; 'I' for Inactive)
REMARK    1  A    between atoms: C_1  and  N_2
REMARK    2  A    between atoms: N_5  and  C_6
REMARK    3  A    between atoms: C_9  and  N_10
REMARK    4  A    between atoms: C_14  and  C_15
REMARK    5  A    between atoms: C_20  and  S_21
REMARK    6  A    between atoms: S_21  and  C_22
REMARK                            x       y       z     vdW  Elec       q    Type
REMARK                         _______ _______ _______ _____ _____    ______ ____
ROOT
ATOM      1  N   UNL     1       0.298  10.878  19.291  0.00  0.00    +0.000 N 
ATOM      2  C   UNL     1       0.765  12.046  19.770  0.00  0.00    +0.000 A 
ATOM      3  N   UNL     1      -0.127  12.976  20.221  0.00  0.00    +0.000 NA
ATOM      4  C   UNL     1       0.651  13.875  20.793  0.00  0.00    +0.000 A 
ATOM      5  C   UNL     1       0.373  15.057  21.553  0.00  0.00    +0.000 A 
ATOM      6  C   UNL     1       1.404  15.691  22.162  0.00  0.00    +0.000 A 
ATOM      7  C   UNL     1       2.786  15.272  21.979  0.00  0.00    +0.000 A 
ATOM      8  C   UNL     1       3.041  14.213  21.203  0.00  0.00    +0.000 A 
ATOM      9  N   UNL     1       1.987  13.514  20.628  0.00  0.00    +0.000 N 
ATOM     10  N   UNL     1       2.048  12.390  19.902  0.00  0.00    +0.000 NA
ATOM     11  H   UNL     1      -0.708  10.777  19.300  0.00  0.00    +0.000 HD
ENDROOT
BRANCH   1  15
ATOM     12  C   UNL     1       2.285   7.112  19.621  0.00  0.00    +0.000 A 
ATOM     13  C   UNL     1       1.587   7.661  20.699  0.00  0.00    +0.000 A 
ATOM     14  C   UNL     1       0.932   8.892  20.598  0.00  0.00    +0.000 A 
ATOM     15  C   UNL     1       0.947   9.627  19.410  0.00  0.00    +0.000 A 
ATOM     16  C   UNL     1       1.633   9.093  18.323  0.00  0.00    +0.000 A 
ATOM     17  C   UNL     1       2.301   7.864  18.436  0.00  0.00    +0.000 A 
BRANCH  12  22
ATOM     18  C   UNL     1       3.589   1.836  18.595  0.00  0.00    +0.000 C 
ATOM     19  N   UNL     1       3.687   3.116  19.290  0.00  0.00    +0.000 NA
ATOM     20  C   UNL     1       2.392   3.469  19.919  0.00  0.00    +0.000 C 
ATOM     21  C   UNL     1       2.427   4.839  20.638  0.00  0.00    +0.000 C 
ATOM     22  N   UNL     1       2.881   5.873  19.697  0.00  0.00    +0.000 N 
ATOM     23  C   UNL     1       4.163   5.572  19.044  0.00  0.00    +0.000 C 
ATOM     24  C   UNL     1       4.077   4.194  18.351  0.00  0.00    +0.000 C 
ENDBRANCH  12  22
ENDBRANCH   1  15
BRANCH   5  25
ATOM     25  C   UNL     1      -0.977  15.625  21.720  0.00  0.00    +0.000 A 
ATOM     26  C   UNL     1      -1.713  15.213  22.847  0.00  0.00    +0.000 A 
ATOM     27  C   UNL     1      -3.000  15.699  23.085  0.00  0.00    +0.000 A 
ATOM     28  C   UNL     1      -3.576  16.605  22.201  0.00  0.00    +0.000 A 
ATOM     29  C   UNL     1      -2.865  17.028  21.079  0.00  0.00    +0.000 A 
ATOM     30  C   UNL     1      -1.571  16.538  20.829  0.00  0.00    +0.000 A 
BRANCH  30  31
ATOM     31  S   UNL     1      -0.736  17.171  19.381  0.00  0.00    +0.000 S 
ATOM     32  C   UNL     1      -1.932  18.235  18.622  0.00  0.00    +0.000 C 
ATOM     33  O   UNL     1       0.354  18.010  19.851  0.00  0.00    +0.000 OA
ATOM     34  O   UNL     1      -0.449  16.078  18.473  0.00  0.00    +0.000 OA
ENDBRANCH  30  31
ENDBRANCH   5  25
TORSDOF 4
ENDMDL
MODEL 9
REMARK VINA RESULT:      -7.1      1.761      2.508
REMARK  Name = 
REMARK  6 active torsions:
REMARK  status: ('A' for Active; 'I' for Inactive)
REMARK    1  A    between atoms: C_1  and  N_2
REMARK    2  A    between atoms: N_5  and  C_6
REMARK    3  A    between atoms: C_9  and  N_10
REMARK    4  A    between atoms: C_14  and  C_15
REMARK    5  A    between atoms: C_20  and  S_21
REMARK    6  A    between atoms: S_21  and  C_22
REMARK                            x       y       z     vdW  Elec       q    Type
REMARK                         _______ _______ _______ _____ _____    ______ ____
ROOT
ATOM      1  N   UNL     1       0.661  11.157  19.198  0.00  0.00    +0.000 N 
ATOM      2  C   UNL     1       1.327  12.316  19.050  0.00  0.00    +0.000 A 
ATOM      3  N   UNL     1       0.950  13.393  19.801  0.00  0.00    +0.000 NA
ATOM      4  C   UNL     1       1.913  14.264  19.567  0.00  0.00    +0.000 A 
ATOM      5  C   UNL     1       2.201  15.560  20.108  0.00  0.00    +0.000 A 
ATOM      6  C   UNL     1       3.379  16.146  19.783  0.00  0.00    +0.000 A 
ATOM      7  C   UNL     1       4.302  15.553  18.826  0.00  0.00    +0.000 A 
ATOM      8  C   UNL     1       3.984  14.380  18.267  0.00  0.00    +0.000 A 
ATOM      9  N   UNL     1       2.811  13.736  18.643  0.00  0.00    +0.000 N 
ATOM     10  N   UNL     1       2.381  12.527  18.259  0.00  0.00    +0.000 NA
ATOM     11  H   UNL     1      -0.092  11.172  19.873  0.00  0.00    +0.000 HD
ENDROOT
BRANCH   1  15
ATOM     12  C   UNL     1       2.400   7.274  18.822  0.00  0.00    +0.000 A 
ATOM     13  C   UNL     1       1.856   7.712  20.032  0.00  0.00    +0.000 A 
ATOM     14  C   UNL     1       1.283   8.980  20.162  0.00  0.00    +0.000 A 
ATOM     15  C   UNL     1       1.228   9.866  19.083  0.00  0.00    +0.000 A 
ATOM     16  C   UNL     1       1.761   9.446  17.868  0.00  0.00    +0.000 A 
ATOM     17  C   UNL     1       2.348   8.177  17.749  0.00  0.00    +0.000 A 
BRANCH  12  22
ATOM     18  C   UNL     1       4.431   2.260  19.969  0.00  0.00    +0.000 C 
ATOM     19  N   UNL     1       3.984   3.343  19.098  0.00  0.00    +0.000 NA
ATOM     20  C   UNL     1       4.800   4.561  19.319  0.00  0.00    +0.000 C 
ATOM     21  C   UNL     1       4.343   5.755  18.448  0.00  0.00    +0.000 C 
ATOM     22  N   UNL     1       2.912   6.005  18.673  0.00  0.00    +0.000 N 
ATOM     23  C   UNL     1       2.056   4.828  18.467  0.00  0.00    +0.000 C 
ATOM     24  C   UNL     1       2.560   3.664  19.351  0.00  0.00    +0.000 C 
ENDBRANCH  12  22
ENDBRANCH   1  15
BRANCH   5  25
ATOM     25  C   UNL     1       1.293  16.294  21.006  0.00  0.00    +0.000 A 
ATOM     26  C   UNL     1       1.483  16.125  22.391  0.00  0.00    +0.000 A 
ATOM     27  C   UNL     1       0.669  16.782  23.316  0.00  0.00    +0.000 A 
ATOM     28  C   UNL     1      -0.351  17.617  22.875  0.00  0.00    +0.000 A 
ATOM     29  C   UNL     1      -0.557  17.801  21.508  0.00  0.00    +0.000 A 
ATOM     30  C   UNL     1       0.255  17.139  20.571  0.00  0.00    +0.000 A 
BRANCH  30  31
ATOM     31  S   UNL     1      -0.073  17.470  18.845  0.00  0.00    +0.000 S 
ATOM     32  C   UNL     1      -1.484  18.542  18.871  0.00  0.00    +0.000 C 
ATOM     33  O   UNL     1       1.049  18.243  18.340  0.00  0.00    +0.000 OA
ATOM     34  O   UNL     1      -0.442  16.238  18.178  0.00  0.00    +0.000 OA
ENDBRANCH  30  31
ENDBRANCH   5  25
TORSDOF 4
ENDMDL
