MODEL 1
REMARK VINA RESULT:      -6.6      0.000      0.000
REMARK  Name = 
REMARK  6 active torsions:
REMARK  status: ('A' for Active; 'I' for Inactive)
REMARK    1  A    between atoms: C_1  and  O_2
REMARK    2  A    between atoms: O_2  and  N_3
REMARK    3  A    between atoms: C_4  and  S_5
REMARK    4  A    between atoms: S_5  and  C_6
REMARK    5  A    between atoms: C_6  and  C_7
REMARK    6  A    between atoms: C_6  and  C_8
REMARK                            x       y       z     vdW  Elec       q    Type
REMARK                         _______ _______ _______ _____ _____    ______ ____
ROOT
ATOM      1  N   UNL     1       3.241   6.505  18.220  0.00  0.00    +0.000 N 
ATOM      2  C   UNL     1       3.913   5.520  17.525  0.00  0.00    +0.000 A 
ATOM      3  N   UNL     1       3.734   4.255  17.747  0.00  0.00    +0.000 NA
ATOM      4  C   UNL     1       2.823   3.888  18.757  0.00  0.00    +0.000 A 
ATOM      5  C   UNL     1       2.548   2.534  18.964  0.00  0.00    +0.000 A 
ATOM      6  C   UNL     1       1.666   2.132  19.974  0.00  0.00    +0.000 A 
ATOM      7  C   UNL     1       1.047   3.081  20.788  0.00  0.00    +0.000 A 
ATOM      8  C   UNL     1       1.309   4.434  20.591  0.00  0.00    +0.000 A 
ATOM      9  C   UNL     1       2.191   4.824  19.577  0.00  0.00    +0.000 A 
ATOM     10  C   UNL     1       2.473   6.249  19.339  0.00  0.00    +0.000 A 
ATOM     11  O   UNL     1       2.024   7.092  20.115  0.00  0.00    +0.000 OA
ENDROOT
BRANCH   1  13
ATOM     12  C   UNL     1       2.431   8.588  17.608  0.00  0.00    +0.000 C 
ATOM     13  O   UNL     1       3.587   7.862  18.025  0.00  0.00    +0.000 OA
ENDBRANCH   1  13
BRANCH   2  14
ATOM     14  S   UNL     1       5.058   6.050  16.301  0.00  0.00    +0.000 S 
BRANCH  14  15
ATOM     15  C   UNL     1       6.113   4.583  16.054  0.00  0.00    +0.000 C 
ATOM     16  C   UNL     1       6.632   4.533  14.619  0.00  0.00    +0.000 C 
ATOM     17  C   UNL     1       7.295   4.666  17.025  0.00  0.00    +0.000 C 
ENDBRANCH  14  15
ENDBRANCH   2  14
TORSDOF 3
ENDMDL
MODEL 2
REMARK VINA RESULT:      -6.4      1.858      2.652
REMARK  Name = 
REMARK  6 active torsions:
REMARK  status: ('A' for Active; 'I' for Inactive)
REMARK    1  A    between atoms: C_1  and  O_2
REMARK    2  A    between atoms: O_2  and  N_3
REMARK    3  A    between atoms: C_4  and  S_5
REMARK    4  A    between atoms: S_5  and  C_6
REMARK    5  A    between atoms: C_6  and  C_7
REMARK    6  A    between atoms: C_6  and  C_8
REMARK                            x       y       z     vdW  Elec       q    Type
REMARK                         _______ _______ _______ _____ _____    ______ ____
ROOT
ATOM      1  N   UNL     1       5.107   5.873  16.568  0.00  0.00    +0.000 N 
ATOM      2  C   UNL     1       5.581   4.609  16.279  0.00  0.00    +0.000 A 
ATOM      3  N   UNL     1       4.942   3.527  16.600  0.00  0.00    +0.000 NA
ATOM      4  C   UNL     1       3.721   3.665  17.288  0.00  0.00    +0.000 A 
ATOM      5  C   UNL     1       2.970   2.523  17.575  0.00  0.00    +0.000 A 
ATOM      6  C   UNL     1       1.763   2.621  18.277  0.00  0.00    +0.000 A 
ATOM      7  C   UNL     1       1.292   3.864  18.701  0.00  0.00    +0.000 A 
ATOM      8  C   UNL     1       2.029   5.011  18.420  0.00  0.00    +0.000 A 
ATOM      9  C   UNL     1       3.232   4.902  17.714  0.00  0.00    +0.000 A 
ATOM     10  C   UNL     1       4.022   6.102  17.391  0.00  0.00    +0.000 A 
ATOM     11  O   UNL     1       3.681   7.191  17.850  0.00  0.00    +0.000 OA
ENDROOT
BRANCH   1  13
ATOM     12  C   UNL     1       6.838   7.171  17.396  0.00  0.00    +0.000 C 
ATOM     13  O   UNL     1       5.920   7.001  16.316  0.00  0.00    +0.000 OA
ENDBRANCH   1  13
BRANCH   2  14
ATOM     14  S   UNL     1       7.127   4.510  15.447  0.00  0.00    +0.000 S 
BRANCH  14  15
ATOM     15  C   UNL     1       6.686   4.850  13.710  0.00  0.00    +0.000 C 
ATOM     16  C   UNL     1       7.922   5.269  12.917  0.00  0.00    +0.000 C 
ATOM     17  C   UNL     1       6.094   3.576  13.101  0.00  0.00    +0.000 C 
ENDBRANCH  14  15
ENDBRANCH   2  14
TORSDOF 3
ENDMDL
MODEL 3
REMARK VINA RESULT:      -6.4      2.808      5.667
REMARK  Name = 
REMARK  6 active torsions:
REMARK  status: ('A' for Active; 'I' for Inactive)
REMARK    1  A    between atoms: C_1  and  O_2
REMARK    2  A    between atoms: O_2  and  N_3
REMARK    3  A    between atoms: C_4  and  S_5
REMARK    4  A    between atoms: S_5  and  C_6
REMARK    5  A    between atoms: C_6  and  C_7
REMARK    6  A    between atoms: C_6  and  C_8
REMARK                            x       y       z     vdW  Elec       q    Type
REMARK                         _______ _______ _______ _____ _____    ______ ____
ROOT
ATOM      1  N   UNL     1       4.156   3.787  17.921  0.00  0.00    +0.000 N 
ATOM      2  C   UNL     1       4.647   3.539  19.187  0.00  0.00    +0.000 A 
ATOM      3  N   UNL     1       5.673   4.161  19.678  0.00  0.00    +0.000 NA
ATOM      4  C   UNL     1       6.314   5.117  18.865  0.00  0.00    +0.000 A 
ATOM      5  C   UNL     1       7.370   5.861  19.394  0.00  0.00    +0.000 A 
ATOM      6  C   UNL     1       8.044   6.802  18.607  0.00  0.00    +0.000 A 
ATOM      7  C   UNL     1       7.669   7.010  17.280  0.00  0.00    +0.000 A 
ATOM      8  C   UNL     1       6.615   6.277  16.739  0.00  0.00    +0.000 A 
ATOM      9  C   UNL     1       5.946   5.342  17.537  0.00  0.00    +0.000 A 
ATOM     10  C   UNL     1       4.820   4.565  16.993  0.00  0.00    +0.000 A 
ATOM     11  O   UNL     1       4.546   4.654  15.797  0.00  0.00    +0.000 OA
ENDROOT
BRANCH   1  13
ATOM     12  C   UNL     1       1.897   3.704  17.410  0.00  0.00    +0.000 C 
ATOM     13  O   UNL     1       3.124   2.974  17.397  0.00  0.00    +0.000 OA
ENDBRANCH   1  13
BRANCH   2  14
ATOM     14  S   UNL     1       3.818   2.312  20.135  0.00  0.00    +0.000 S 
BRANCH  14  15
ATOM     15  C   UNL     1       2.708   3.290  21.202  0.00  0.00    +0.000 C 
ATOM     16  C   UNL     1       2.584   4.718  20.676  0.00  0.00    +0.000 C 
ATOM     17  C   UNL     1       1.330   2.624  21.208  0.00  0.00    +0.000 C 
ENDBRANCH  14  15
ENDBRANCH   2  14
TORSDOF 3
ENDMDL
MODEL 4
REMARK VINA RESULT:      -6.4      2.186      3.202
REMARK  Name = 
REMARK  6 active torsions:
REMARK  status: ('A' for Active; 'I' for Inactive)
REMARK    1  A    between atoms: C_1  and  O_2
REMARK    2  A    between atoms: O_2  and  N_3
REMARK    3  A    between atoms: C_4  and  S_5
REMARK    4  A    between atoms: S_5  and  C_6
REMARK    5  A    between atoms: C_6  and  C_7
REMARK    6  A    between atoms: C_6  and  C_8
REMARK                            x       y       z     vdW  Elec       q    Type
REMARK                         _______ _______ _______ _____ _____    ______ ____
ROOT
ATOM      1  N   UNL     1       4.141   4.479  16.898  0.00  0.00    +0.000 N 
ATOM      2  C   UNL     1       4.466   5.559  17.694  0.00  0.00    +0.000 A 
ATOM      3  N   UNL     1       3.928   5.764  18.856  0.00  0.00    +0.000 NA
ATOM      4  C   UNL     1       2.959   4.844  19.303  0.00  0.00    +0.000 A 
ATOM      5  C   UNL     1       2.422   4.993  20.584  0.00  0.00    +0.000 A 
ATOM      6  C   UNL     1       1.440   4.111  21.052  0.00  0.00    +0.000 A 
ATOM      7  C   UNL     1       0.985   3.069  20.244  0.00  0.00    +0.000 A 
ATOM      8  C   UNL     1       1.514   2.907  18.966  0.00  0.00    +0.000 A 
ATOM      9  C   UNL     1       2.497   3.793  18.510  0.00  0.00    +0.000 A 
ATOM     10  C   UNL     1       3.082   3.634  17.168  0.00  0.00    +0.000 A 
ATOM     11  O   UNL     1       2.617   2.791  16.402  0.00  0.00    +0.000 OA
ENDROOT
BRANCH   1  13
ATOM     12  C   UNL     1       5.833   3.581  15.595  0.00  0.00    +0.000 C 
ATOM     13  O   UNL     1       4.659   4.394  15.586  0.00  0.00    +0.000 OA
ENDBRANCH   1  13
BRANCH   2  14
ATOM     14  S   UNL     1       5.659   6.684  17.060  0.00  0.00    +0.000 S 
BRANCH  14  15
ATOM     15  C   UNL     1       7.000   6.606  18.293  0.00  0.00    +0.000 C 
ATOM     16  C   UNL     1       7.684   5.242  18.253  0.00  0.00    +0.000 C 
ATOM     17  C   UNL     1       8.021   7.701  17.969  0.00  0.00    +0.000 C 
ENDBRANCH  14  15
ENDBRANCH   2  14
TORSDOF 3
ENDMDL
MODEL 5
REMARK VINA RESULT:      -6.3      0.906      1.169
REMARK  Name = 
REMARK  6 active torsions:
REMARK  status: ('A' for Active; 'I' for Inactive)
REMARK    1  A    between atoms: C_1  and  O_2
REMARK    2  A    between atoms: O_2  and  N_3
REMARK    3  A    between atoms: C_4  and  S_5
REMARK    4  A    between atoms: S_5  and  C_6
REMARK    5  A    between atoms: C_6  and  C_7
REMARK    6  A    between atoms: C_6  and  C_8
REMARK                            x       y       z     vdW  Elec       q    Type
REMARK                         _______ _______ _______ _____ _____    ______ ____
ROOT
ATOM      1  N   UNL     1       3.177   6.440  18.284  0.00  0.00    +0.000 N 
ATOM      2  C   UNL     1       3.918   5.574  17.505  0.00  0.00    +0.000 A 
ATOM      3  N   UNL     1       3.729   4.291  17.505  0.00  0.00    +0.000 NA
ATOM      4  C   UNL     1       2.733   3.773  18.355  0.00  0.00    +0.000 A 
ATOM      5  C   UNL     1       2.451   2.406  18.317  0.00  0.00    +0.000 A 
ATOM      6  C   UNL     1       1.483   1.854  19.164  0.00  0.00    +0.000 A 
ATOM      7  C   UNL     1       0.785   2.664  20.060  0.00  0.00    +0.000 A 
ATOM      8  C   UNL     1       1.053   4.029  20.107  0.00  0.00    +0.000 A 
ATOM      9  C   UNL     1       2.021   4.571  19.253  0.00  0.00    +0.000 A 
ATOM     10  C   UNL     1       2.312   6.014  19.272  0.00  0.00    +0.000 A 
ATOM     11  O   UNL     1       1.788   6.725  20.129  0.00  0.00    +0.000 OA
ENDROOT
BRANCH   1  13
ATOM     12  C   UNL     1       2.505   8.585  17.720  0.00  0.00    +0.000 C 
ATOM     13  O   UNL     1       3.530   7.808  18.341  0.00  0.00    +0.000 OA
ENDBRANCH   1  13
BRANCH   2  14
ATOM     14  S   UNL     1       5.166   6.285  16.492  0.00  0.00    +0.000 S 
BRANCH  14  15
ATOM     15  C   UNL     1       6.664   6.157  17.525  0.00  0.00    +0.000 C 
ATOM     16  C   UNL     1       7.454   4.901  17.166  0.00  0.00    +0.000 C 
ATOM     17  C   UNL     1       7.531   7.395  17.280  0.00  0.00    +0.000 C 
ENDBRANCH  14  15
ENDBRANCH   2  14
TORSDOF 3
ENDMDL
MODEL 6
REMARK VINA RESULT:      -6.3      2.660      6.015
REMARK  Name = 
REMARK  6 active torsions:
REMARK  status: ('A' for Active; 'I' for Inactive)
REMARK    1  A    between atoms: C_1  and  O_2
REMARK    2  A    between atoms: O_2  and  N_3
REMARK    3  A    between atoms: C_4  and  S_5
REMARK    4  A    between atoms: S_5  and  C_6
REMARK    5  A    between atoms: C_6  and  C_7
REMARK    6  A    between atoms: C_6  and  C_8
REMARK                            x       y       z     vdW  Elec       q    Type
REMARK                         _______ _______ _______ _____ _____    ______ ____
ROOT
ATOM      1  N   UNL     1       6.115   5.363  17.257  0.00  0.00    +0.000 N 
ATOM      2  C   UNL     1       5.031   4.532  17.063  0.00  0.00    +0.000 A 
ATOM      3  N   UNL     1       4.792   3.939  15.935  0.00  0.00    +0.000 NA
ATOM      4  C   UNL     1       5.679   4.177  14.867  0.00  0.00    +0.000 A 
ATOM      5  C   UNL     1       5.495   3.490  13.665  0.00  0.00    +0.000 A 
ATOM      6  C   UNL     1       6.343   3.720  12.575  0.00  0.00    +0.000 A 
ATOM      7  C   UNL     1       7.387   4.640  12.675  0.00  0.00    +0.000 A 
ATOM      8  C   UNL     1       7.584   5.330  13.868  0.00  0.00    +0.000 A 
ATOM      9  C   UNL     1       6.732   5.090  14.952  0.00  0.00    +0.000 A 
ATOM     10  C   UNL     1       6.928   5.796  16.229  0.00  0.00    +0.000 A 
ATOM     11  O   UNL     1       7.771   6.690  16.301  0.00  0.00    +0.000 OA
ENDROOT
BRANCH   1  13
ATOM     12  C   UNL     1       7.317   5.551  19.230  0.00  0.00    +0.000 C 
ATOM     13  O   UNL     1       6.237   6.087  18.466  0.00  0.00    +0.000 OA
ENDBRANCH   1  13
BRANCH   2  14
ATOM     14  S   UNL     1       3.948   4.304  18.429  0.00  0.00    +0.000 S 
BRANCH  14  15
ATOM     15  C   UNL     1       2.761   3.062  17.817  0.00  0.00    +0.000 C 
ATOM     16  C   UNL     1       3.133   1.672  18.326  0.00  0.00    +0.000 C 
ATOM     17  C   UNL     1       1.364   3.436  18.320  0.00  0.00    +0.000 C 
ENDBRANCH  14  15
ENDBRANCH   2  14
TORSDOF 3
ENDMDL
MODEL 7
REMARK VINA RESULT:      -6.2      2.460      2.885
REMARK  Name = 
REMARK  6 active torsions:
REMARK  status: ('A' for Active; 'I' for Inactive)
REMARK    1  A    between atoms: C_1  and  O_2
REMARK    2  A    between atoms: O_2  and  N_3
REMARK    3  A    between atoms: C_4  and  S_5
REMARK    4  A    between atoms: S_5  and  C_6
REMARK    5  A    between atoms: C_6  and  C_7
REMARK    6  A    between atoms: C_6  and  C_8
REMARK                            x       y       z     vdW  Elec       q    Type
REMARK                         _______ _______ _______ _____ _____    ______ ____
ROOT
ATOM      1  N   UNL     1       5.396   4.388  18.519  0.00  0.00    +0.000 N 
ATOM      2  C   UNL     1       4.790   5.008  17.444  0.00  0.00    +0.000 A 
ATOM      3  N   UNL     1       3.521   4.908  17.198  0.00  0.00    +0.000 NA
ATOM      4  C   UNL     1       2.744   4.114  18.063  0.00  0.00    +0.000 A 
ATOM      5  C   UNL     1       1.362   4.053  17.871  0.00  0.00    +0.000 A 
ATOM      6  C   UNL     1       0.562   3.255  18.698  0.00  0.00    +0.000 A 
ATOM      7  C   UNL     1       1.136   2.510  19.728  0.00  0.00    +0.000 A 
ATOM      8  C   UNL     1       2.512   2.563  19.933  0.00  0.00    +0.000 A 
ATOM      9  C   UNL     1       3.301   3.367  19.102  0.00  0.00    +0.000 A 
ATOM     10  C   UNL     1       4.756   3.452  19.308  0.00  0.00    +0.000 A 
ATOM     11  O   UNL     1       5.294   2.719  20.138  0.00  0.00    +0.000 OA
ENDROOT
BRANCH   1  13
ATOM     12  C   UNL     1       7.172   5.520  19.483  0.00  0.00    +0.000 C 
ATOM     13  O   UNL     1       6.803   4.423  18.647  0.00  0.00    +0.000 OA
ENDBRANCH   1  13
BRANCH   2  14
ATOM     14  S   UNL     1       5.826   5.958  16.388  0.00  0.00    +0.000 S 
BRANCH  14  15
ATOM     15  C   UNL     1       5.930   4.937  14.880  0.00  0.00    +0.000 C 
ATOM     16  C   UNL     1       7.235   5.211  14.137  0.00  0.00    +0.000 C 
ATOM     17  C   UNL     1       5.871   3.462  15.287  0.00  0.00    +0.000 C 
ENDBRANCH  14  15
ENDBRANCH   2  14
TORSDOF 3
ENDMDL
MODEL 8
REMARK VINA RESULT:      -6.2      2.454      6.094
REMARK  Name = 
REMARK  6 active torsions:
REMARK  status: ('A' for Active; 'I' for Inactive)
REMARK    1  A    between atoms: C_1  and  O_2
REMARK    2  A    between atoms: O_2  and  N_3
REMARK    3  A    between atoms: C_4  and  S_5
REMARK    4  A    between atoms: S_5  and  C_6
REMARK    5  A    between atoms: C_6  and  C_7
REMARK    6  A    between atoms: C_6  and  C_8
REMARK                            x       y       z     vdW  Elec       q    Type
REMARK                         _______ _______ _______ _____ _____    ______ ____
ROOT
ATOM      1  N   UNL     1       6.207   5.217  17.217  0.00  0.00    +0.000 N 
ATOM      2  C   UNL     1       5.190   4.312  16.988  0.00  0.00    +0.000 A 
ATOM      3  N   UNL     1       4.994   3.749  15.837  0.00  0.00    +0.000 NA
ATOM      4  C   UNL     1       5.855   4.101  14.779  0.00  0.00    +0.000 A 
ATOM      5  C   UNL     1       5.721   3.452  13.549  0.00  0.00    +0.000 A 
ATOM      6  C   UNL     1       6.544   3.793  12.470  0.00  0.00    +0.000 A 
ATOM      7  C   UNL     1       7.512   4.788  12.607  0.00  0.00    +0.000 A 
ATOM      8  C   UNL     1       7.659   5.441  13.828  0.00  0.00    +0.000 A 
ATOM      9  C   UNL     1       6.833   5.090  14.902  0.00  0.00    +0.000 A 
ATOM     10  C   UNL     1       6.979   5.755  16.206  0.00  0.00    +0.000 A 
ATOM     11  O   UNL     1       7.750   6.708  16.316  0.00  0.00    +0.000 OA
ENDROOT
BRANCH   1  13
ATOM     12  C   UNL     1       7.466   5.507  19.141  0.00  0.00    +0.000 C 
ATOM     13  O   UNL     1       6.276   5.897  18.455  0.00  0.00    +0.000 OA
ENDBRANCH   1  13
BRANCH   2  14
ATOM     14  S   UNL     1       4.134   3.943  18.345  0.00  0.00    +0.000 S 
BRANCH  14  15
ATOM     15  C   UNL     1       2.575   4.777  17.898  0.00  0.00    +0.000 C 
ATOM     16  C   UNL     1       1.383   3.866  18.176  0.00  0.00    +0.000 C 
ATOM     17  C   UNL     1       2.451   6.055  18.732  0.00  0.00    +0.000 C 
ENDBRANCH  14  15
ENDBRANCH   2  14
TORSDOF 3
ENDMDL
MODEL 9
REMARK VINA RESULT:      -6.2      2.523      5.845
REMARK  Name = 
REMARK  6 active torsions:
REMARK  status: ('A' for Active; 'I' for Inactive)
REMARK    1  A    between atoms: C_1  and  O_2
REMARK    2  A    between atoms: O_2  and  N_3
REMARK    3  A    between atoms: C_4  and  S_5
REMARK    4  A    between atoms: S_5  and  C_6
REMARK    5  A    between atoms: C_6  and  C_7
REMARK    6  A    between atoms: C_6  and  C_8
REMARK                            x       y       z     vdW  Elec       q    Type
REMARK                         _______ _______ _______ _____ _____    ______ ____
ROOT
ATOM      1  N   UNL     1       6.278   5.320  17.587  0.00  0.00    +0.000 N 
ATOM      2  C   UNL     1       5.221   4.439  17.482  0.00  0.00    +0.000 A 
ATOM      3  N   UNL     1       4.914   3.837  16.375  0.00  0.00    +0.000 NA
ATOM      4  C   UNL     1       5.693   4.119  15.236  0.00  0.00    +0.000 A 
ATOM      5  C   UNL     1       5.438   3.426  14.050  0.00  0.00    +0.000 A 
ATOM      6  C   UNL     1       6.177   3.698  12.893  0.00  0.00    +0.000 A 
ATOM      7  C   UNL     1       7.181   4.666  12.908  0.00  0.00    +0.000 A 
ATOM      8  C   UNL     1       7.448   5.363  14.083  0.00  0.00    +0.000 A 
ATOM      9  C   UNL     1       6.705   5.081  15.236  0.00  0.00    +0.000 A 
ATOM     10  C   UNL     1       6.978   5.793  16.495  0.00  0.00    +0.000 A 
ATOM     11  O   UNL     1       7.782   6.725  16.500  0.00  0.00    +0.000 OA
ENDROOT
BRANCH   1  13
ATOM     12  C   UNL     1       7.681   5.618  19.407  0.00  0.00    +0.000 C 
ATOM     13  O   UNL     1       6.470   6.046  18.785  0.00  0.00    +0.000 OA
ENDBRANCH   1  13
BRANCH   2  14
ATOM     14  S   UNL     1       4.273   4.157  18.935  0.00  0.00    +0.000 S 
BRANCH  14  15
ATOM     15  C   UNL     1       2.774   5.159  18.655  0.00  0.00    +0.000 C 
ATOM     16  C   UNL     1       3.132   6.474  17.967  0.00  0.00    +0.000 C 
ATOM     17  C   UNL     1       1.815   4.361  17.768  0.00  0.00    +0.000 C 
ENDBRANCH  14  15
ENDBRANCH   2  14
TORSDOF 3
ENDMDL
