MODEL 1
REMARK VINA RESULT:      -7.8      0.000      0.000
REMARK  Name = 
REMARK  5 active torsions:
REMARK  status: ('A' for Active; 'I' for Inactive)
REMARK    1  A    between atoms: C_1  and  O_2
REMARK    2  A    between atoms: O_2  and  C_3
REMARK    3  A    between atoms: C_7  and  C_8
REMARK    4  A    between atoms: N_10  and  C_11
REMARK    5  A    between atoms: C_13  and  C_14
REMARK                            x       y       z     vdW  Elec       q    Type
REMARK                         _______ _______ _______ _____ _____    ______ ____
ROOT
ATOM      1  C   UNL     1       5.595   4.636  16.310  0.00  0.00    +0.000 C 
ATOM      2  O   UNL     1       6.460   4.662  17.182  0.00  0.00    +0.000 OA
ATOM      3  N   UNL     1       4.228   4.730  16.512  0.00  0.00    +0.000 N 
ATOM      4  H   UNL     1       3.610   4.474  15.748  0.00  0.00    +0.000 HD
ENDROOT
BRANCH   3   5
ATOM      5  C   UNL     1       3.604   4.896  17.778  0.00  0.00    +0.000 A 
ATOM      6  C   UNL     1       3.189   3.800  18.543  0.00  0.00    +0.000 A 
ATOM      7  C   UNL     1       2.482   3.960  19.744  0.00  0.00    +0.000 A 
ATOM      8  C   UNL     1       2.250   5.254  20.224  0.00  0.00    +0.000 A 
ATOM      9  C   UNL     1       2.700   6.363  19.501  0.00  0.00    +0.000 A 
ATOM     10  C   UNL     1       3.366   6.185  18.282  0.00  0.00    +0.000 A 
ATOM     11 CL   UNL     1       3.841   7.593  17.396  0.00  0.00    +0.000 Cl
BRANCH   7  12
ATOM     12  C   UNL     1       1.952   2.748  20.473  0.00  0.00    +0.000 C 
ATOM     13  F   UNL     1       1.803   1.650  19.681  0.00  0.00    +0.000 F 
ATOM     14  F   UNL     1       2.760   2.360  21.497  0.00  0.00    +0.000 F 
ATOM     15  F   UNL     1       0.729   2.976  21.025  0.00  0.00    +0.000 F 
ENDBRANCH   7  12
ENDBRANCH   3   5
BRANCH   1  20
ATOM     16  C   UNL     1       5.812   3.482  12.711  0.00  0.00    +0.000 A 
ATOM     17  C   UNL     1       6.967   4.163  12.312  0.00  0.00    +0.000 A 
ATOM     18  C   UNL     1       7.659   4.981  13.202  0.00  0.00    +0.000 A 
ATOM     19  C   UNL     1       7.199   5.112  14.507  0.00  0.00    +0.000 A 
ATOM     20  C   UNL     1       6.055   4.417  14.922  0.00  0.00    +0.000 A 
ATOM     21  C   UNL     1       5.348   3.614  14.022  0.00  0.00    +0.000 A 
BRANCH  16  23
ATOM     22  C   UNL     1       4.000   3.204  11.195  0.00  0.00    +0.000 C 
ATOM     23  O   UNL     1       5.232   2.732  11.725  0.00  0.00    +0.000 OA
ENDBRANCH  16  23
ENDBRANCH   1  20
TORSDOF 4
ENDMDL
MODEL 2
REMARK VINA RESULT:      -7.7      4.646      8.058
REMARK  Name = 
REMARK  5 active torsions:
REMARK  status: ('A' for Active; 'I' for Inactive)
REMARK    1  A    between atoms: C_1  and  O_2
REMARK    2  A    between atoms: O_2  and  C_3
REMARK    3  A    between atoms: C_7  and  C_8
REMARK    4  A    between atoms: N_10  and  C_11
REMARK    5  A    between atoms: C_13  and  C_14
REMARK                            x       y       z     vdW  Elec       q    Type
REMARK                         _______ _______ _______ _____ _____    ______ ____
ROOT
ATOM      1  C   UNL     1       2.358   8.010  18.367  0.00  0.00    +0.000 C 
ATOM      2  O   UNL     1       2.746   8.456  17.290  0.00  0.00    +0.000 OA
ATOM      3  N   UNL     1       2.703   6.786  18.916  0.00  0.00    +0.000 N 
ATOM      4  H   UNL     1       2.152   6.436  19.693  0.00  0.00    +0.000 HD
ENDROOT
BRANCH   3   5
ATOM      5  C   UNL     1       3.590   5.850  18.319  0.00  0.00    +0.000 A 
ATOM      6  C   UNL     1       4.978   6.027  18.352  0.00  0.00    +0.000 A 
ATOM      7  C   UNL     1       5.852   5.162  17.678  0.00  0.00    +0.000 A 
ATOM      8  C   UNL     1       5.322   4.049  17.015  0.00  0.00    +0.000 A 
ATOM      9  C   UNL     1       3.942   3.824  17.011  0.00  0.00    +0.000 A 
ATOM     10  C   UNL     1       3.081   4.722  17.653  0.00  0.00    +0.000 A 
ATOM     11 CL   UNL     1       1.379   4.432  17.561  0.00  0.00    +0.000 Cl
BRANCH   7  12
ATOM     12  C   UNL     1       7.332   5.463  17.644  0.00  0.00    +0.000 C 
ATOM     13  F   UNL     1       7.831   5.910  18.829  0.00  0.00    +0.000 F 
ATOM     14  F   UNL     1       8.078   4.375  17.312  0.00  0.00    +0.000 F 
ATOM     15  F   UNL     1       7.639   6.422  16.727  0.00  0.00    +0.000 F 
ENDBRANCH   7  12
ENDBRANCH   3   5
BRANCH   1  20
ATOM     16  C   UNL     1       0.230   9.468  21.138  0.00  0.00    +0.000 A 
ATOM     17  C   UNL     1      -0.403  10.499  20.435  0.00  0.00    +0.000 A 
ATOM     18  C   UNL     1      -0.137  10.711  19.084  0.00  0.00    +0.000 A 
ATOM     19  C   UNL     1       0.760   9.879  18.425  0.00  0.00    +0.000 A 
ATOM     20  C   UNL     1       1.382   8.830  19.116  0.00  0.00    +0.000 A 
ATOM     21  C   UNL     1       1.133   8.632  20.478  0.00  0.00    +0.000 A 
BRANCH  16  23
ATOM     22  C   UNL     1      -0.825  10.497  23.006  0.00  0.00    +0.000 C 
ATOM     23  O   UNL     1      -0.116   9.393  22.459  0.00  0.00    +0.000 OA
ENDBRANCH  16  23
ENDBRANCH   1  20
TORSDOF 4
ENDMDL
MODEL 3
REMARK VINA RESULT:      -7.7      4.606      8.135
REMARK  Name = 
REMARK  5 active torsions:
REMARK  status: ('A' for Active; 'I' for Inactive)
REMARK    1  A    between atoms: C_1  and  O_2
REMARK    2  A    between atoms: O_2  and  C_3
REMARK    3  A    between atoms: C_7  and  C_8
REMARK    4  A    between atoms: N_10  and  C_11
REMARK    5  A    between atoms: C_13  and  C_14
REMARK                            x       y       z     vdW  Elec       q    Type
REMARK                         _______ _______ _______ _____ _____    ______ ____
ROOT
ATOM      1  C   UNL     1       2.294   6.928  19.729  0.00  0.00    +0.000 C 
ATOM      2  O   UNL     1       2.327   6.030  20.567  0.00  0.00    +0.000 OA
ATOM      3  N   UNL     1       2.892   6.902  18.480  0.00  0.00    +0.000 N 
ATOM      4  H   UNL     1       2.984   7.776  17.973  0.00  0.00    +0.000 HD
ENDROOT
BRANCH   3   5
ATOM      5  C   UNL     1       3.629   5.806  17.956  0.00  0.00    +0.000 A 
ATOM      6  C   UNL     1       5.020   5.859  17.807  0.00  0.00    +0.000 A 
ATOM      7  C   UNL     1       5.740   4.821  17.196  0.00  0.00    +0.000 A 
ATOM      8  C   UNL     1       5.054   3.671  16.792  0.00  0.00    +0.000 A 
ATOM      9  C   UNL     1       3.671   3.576  16.976  0.00  0.00    +0.000 A 
ATOM     10  C   UNL     1       2.963   4.639  17.548  0.00  0.00    +0.000 A 
ATOM     11 CL   UNL     1       1.245   4.495  17.691  0.00  0.00    +0.000 Cl
BRANCH   7  12
ATOM     12  C   UNL     1       7.222   4.976  16.952  0.00  0.00    +0.000 C 
ATOM     13  F   UNL     1       8.002   4.291  17.833  0.00  0.00    +0.000 F 
ATOM     14  F   UNL     1       7.595   4.548  15.715  0.00  0.00    +0.000 F 
ATOM     15  F   UNL     1       7.622   6.275  17.036  0.00  0.00    +0.000 F 
ENDBRANCH   7  12
ENDBRANCH   3   5
BRANCH   1  20
ATOM     16  C   UNL     1       0.669   9.680  21.758  0.00  0.00    +0.000 A 
ATOM     17  C   UNL     1       0.407  10.604  20.740  0.00  0.00    +0.000 A 
ATOM     18  C   UNL     1       0.754  10.330  19.419  0.00  0.00    +0.000 A 
ATOM     19  C   UNL     1       1.360   9.118  19.109  0.00  0.00    +0.000 A 
ATOM     20  C   UNL     1       1.608   8.178  20.119  0.00  0.00    +0.000 A 
ATOM     21  C   UNL     1       1.279   8.463  21.448  0.00  0.00    +0.000 A 
BRANCH  16  23
ATOM     22  C   UNL     1      -0.990  10.705  23.121  0.00  0.00    +0.000 C 
ATOM     23  O   UNL     1       0.288  10.094  23.005  0.00  0.00    +0.000 OA
ENDBRANCH  16  23
ENDBRANCH   1  20
TORSDOF 4
ENDMDL
MODEL 4
REMARK VINA RESULT:      -7.5      4.720      7.785
REMARK  Name = 
REMARK  5 active torsions:
REMARK  status: ('A' for Active; 'I' for Inactive)
REMARK    1  A    between atoms: C_1  and  O_2
REMARK    2  A    between atoms: O_2  and  C_3
REMARK    3  A    between atoms: C_7  and  C_8
REMARK    4  A    between atoms: N_10  and  C_11
REMARK    5  A    between atoms: C_13  and  C_14
REMARK                            x       y       z     vdW  Elec       q    Type
REMARK                         _______ _______ _______ _____ _____    ______ ____
ROOT
ATOM      1  C   UNL     1       2.386   8.015  18.355  0.00  0.00    +0.000 C 
ATOM      2  O   UNL     1       2.731   8.423  17.249  0.00  0.00    +0.000 OA
ATOM      3  N   UNL     1       2.743   6.806  18.928  0.00  0.00    +0.000 N 
ATOM      4  H   UNL     1       2.224   6.485  19.739  0.00  0.00    +0.000 HD
ENDROOT
BRANCH   3   5
ATOM      5  C   UNL     1       3.597   5.843  18.324  0.00  0.00    +0.000 A 
ATOM      6  C   UNL     1       4.990   5.983  18.337  0.00  0.00    +0.000 A 
ATOM      7  C   UNL     1       5.831   5.091  17.656  0.00  0.00    +0.000 A 
ATOM      8  C   UNL     1       5.262   3.989  17.008  0.00  0.00    +0.000 A 
ATOM      9  C   UNL     1       3.877   3.801  17.024  0.00  0.00    +0.000 A 
ATOM     10  C   UNL     1       3.049   4.725  17.672  0.00  0.00    +0.000 A 
ATOM     11 CL   UNL     1       1.339   4.480  17.605  0.00  0.00    +0.000 Cl
BRANCH   7  12
ATOM     12  C   UNL     1       7.317   5.352  17.600  0.00  0.00    +0.000 C 
ATOM     13  F   UNL     1       8.054   4.269  17.227  0.00  0.00    +0.000 F 
ATOM     14  F   UNL     1       7.641   6.342  16.724  0.00  0.00    +0.000 F 
ATOM     15  F   UNL     1       7.815   5.741  18.806  0.00  0.00    +0.000 F 
ENDBRANCH   7  12
ENDBRANCH   3   5
BRANCH   1  20
ATOM     16  C   UNL     1      -0.149  10.668  19.286  0.00  0.00    +0.000 A 
ATOM     17  C   UNL     1      -0.359  10.337  20.629  0.00  0.00    +0.000 A 
ATOM     18  C   UNL     1       0.316   9.269  21.216  0.00  0.00    +0.000 A 
ATOM     19  C   UNL     1       1.217   8.531  20.458  0.00  0.00    +0.000 A 
ATOM     20  C   UNL     1       1.449   8.868  19.118  0.00  0.00    +0.000 A 
ATOM     21  C   UNL     1       0.754   9.926  18.522  0.00  0.00    +0.000 A 
BRANCH  16  23
ATOM     22  C   UNL     1      -1.855  11.464  17.831  0.00  0.00    +0.000 C 
ATOM     23  O   UNL     1      -0.894  11.727  18.845  0.00  0.00    +0.000 OA
ENDBRANCH  16  23
ENDBRANCH   1  20
TORSDOF 4
ENDMDL
MODEL 5
REMARK VINA RESULT:      -7.5      4.676      7.939
REMARK  Name = 
REMARK  5 active torsions:
REMARK  status: ('A' for Active; 'I' for Inactive)
REMARK    1  A    between atoms: C_1  and  O_2
REMARK    2  A    between atoms: O_2  and  C_3
REMARK    3  A    between atoms: C_7  and  C_8
REMARK    4  A    between atoms: N_10  and  C_11
REMARK    5  A    between atoms: C_13  and  C_14
REMARK                            x       y       z     vdW  Elec       q    Type
REMARK                         _______ _______ _______ _____ _____    ______ ____
ROOT
ATOM      1  C   UNL     1       2.359   7.818  18.678  0.00  0.00    +0.000 C 
ATOM      2  O   UNL     1       2.551   8.302  17.565  0.00  0.00    +0.000 OA
ATOM      3  N   UNL     1       2.814   6.589  19.125  0.00  0.00    +0.000 N 
ATOM      4  H   UNL     1       2.409   6.205  19.972  0.00  0.00    +0.000 HD
ENDROOT
BRANCH   3   5
ATOM      5  C   UNL     1       3.606   5.690  18.360  0.00  0.00    +0.000 A 
ATOM      6  C   UNL     1       4.985   5.876  18.203  0.00  0.00    +0.000 A 
ATOM      7  C   UNL     1       5.754   5.052  17.367  0.00  0.00    +0.000 A 
ATOM      8  C   UNL     1       5.134   3.970  16.732  0.00  0.00    +0.000 A 
ATOM      9  C   UNL     1       3.768   3.736  16.914  0.00  0.00    +0.000 A 
ATOM     10  C   UNL     1       3.008   4.594  17.717  0.00  0.00    +0.000 A 
ATOM     11 CL   UNL     1       1.310   4.297  17.855  0.00  0.00    +0.000 Cl
BRANCH   7  12
ATOM     12  C   UNL     1       7.213   5.366  17.138  0.00  0.00    +0.000 C 
ATOM     13  F   UNL     1       7.646   6.483  17.784  0.00  0.00    +0.000 F 
ATOM     14  F   UNL     1       8.033   4.359  17.545  0.00  0.00    +0.000 F 
ATOM     15  F   UNL     1       7.493   5.568  15.820  0.00  0.00    +0.000 F 
ENDBRANCH   7  12
ENDBRANCH   3   5
BRANCH   1  20
ATOM     16  C   UNL     1      -0.060  10.365  20.092  0.00  0.00    +0.000 A 
ATOM     17  C   UNL     1      -0.135   9.914  21.414  0.00  0.00    +0.000 A 
ATOM     18  C   UNL     1       0.591   8.800  21.832  0.00  0.00    +0.000 A 
ATOM     19  C   UNL     1       1.408   8.138  20.925  0.00  0.00    +0.000 A 
ATOM     20  C   UNL     1       1.506   8.595  19.604  0.00  0.00    +0.000 A 
ATOM     21  C   UNL     1       0.760   9.698  19.178  0.00  0.00    +0.000 A 
BRANCH  16  23
ATOM     22  C   UNL     1      -0.785  11.981  18.504  0.00  0.00    +0.000 C 
ATOM     23  O   UNL     1      -0.840  11.456  19.824  0.00  0.00    +0.000 OA
ENDBRANCH  16  23
ENDBRANCH   1  20
TORSDOF 4
ENDMDL
MODEL 6
REMARK VINA RESULT:      -7.4      3.937      7.448
REMARK  Name = 
REMARK  5 active torsions:
REMARK  status: ('A' for Active; 'I' for Inactive)
REMARK    1  A    between atoms: C_1  and  O_2
REMARK    2  A    between atoms: O_2  and  C_3
REMARK    3  A    between atoms: C_7  and  C_8
REMARK    4  A    between atoms: N_10  and  C_11
REMARK    5  A    between atoms: C_13  and  C_14
REMARK                            x       y       z     vdW  Elec       q    Type
REMARK                         _______ _______ _______ _____ _____    ______ ____
ROOT
ATOM      1  C   UNL     1       3.839   3.616  17.595  0.00  0.00    +0.000 C 
ATOM      2  O   UNL     1       4.240   2.462  17.460  0.00  0.00    +0.000 OA
ATOM      3  N   UNL     1       4.292   4.725  16.901  0.00  0.00    +0.000 N 
ATOM      4  H   UNL     1       4.047   5.646  17.252  0.00  0.00    +0.000 HD
ENDROOT
BRANCH   3   5
ATOM      5  C   UNL     1       5.293   4.698  15.892  0.00  0.00    +0.000 A 
ATOM      6  C   UNL     1       5.021   4.235  14.599  0.00  0.00    +0.000 A 
ATOM      7  C   UNL     1       6.028   4.110  13.630  0.00  0.00    +0.000 A 
ATOM      8  C   UNL     1       7.325   4.531  13.946  0.00  0.00    +0.000 A 
ATOM      9  C   UNL     1       7.608   5.043  15.215  0.00  0.00    +0.000 A 
ATOM     10  C   UNL     1       6.600   5.120  16.184  0.00  0.00    +0.000 A 
ATOM     11 CL   UNL     1       7.020   5.700  17.758  0.00  0.00    +0.000 Cl
BRANCH   7  12
ATOM     12  C   UNL     1       5.709   3.494  12.288  0.00  0.00    +0.000 C 
ATOM     13  F   UNL     1       4.437   3.729  11.862  0.00  0.00    +0.000 F 
ATOM     14  F   UNL     1       6.522   3.951  11.298  0.00  0.00    +0.000 F 
ATOM     15  F   UNL     1       5.853   2.140  12.299  0.00  0.00    +0.000 F 
ENDBRANCH   7  12
ENDBRANCH   3   5
BRANCH   1  20
ATOM     16  C   UNL     1       1.687   5.251  20.247  0.00  0.00    +0.000 A 
ATOM     17  C   UNL     1       0.811   4.197  20.526  0.00  0.00    +0.000 A 
ATOM     18  C   UNL     1       0.923   2.978  19.860  0.00  0.00    +0.000 A 
ATOM     19  C   UNL     1       1.927   2.806  18.915  0.00  0.00    +0.000 A 
ATOM     20  C   UNL     1       2.822   3.849  18.643  0.00  0.00    +0.000 A 
ATOM     21  C   UNL     1       2.695   5.080  19.295  0.00  0.00    +0.000 A 
BRANCH  16  23
ATOM     22  C   UNL     1       1.808   7.624  20.359  0.00  0.00    +0.000 C 
ATOM     23  O   UNL     1       1.445   6.390  20.964  0.00  0.00    +0.000 OA
ENDBRANCH  16  23
ENDBRANCH   1  20
TORSDOF 4
ENDMDL
MODEL 7
REMARK VINA RESULT:      -7.3      4.219      7.670
REMARK  Name = 
REMARK  5 active torsions:
REMARK  status: ('A' for Active; 'I' for Inactive)
REMARK    1  A    between atoms: C_1  and  O_2
REMARK    2  A    between atoms: O_2  and  C_3
REMARK    3  A    between atoms: C_7  and  C_8
REMARK    4  A    between atoms: N_10  and  C_11
REMARK    5  A    between atoms: C_13  and  C_14
REMARK                            x       y       z     vdW  Elec       q    Type
REMARK                         _______ _______ _______ _____ _____    ______ ____
ROOT
ATOM      1  C   UNL     1       3.250   6.412  18.001  0.00  0.00    +0.000 C 
ATOM      2  O   UNL     1       2.808   5.266  18.036  0.00  0.00    +0.000 OA
ATOM      3  N   UNL     1       4.483   6.797  17.502  0.00  0.00    +0.000 N 
ATOM      4  H   UNL     1       4.824   7.726  17.728  0.00  0.00    +0.000 HD
ENDROOT
BRANCH   3   5
ATOM      5  C   UNL     1       5.436   5.916  16.923  0.00  0.00    +0.000 A 
ATOM      6  C   UNL     1       5.380   5.559  15.570  0.00  0.00    +0.000 A 
ATOM      7  C   UNL     1       6.255   4.612  15.017  0.00  0.00    +0.000 A 
ATOM      8  C   UNL     1       7.257   4.065  15.827  0.00  0.00    +0.000 A 
ATOM      9  C   UNL     1       7.362   4.444  17.168  0.00  0.00    +0.000 A 
ATOM     10  C   UNL     1       6.453   5.359  17.714  0.00  0.00    +0.000 A 
ATOM     11 CL   UNL     1       6.588   5.742  19.395  0.00  0.00    +0.000 Cl
BRANCH   7  12
ATOM     12  C   UNL     1       6.079   4.172  13.583  0.00  0.00    +0.000 C 
ATOM     13  F   UNL     1       4.824   4.373  13.094  0.00  0.00    +0.000 F 
ATOM     14  F   UNL     1       6.918   4.823  12.731  0.00  0.00    +0.000 F 
ATOM     15  F   UNL     1       6.333   2.845  13.419  0.00  0.00    +0.000 F 
ENDBRANCH   7  12
ENDBRANCH   3   5
BRANCH   1  20
ATOM     16  C   UNL     1       1.341   8.527  20.494  0.00  0.00    +0.000 A 
ATOM     17  C   UNL     1       0.910   9.557  19.652  0.00  0.00    +0.000 A 
ATOM     18  C   UNL     1       1.238   9.559  18.298  0.00  0.00    +0.000 A 
ATOM     19  C   UNL     1       1.993   8.515  17.777  0.00  0.00    +0.000 A 
ATOM     20  C   UNL     1       2.412   7.468  18.609  0.00  0.00    +0.000 A 
ATOM     21  C   UNL     1       2.103   7.478  19.973  0.00  0.00    +0.000 A 
BRANCH  16  23
ATOM     22  C   UNL     1      -0.399   9.015  22.042  0.00  0.00    +0.000 C 
ATOM     23  O   UNL     1       0.958   8.669  21.800  0.00  0.00    +0.000 OA
ENDBRANCH  16  23
ENDBRANCH   1  20
TORSDOF 4
ENDMDL
MODEL 8
REMARK VINA RESULT:      -7.3      4.549      7.800
REMARK  Name = 
REMARK  5 active torsions:
REMARK  status: ('A' for Active; 'I' for Inactive)
REMARK    1  A    between atoms: C_1  and  O_2
REMARK    2  A    between atoms: O_2  and  C_3
REMARK    3  A    between atoms: C_7  and  C_8
REMARK    4  A    between atoms: N_10  and  C_11
REMARK    5  A    between atoms: C_13  and  C_14
REMARK                            x       y       z     vdW  Elec       q    Type
REMARK                         _______ _______ _______ _____ _____    ______ ____
ROOT
ATOM      1  C   UNL     1       2.320   6.967  19.632  0.00  0.00    +0.000 C 
ATOM      2  O   UNL     1       2.451   6.123  20.515  0.00  0.00    +0.000 OA
ATOM      3  N   UNL     1       2.841   6.898  18.351  0.00  0.00    +0.000 N 
ATOM      4  H   UNL     1       2.856   7.744  17.792  0.00  0.00    +0.000 HD
ENDROOT
BRANCH   3   5
ATOM      5  C   UNL     1       3.603   5.811  17.843  0.00  0.00    +0.000 A 
ATOM      6  C   UNL     1       4.983   5.917  17.628  0.00  0.00    +0.000 A 
ATOM      7  C   UNL     1       5.721   4.884  17.032  0.00  0.00    +0.000 A 
ATOM      8  C   UNL     1       5.070   3.687  16.711  0.00  0.00    +0.000 A 
ATOM      9  C   UNL     1       3.703   3.541  16.963  0.00  0.00    +0.000 A 
ATOM     10  C   UNL     1       2.973   4.598  17.519  0.00  0.00    +0.000 A 
ATOM     11 CL   UNL     1       1.272   4.388  17.748  0.00  0.00    +0.000 Cl
BRANCH   7  12
ATOM     12  C   UNL     1       7.182   5.091  16.712  0.00  0.00    +0.000 C 
ATOM     13  F   UNL     1       7.620   6.362  16.933  0.00  0.00    +0.000 F 
ATOM     14  F   UNL     1       7.997   4.285  17.446  0.00  0.00    +0.000 F 
ATOM     15  F   UNL     1       7.465   4.823  15.408  0.00  0.00    +0.000 F 
ENDBRANCH   7  12
ENDBRANCH   3   5
BRANCH   1  20
ATOM     16  C   UNL     1       0.587  10.329  19.454  0.00  0.00    +0.000 A 
ATOM     17  C   UNL     1       0.129  10.431  20.772  0.00  0.00    +0.000 A 
ATOM     18  C   UNL     1       0.383   9.421  21.698  0.00  0.00    +0.000 A 
ATOM     19  C   UNL     1       1.110   8.304  21.307  0.00  0.00    +0.000 A 
ATOM     20  C   UNL     1       1.591   8.202  19.995  0.00  0.00    +0.000 A 
ATOM     21  C   UNL     1       1.317   9.205  19.060  0.00  0.00    +0.000 A 
BRANCH  16  23
ATOM     22  C   UNL     1      -1.139  11.647  18.483  0.00  0.00    +0.000 C 
ATOM     23  O   UNL     1       0.248  11.387  18.657  0.00  0.00    +0.000 OA
ENDBRANCH  16  23
ENDBRANCH   1  20
TORSDOF 4
ENDMDL
MODEL 9
REMARK VINA RESULT:      -7.2      3.971      7.353
REMARK  Name = 
REMARK  5 active torsions:
REMARK  status: ('A' for Active; 'I' for Inactive)
REMARK    1  A    between atoms: C_1  and  O_2
REMARK    2  A    between atoms: O_2  and  C_3
REMARK    3  A    between atoms: C_7  and  C_8
REMARK    4  A    between atoms: N_10  and  C_11
REMARK    5  A    between atoms: C_13  and  C_14
REMARK                            x       y       z     vdW  Elec       q    Type
REMARK                         _______ _______ _______ _____ _____    ______ ____
ROOT
ATOM      1  C   UNL     1       3.938   5.854  17.482  0.00  0.00    +0.000 C 
ATOM      2  O   UNL     1       4.042   6.996  17.040  0.00  0.00    +0.000 OA
ATOM      3  N   UNL     1       4.583   4.728  16.997  0.00  0.00    +0.000 N 
ATOM      4  H   UNL     1       4.251   3.817  17.296  0.00  0.00    +0.000 HD
ENDROOT
BRANCH   3   5
ATOM      5  C   UNL     1       5.498   4.722  15.909  0.00  0.00    +0.000 A 
ATOM      6  C   UNL     1       5.140   4.228  14.649  0.00  0.00    +0.000 A 
ATOM      7  C   UNL     1       6.067   4.125  13.602  0.00  0.00    +0.000 A 
ATOM      8  C   UNL     1       7.368   4.600  13.804  0.00  0.00    +0.000 A 
ATOM      9  C   UNL     1       7.734   5.143  15.039  0.00  0.00    +0.000 A 
ATOM     10  C   UNL     1       6.808   5.198  16.087  0.00  0.00    +0.000 A 
ATOM     11 CL   UNL     1       7.332   5.820  17.613  0.00  0.00    +0.000 Cl
BRANCH   7  12
ATOM     12  C   UNL     1       5.664   3.475  12.300  0.00  0.00    +0.000 C 
ATOM     13  F   UNL     1       6.306   3.978  11.210  0.00  0.00    +0.000 F 
ATOM     14  F   UNL     1       5.904   2.136  12.288  0.00  0.00    +0.000 F 
ATOM     15  F   UNL     1       4.334   3.620  12.046  0.00  0.00    +0.000 F 
ENDBRANCH   7  12
ENDBRANCH   3   5
BRANCH   1  20
ATOM     16  C   UNL     1       1.611   4.263  20.009  0.00  0.00    +0.000 A 
ATOM     17  C   UNL     1       1.275   5.391  20.766  0.00  0.00    +0.000 A 
ATOM     18  C   UNL     1       1.799   6.644  20.455  0.00  0.00    +0.000 A 
ATOM     19  C   UNL     1       2.658   6.774  19.370  0.00  0.00    +0.000 A 
ATOM     20  C   UNL     1       2.984   5.654  18.594  0.00  0.00    +0.000 A 
ATOM     21  C   UNL     1       2.476   4.393  18.920  0.00  0.00    +0.000 A 
BRANCH  16  23
ATOM     22  C   UNL     1       1.549   2.534  21.642  0.00  0.00    +0.000 C 
ATOM     23  O   UNL     1       1.035   3.101  20.444  0.00  0.00    +0.000 OA
ENDBRANCH  16  23
ENDBRANCH   1  20
TORSDOF 4
ENDMDL
