MODEL 1
REMARK VINA RESULT:      -7.9      0.000      0.000
REMARK  Name = 
REMARK  12 active torsions:
REMARK  status: ('A' for Active; 'I' for Inactive)
REMARK    1  A    between atoms: C_1  and  O_2
REMARK    2  A    between atoms: O_2  and  C_3
REMARK    3  A    between atoms: C_6  and  S_7
REMARK    4  A    between atoms: S_7  and  C_10
REMARK    5  A    between atoms: C_11  and  S_12
REMARK    6  A    between atoms: S_12  and  C_13
REMARK    7  A    between atoms: N_15  and  C_16
REMARK    8  A    between atoms: C_16  and  C_17
REMARK    9  A    between atoms: N_19  and  C_20
REMARK   10  A    between atoms: C_24  and  C_25
REMARK   11  A    between atoms: C_26  and  C_27
REMARK   12  A    between atoms: C_28  and  N_29
REMARK                            x       y       z     vdW  Elec       q    Type
REMARK                         _______ _______ _______ _____ _____    ______ ____
ROOT
ATOM      1  C   UNL     1       0.815  10.476  19.390  0.00  0.00    +0.000 A 
ATOM      2  C   UNL     1       0.754   9.252  20.105  0.00  0.00    +0.000 A 
ATOM      3  N   UNL     1       1.557   8.323  19.570  0.00  0.00    +0.000 NA
ATOM      4  N   UNL     1       2.129   8.943  18.514  0.00  0.00    +0.000 N 
ATOM      5  C   UNL     1       1.770  10.265  18.425  0.00  0.00    +0.000 A 
ENDROOT
BRANCH   1   6
ATOM      6  S   UNL     1      -0.092  11.924  19.547  0.00  0.00    +0.000 S 
ATOM      7  O   UNL     1       0.557  12.906  18.696  0.00  0.00    +0.000 OA
ATOM      8  O   UNL     1      -0.213  12.151  20.976  0.00  0.00    +0.000 OA
BRANCH   6  12
ATOM      9  C   UNL     1      -4.330  11.047  18.089  0.00  0.00    +0.000 A 
ATOM     10  C   UNL     1      -4.091  12.027  19.058  0.00  0.00    +0.000 A 
ATOM     11  C   UNL     1      -2.793  12.310  19.478  0.00  0.00    +0.000 A 
ATOM     12  C   UNL     1      -1.724  11.609  18.925  0.00  0.00    +0.000 A 
ATOM     13  C   UNL     1      -1.955  10.578  18.001  0.00  0.00    +0.000 A 
ATOM     14  C   UNL     1      -3.264  10.309  17.573  0.00  0.00    +0.000 A 
BRANCH   9  16
ATOM     15  C   UNL     1      -6.458  12.036  17.810  0.00  0.00    +0.000 C 
ATOM     16  O   UNL     1      -5.649  10.866  17.770  0.00  0.00    +0.000 OA
ENDBRANCH   9  16
ENDBRANCH   6  12
ENDBRANCH   1   6
BRANCH   5  17
ATOM     17  N   UNL     1       2.276  11.101  17.473  0.00  0.00    +0.000 N 
ATOM     18  H   UNL     1       3.288  11.289  17.500  0.00  0.00    +0.000 HD
ATOM     19  H   UNL     1       2.030  10.878  16.503  0.00  0.00    +0.000 HD
ENDBRANCH   5  17
BRANCH   2  20
ATOM     20  S   UNL     1      -0.185   8.843  21.531  0.00  0.00    +0.000 S 
ATOM     21  C   UNL     1       0.889   9.389  22.896  0.00  0.00    +0.000 C 
ENDBRANCH   2  20
BRANCH   4  22
ATOM     22  C   UNL     1       3.102   8.217  17.718  0.00  0.00    +0.000 C 
BRANCH  22  23
ATOM     23  C   UNL     1       3.264   6.775  18.156  0.00  0.00    +0.000 C 
ATOM     24  O   UNL     1       4.350   6.340  18.542  0.00  0.00    +0.000 OA
ATOM     25  N   UNL     1       2.103   6.012  18.075  0.00  0.00    +0.000 N 
ATOM     26  H   UNL     1       1.447   6.286  17.352  0.00  0.00    +0.000 HD
BRANCH  25  27
ATOM     27  C   UNL     1       2.093   4.645  18.453  0.00  0.00    +0.000 A 
ATOM     28  C   UNL     1       2.330   3.659  17.487  0.00  0.00    +0.000 A 
ATOM     29  C   UNL     1       2.323   2.310  17.835  0.00  0.00    +0.000 A 
ATOM     30  C   UNL     1       2.062   1.938  19.151  0.00  0.00    +0.000 A 
ATOM     31  C   UNL     1       1.826   2.909  20.139  0.00  0.00    +0.000 A 
ATOM     32  C   UNL     1       1.515   2.445  21.536  0.00  0.00    +0.000 C 
ATOM     33  C   UNL     1       1.857   4.282  19.796  0.00  0.00    +0.000 A 
ATOM     34  C   UNL     1       1.619   5.343  20.841  0.00  0.00    +0.000 C 
ENDBRANCH  25  27
ENDBRANCH  22  23
ENDBRANCH   4  22
TORSDOF 8
ENDMDL
MODEL 2
REMARK VINA RESULT:      -7.7      3.429      8.961
REMARK  Name = 
REMARK  12 active torsions:
REMARK  status: ('A' for Active; 'I' for Inactive)
REMARK    1  A    between atoms: C_1  and  O_2
REMARK    2  A    between atoms: O_2  and  C_3
REMARK    3  A    between atoms: C_6  and  S_7
REMARK    4  A    between atoms: S_7  and  C_10
REMARK    5  A    between atoms: C_11  and  S_12
REMARK    6  A    between atoms: S_12  and  C_13
REMARK    7  A    between atoms: N_15  and  C_16
REMARK    8  A    between atoms: C_16  and  C_17
REMARK    9  A    between atoms: N_19  and  C_20
REMARK   10  A    between atoms: C_24  and  C_25
REMARK   11  A    between atoms: C_26  and  C_27
REMARK   12  A    between atoms: C_28  and  N_29
REMARK                            x       y       z     vdW  Elec       q    Type
REMARK                         _______ _______ _______ _____ _____    ______ ____
ROOT
ATOM      1  C   UNL     1       3.784   5.761  18.861  0.00  0.00    +0.000 A 
ATOM      2  C   UNL     1       2.676   5.864  19.740  0.00  0.00    +0.000 A 
ATOM      3  N   UNL     1       1.977   6.987  19.531  0.00  0.00    +0.000 NA
ATOM      4  N   UNL     1       2.634   7.607  18.524  0.00  0.00    +0.000 N 
ATOM      5  C   UNL     1       3.677   6.858  18.040  0.00  0.00    +0.000 A 
ENDROOT
BRANCH   1   6
ATOM      6  S   UNL     1       5.069   4.625  18.787  0.00  0.00    +0.000 S 
ATOM      7  O   UNL     1       4.491   3.335  19.122  0.00  0.00    +0.000 OA
ATOM      8  O   UNL     1       6.131   5.191  19.599  0.00  0.00    +0.000 OA
BRANCH   6  12
ATOM      9  C   UNL     1       6.587   4.349  14.489  0.00  0.00    +0.000 A 
ATOM     10  C   UNL     1       5.314   3.884  14.834  0.00  0.00    +0.000 A 
ATOM     11  C   UNL     1       4.846   3.998  16.141  0.00  0.00    +0.000 A 
ATOM     12  C   UNL     1       5.655   4.580  17.114  0.00  0.00    +0.000 A 
ATOM     13  C   UNL     1       6.959   4.990  16.796  0.00  0.00    +0.000 A 
ATOM     14  C   UNL     1       7.418   4.886  15.473  0.00  0.00    +0.000 A 
BRANCH   9  16
ATOM     15  C   UNL     1       6.012   3.404  12.402  0.00  0.00    +0.000 C 
ATOM     16  O   UNL     1       6.925   4.173  13.175  0.00  0.00    +0.000 OA
ENDBRANCH   9  16
ENDBRANCH   6  12
ENDBRANCH   1   6
BRANCH   5  17
ATOM     17  N   UNL     1       4.440   7.259  16.982  0.00  0.00    +0.000 N 
ATOM     18  H   UNL     1       5.452   7.353  17.140  0.00  0.00    +0.000 HD
ATOM     19  H   UNL     1       4.312   6.731  16.112  0.00  0.00    +0.000 HD
ENDBRANCH   5  17
BRANCH   2  20
ATOM     20  S   UNL     1       2.139   4.750  20.987  0.00  0.00    +0.000 S 
ATOM     21  C   UNL     1       1.018   3.636  20.084  0.00  0.00    +0.000 C 
ENDBRANCH   2  20
BRANCH   4  22
ATOM     22  C   UNL     1       2.111   8.862  18.016  0.00  0.00    +0.000 C 
BRANCH  22  23
ATOM     23  C   UNL     1       1.051   9.467  18.914  0.00  0.00    +0.000 C 
ATOM     24  O   UNL     1      -0.094   9.671  18.508  0.00  0.00    +0.000 OA
ATOM     25  N   UNL     1       1.487   9.768  20.201  0.00  0.00    +0.000 N 
ATOM     26  H   UNL     1       2.469  10.007  20.288  0.00  0.00    +0.000 HD
BRANCH  25  27
ATOM     27  C   UNL     1       0.611  10.337  21.160  0.00  0.00    +0.000 A 
ATOM     28  C   UNL     1      -0.034   9.505  22.085  0.00  0.00    +0.000 A 
ATOM     29  C   UNL     1      -0.901  10.041  23.035  0.00  0.00    +0.000 A 
ATOM     30  C   UNL     1      -1.142  11.412  23.054  0.00  0.00    +0.000 A 
ATOM     31  C   UNL     1      -0.504  12.267  22.140  0.00  0.00    +0.000 A 
ATOM     32  C   UNL     1      -0.831  13.735  22.186  0.00  0.00    +0.000 C 
ATOM     33  C   UNL     1       0.398  11.731  21.189  0.00  0.00    +0.000 A 
ATOM     34  C   UNL     1       1.104  12.629  20.205  0.00  0.00    +0.000 C 
ENDBRANCH  25  27
ENDBRANCH  22  23
ENDBRANCH   4  22
TORSDOF 8
ENDMDL
MODEL 3
REMARK VINA RESULT:      -7.6      0.655      1.120
REMARK  Name = 
REMARK  12 active torsions:
REMARK  status: ('A' for Active; 'I' for Inactive)
REMARK    1  A    between atoms: C_1  and  O_2
REMARK    2  A    between atoms: O_2  and  C_3
REMARK    3  A    between atoms: C_6  and  S_7
REMARK    4  A    between atoms: S_7  and  C_10
REMARK    5  A    between atoms: C_11  and  S_12
REMARK    6  A    between atoms: S_12  and  C_13
REMARK    7  A    between atoms: N_15  and  C_16
REMARK    8  A    between atoms: C_16  and  C_17
REMARK    9  A    between atoms: N_19  and  C_20
REMARK   10  A    between atoms: C_24  and  C_25
REMARK   11  A    between atoms: C_26  and  C_27
REMARK   12  A    between atoms: C_28  and  N_29
REMARK                            x       y       z     vdW  Elec       q    Type
REMARK                         _______ _______ _______ _____ _____    ______ ____
ROOT
ATOM      1  C   UNL     1       1.036  10.774  19.356  0.00  0.00    +0.000 A 
ATOM      2  C   UNL     1       0.788   9.529  19.989  0.00  0.00    +0.000 A 
ATOM      3  N   UNL     1       1.422   8.522  19.375  0.00  0.00    +0.000 NA
ATOM      4  N   UNL     1       2.074   9.115  18.348  0.00  0.00    +0.000 N 
ATOM      5  C   UNL     1       1.931  10.480  18.356  0.00  0.00    +0.000 A 
ENDROOT
BRANCH   1   6
ATOM      6  S   UNL     1       0.376  12.335  19.630  0.00  0.00    +0.000 S 
ATOM      7  O   UNL     1       0.850  13.174  18.543  0.00  0.00    +0.000 OA
ATOM      8  O   UNL     1       0.705  12.656  21.008  0.00  0.00    +0.000 OA
BRANCH   6  12
ATOM      9  C   UNL     1      -4.168  12.091  19.249  0.00  0.00    +0.000 A 
ATOM     10  C   UNL     1      -3.333  11.549  18.266  0.00  0.00    +0.000 A 
ATOM     11  C   UNL     1      -1.948  11.600  18.403  0.00  0.00    +0.000 A 
ATOM     12  C   UNL     1      -1.390  12.199  19.530  0.00  0.00    +0.000 A 
ATOM     13  C   UNL     1      -2.214  12.807  20.490  0.00  0.00    +0.000 A 
ATOM     14  C   UNL     1      -3.609  12.737  20.353  0.00  0.00    +0.000 A 
BRANCH   9  16
ATOM     15  C   UNL     1      -5.851  11.168  17.872  0.00  0.00    +0.000 C 
ATOM     16  O   UNL     1      -5.507  11.977  18.990  0.00  0.00    +0.000 OA
ENDBRANCH   9  16
ENDBRANCH   6  12
ENDBRANCH   1   6
BRANCH   5  17
ATOM     17  N   UNL     1       2.554  11.289  17.449  0.00  0.00    +0.000 N 
ATOM     18  H   UNL     1       3.097  10.831  16.705  0.00  0.00    +0.000 HD
ATOM     19  H   UNL     1       1.965  12.002  17.007  0.00  0.00    +0.000 HD
ENDBRANCH   5  17
BRANCH   2  20
ATOM     20  S   UNL     1      -0.186   9.178  21.407  0.00  0.00    +0.000 S 
ATOM     21  C   UNL     1       1.017   9.301  22.768  0.00  0.00    +0.000 C 
ENDBRANCH   2  20
BRANCH   4  22
ATOM     22  C   UNL     1       2.905   8.299  17.483  0.00  0.00    +0.000 C 
BRANCH  22  23
ATOM     23  C   UNL     1       3.108   6.894  18.013  0.00  0.00    +0.000 C 
ATOM     24  O   UNL     1       4.192   6.532  18.472  0.00  0.00    +0.000 OA
ATOM     25  N   UNL     1       1.985   6.075  17.925  0.00  0.00    +0.000 N 
ATOM     26  H   UNL     1       1.353   6.277  17.159  0.00  0.00    +0.000 HD
BRANCH  25  27
ATOM     27  C   UNL     1       2.016   4.734  18.384  0.00  0.00    +0.000 A 
ATOM     28  C   UNL     1       2.275   3.699  17.475  0.00  0.00    +0.000 A 
ATOM     29  C   UNL     1       2.308   2.374  17.903  0.00  0.00    +0.000 A 
ATOM     30  C   UNL     1       2.065   2.073  19.240  0.00  0.00    +0.000 A 
ATOM     31  C   UNL     1       1.807   3.093  20.171  0.00  0.00    +0.000 A 
ATOM     32  C   UNL     1       1.516   2.705  21.595  0.00  0.00    +0.000 C 
ATOM     33  C   UNL     1       1.797   4.444  19.747  0.00  0.00    +0.000 A 
ATOM     34  C   UNL     1       1.535   5.558  20.729  0.00  0.00    +0.000 C 
ENDBRANCH  25  27
ENDBRANCH  22  23
ENDBRANCH   4  22
TORSDOF 8
ENDMDL
MODEL 4
REMARK VINA RESULT:      -7.4      3.465      8.961
REMARK  Name = 
REMARK  12 active torsions:
REMARK  status: ('A' for Active; 'I' for Inactive)
REMARK    1  A    between atoms: C_1  and  O_2
REMARK    2  A    between atoms: O_2  and  C_3
REMARK    3  A    between atoms: C_6  and  S_7
REMARK    4  A    between atoms: S_7  and  C_10
REMARK    5  A    between atoms: C_11  and  S_12
REMARK    6  A    between atoms: S_12  and  C_13
REMARK    7  A    between atoms: N_15  and  C_16
REMARK    8  A    between atoms: C_16  and  C_17
REMARK    9  A    between atoms: N_19  and  C_20
REMARK   10  A    between atoms: C_24  and  C_25
REMARK   11  A    between atoms: C_26  and  C_27
REMARK   12  A    between atoms: C_28  and  N_29
REMARK                            x       y       z     vdW  Elec       q    Type
REMARK                         _______ _______ _______ _____ _____    ______ ____
ROOT
ATOM      1  C   UNL     1       3.836   5.806  18.879  0.00  0.00    +0.000 A 
ATOM      2  C   UNL     1       2.679   5.855  19.699  0.00  0.00    +0.000 A 
ATOM      3  N   UNL     1       1.946   6.949  19.459  0.00  0.00    +0.000 NA
ATOM      4  N   UNL     1       2.628   7.604  18.493  0.00  0.00    +0.000 N 
ATOM      5  C   UNL     1       3.727   6.904  18.061  0.00  0.00    +0.000 A 
ENDROOT
BRANCH   1   6
ATOM      6  S   UNL     1       5.170   4.726  18.868  0.00  0.00    +0.000 S 
ATOM      7  O   UNL     1       4.669   3.454  19.361  0.00  0.00    +0.000 OA
ATOM      8  O   UNL     1       6.235   5.421  19.569  0.00  0.00    +0.000 OA
BRANCH   6  12
ATOM      9  C   UNL     1       6.504   4.377  14.514  0.00  0.00    +0.000 A 
ATOM     10  C   UNL     1       7.347   4.932  15.483  0.00  0.00    +0.000 A 
ATOM     11  C   UNL     1       6.945   5.009  16.814  0.00  0.00    +0.000 A 
ATOM     12  C   UNL     1       5.691   4.528  17.184  0.00  0.00    +0.000 A 
ATOM     13  C   UNL     1       4.809   4.031  16.212  0.00  0.00    +0.000 A 
ATOM     14  C   UNL     1       5.227   3.943  14.874  0.00  0.00    +0.000 A 
BRANCH   9  16
ATOM     15  C   UNL     1       8.022   5.337  12.980  0.00  0.00    +0.000 C 
ATOM     16  O   UNL     1       7.017   4.366  13.246  0.00  0.00    +0.000 OA
ENDBRANCH   9  16
ENDBRANCH   6  12
ENDBRANCH   1   6
BRANCH   5  17
ATOM     17  N   UNL     1       4.527   7.345  17.048  0.00  0.00    +0.000 N 
ATOM     18  H   UNL     1       5.521   7.499  17.266  0.00  0.00    +0.000 HD
ATOM     19  H   UNL     1       4.483   6.809  16.175  0.00  0.00    +0.000 HD
ENDBRANCH   5  17
BRANCH   2  20
ATOM     20  S   UNL     1       2.124   4.709  20.908  0.00  0.00    +0.000 S 
ATOM     21  C   UNL     1       1.086   3.567  19.942  0.00  0.00    +0.000 C 
ENDBRANCH   2  20
BRANCH   4  22
ATOM     22  C   UNL     1       2.080   8.840  17.964  0.00  0.00    +0.000 C 
BRANCH  22  23
ATOM     23  C   UNL     1       1.035   9.457  18.871  0.00  0.00    +0.000 C 
ATOM     24  O   UNL     1      -0.105   9.693  18.468  0.00  0.00    +0.000 OA
ATOM     25  N   UNL     1       1.477   9.732  20.162  0.00  0.00    +0.000 N 
ATOM     26  H   UNL     1       2.464   9.947  20.251  0.00  0.00    +0.000 HD
BRANCH  25  27
ATOM     27  C   UNL     1       0.614  10.307  21.128  0.00  0.00    +0.000 A 
ATOM     28  C   UNL     1      -0.041   9.480  22.050  0.00  0.00    +0.000 A 
ATOM     29  C   UNL     1      -0.895  10.022  23.006  0.00  0.00    +0.000 A 
ATOM     30  C   UNL     1      -1.114  11.397  23.037  0.00  0.00    +0.000 A 
ATOM     31  C   UNL     1      -0.466  12.248  22.126  0.00  0.00    +0.000 A 
ATOM     32  C   UNL     1      -0.769  13.721  22.184  0.00  0.00    +0.000 C 
ATOM     33  C   UNL     1       0.424  11.704  21.168  0.00  0.00    +0.000 A 
ATOM     34  C   UNL     1       1.140  12.598  20.187  0.00  0.00    +0.000 C 
ENDBRANCH  25  27
ENDBRANCH  22  23
ENDBRANCH   4  22
TORSDOF 8
ENDMDL
MODEL 5
REMARK VINA RESULT:      -7.2      3.271      8.929
REMARK  Name = 
REMARK  12 active torsions:
REMARK  status: ('A' for Active; 'I' for Inactive)
REMARK    1  A    between atoms: C_1  and  O_2
REMARK    2  A    between atoms: O_2  and  C_3
REMARK    3  A    between atoms: C_6  and  S_7
REMARK    4  A    between atoms: S_7  and  C_10
REMARK    5  A    between atoms: C_11  and  S_12
REMARK    6  A    between atoms: S_12  and  C_13
REMARK    7  A    between atoms: N_15  and  C_16
REMARK    8  A    between atoms: C_16  and  C_17
REMARK    9  A    between atoms: N_19  and  C_20
REMARK   10  A    between atoms: C_24  and  C_25
REMARK   11  A    between atoms: C_26  and  C_27
REMARK   12  A    between atoms: C_28  and  N_29
REMARK                            x       y       z     vdW  Elec       q    Type
REMARK                         _______ _______ _______ _____ _____    ______ ____
ROOT
ATOM      1  C   UNL     1       3.751   5.824  18.901  0.00  0.00    +0.000 A 
ATOM      2  C   UNL     1       2.602   5.868  19.732  0.00  0.00    +0.000 A 
ATOM      3  N   UNL     1       1.831   6.928  19.460  0.00  0.00    +0.000 NA
ATOM      4  N   UNL     1       2.482   7.567  18.461  0.00  0.00    +0.000 N 
ATOM      5  C   UNL     1       3.598   6.885  18.043  0.00  0.00    +0.000 A 
ENDROOT
BRANCH   1   6
ATOM      6  S   UNL     1       5.119   4.786  18.916  0.00  0.00    +0.000 S 
ATOM      7  O   UNL     1       4.658   3.513  19.443  0.00  0.00    +0.000 OA
ATOM      8  O   UNL     1       6.162   5.533  19.595  0.00  0.00    +0.000 OA
BRANCH   6  12
ATOM      9  C   UNL     1       6.465   4.367  14.572  0.00  0.00    +0.000 A 
ATOM     10  C   UNL     1       7.316   4.911  15.540  0.00  0.00    +0.000 A 
ATOM     11  C   UNL     1       6.910   5.009  16.869  0.00  0.00    +0.000 A 
ATOM     12  C   UNL     1       5.643   4.561  17.236  0.00  0.00    +0.000 A 
ATOM     13  C   UNL     1       4.755   4.075  16.264  0.00  0.00    +0.000 A 
ATOM     14  C   UNL     1       5.177   3.965  14.930  0.00  0.00    +0.000 A 
BRANCH   9  16
ATOM     15  C   UNL     1       6.344   3.438  12.403  0.00  0.00    +0.000 C 
ATOM     16  O   UNL     1       6.984   4.331  13.307  0.00  0.00    +0.000 OA
ENDBRANCH   9  16
ENDBRANCH   6  12
ENDBRANCH   1   6
BRANCH   5  17
ATOM     17  N   UNL     1       4.373   7.312  17.004  0.00  0.00    +0.000 N 
ATOM     18  H   UNL     1       3.956   7.288  16.064  0.00  0.00    +0.000 HD
ATOM     19  H   UNL     1       4.815   8.230  17.122  0.00  0.00    +0.000 HD
ENDBRANCH   5  17
BRANCH   2  20
ATOM     20  S   UNL     1       2.097   4.753  20.991  0.00  0.00    +0.000 S 
ATOM     21  C   UNL     1       0.986   3.614  20.105  0.00  0.00    +0.000 C 
ENDBRANCH   2  20
BRANCH   4  22
ATOM     22  C   UNL     1       1.889   8.763  17.892  0.00  0.00    +0.000 C 
BRANCH  22  23
ATOM     23  C   UNL     1       1.400   9.737  18.945  0.00  0.00    +0.000 C 
ATOM     24  O   UNL     1       2.015  10.775  19.194  0.00  0.00    +0.000 OA
ATOM     25  N   UNL     1       0.229   9.351  19.591  0.00  0.00    +0.000 N 
ATOM     26  H   UNL     1       0.080   8.352  19.669  0.00  0.00    +0.000 HD
BRANCH  25  27
ATOM     27  C   UNL     1      -0.356  10.159  20.598  0.00  0.00    +0.000 A 
ATOM     28  C   UNL     1      -0.108   9.870  21.947  0.00  0.00    +0.000 A 
ATOM     29  C   UNL     1      -0.673  10.649  22.953  0.00  0.00    +0.000 A 
ATOM     30  C   UNL     1      -1.505  11.713  22.618  0.00  0.00    +0.000 A 
ATOM     31  C   UNL     1      -1.766  12.026  21.274  0.00  0.00    +0.000 A 
ATOM     32  C   UNL     1      -2.702  13.165  20.973  0.00  0.00    +0.000 C 
ATOM     33  C   UNL     1      -1.173  11.253  20.245  0.00  0.00    +0.000 A 
ATOM     34  C   UNL     1      -1.429  11.577  18.795  0.00  0.00    +0.000 C 
ENDBRANCH  25  27
ENDBRANCH  22  23
ENDBRANCH   4  22
TORSDOF 8
ENDMDL
MODEL 6
REMARK VINA RESULT:      -7.2      1.206      1.864
REMARK  Name = 
REMARK  12 active torsions:
REMARK  status: ('A' for Active; 'I' for Inactive)
REMARK    1  A    between atoms: C_1  and  O_2
REMARK    2  A    between atoms: O_2  and  C_3
REMARK    3  A    between atoms: C_6  and  S_7
REMARK    4  A    between atoms: S_7  and  C_10
REMARK    5  A    between atoms: C_11  and  S_12
REMARK    6  A    between atoms: S_12  and  C_13
REMARK    7  A    between atoms: N_15  and  C_16
REMARK    8  A    between atoms: C_16  and  C_17
REMARK    9  A    between atoms: N_19  and  C_20
REMARK   10  A    between atoms: C_24  and  C_25
REMARK   11  A    between atoms: C_26  and  C_27
REMARK   12  A    between atoms: C_28  and  N_29
REMARK                            x       y       z     vdW  Elec       q    Type
REMARK                         _______ _______ _______ _____ _____    ______ ____
ROOT
ATOM      1  C   UNL     1       0.520  10.741  19.541  0.00  0.00    +0.000 A 
ATOM      2  C   UNL     1       0.354   9.598  20.365  0.00  0.00    +0.000 A 
ATOM      3  N   UNL     1       1.120   8.577  19.961  0.00  0.00    +0.000 NA
ATOM      4  N   UNL     1       1.774   9.057  18.879  0.00  0.00    +0.000 N 
ATOM      5  C   UNL     1       1.500  10.382  18.647  0.00  0.00    +0.000 A 
ENDROOT
BRANCH   1   6
ATOM      6  S   UNL     1      -0.303  12.247  19.515  0.00  0.00    +0.000 S 
ATOM      7  O   UNL     1       0.355  13.053  18.501  0.00  0.00    +0.000 OA
ATOM      8  O   UNL     1      -0.344  12.688  20.898  0.00  0.00    +0.000 OA
BRANCH   6  12
ATOM      9  C   UNL     1      -4.592  11.560  18.102  0.00  0.00    +0.000 A 
ATOM     10  C   UNL     1      -3.504  11.125  17.338  0.00  0.00    +0.000 A 
ATOM     11  C   UNL     1      -2.199  11.312  17.788  0.00  0.00    +0.000 A 
ATOM     12  C   UNL     1      -1.977  11.938  19.012  0.00  0.00    +0.000 A 
ATOM     13  C   UNL     1      -3.056  12.439  19.757  0.00  0.00    +0.000 A 
ATOM     14  C   UNL     1      -4.369  12.234  19.304  0.00  0.00    +0.000 A 
BRANCH   9  16
ATOM     15  C   UNL     1      -6.881  12.137  18.017  0.00  0.00    +0.000 C 
ATOM     16  O   UNL     1      -5.818  11.319  17.544  0.00  0.00    +0.000 OA
ENDBRANCH   9  16
ENDBRANCH   6  12
ENDBRANCH   1   6
BRANCH   5  17
ATOM     17  N   UNL     1       2.096  11.091  17.645  0.00  0.00    +0.000 N 
ATOM     18  H   UNL     1       1.495  11.418  16.876  0.00  0.00    +0.000 HD
ATOM     19  H   UNL     1       2.676  11.883  17.940  0.00  0.00    +0.000 HD
ENDBRANCH   5  17
BRANCH   2  20
ATOM     20  S   UNL     1      -0.668   9.385  21.778  0.00  0.00    +0.000 S 
ATOM     21  C   UNL     1       0.513   9.511  23.158  0.00  0.00    +0.000 C 
ENDBRANCH   2  20
BRANCH   4  22
ATOM     22  C   UNL     1       2.733   8.202  18.204  0.00  0.00    +0.000 C 
BRANCH  22  23
ATOM     23  C   UNL     1       2.512   6.730  18.487  0.00  0.00    +0.000 C 
ATOM     24  O   UNL     1       2.000   5.986  17.650  0.00  0.00    +0.000 OA
ATOM     25  N   UNL     1       2.923   6.316  19.751  0.00  0.00    +0.000 N 
ATOM     26  H   UNL     1       2.877   7.018  20.480  0.00  0.00    +0.000 HD
BRANCH  25  27
ATOM     27  C   UNL     1       2.786   4.966  20.163  0.00  0.00    +0.000 A 
ATOM     28  C   UNL     1       1.631   4.567  20.848  0.00  0.00    +0.000 A 
ATOM     29  C   UNL     1       1.475   3.247  21.265  0.00  0.00    +0.000 A 
ATOM     30  C   UNL     1       2.483   2.320  21.013  0.00  0.00    +0.000 A 
ATOM     31  C   UNL     1       3.649   2.695  20.324  0.00  0.00    +0.000 A 
ATOM     32  C   UNL     1       4.719   1.658  20.113  0.00  0.00    +0.000 C 
ATOM     33  C   UNL     1       3.801   4.029  19.876  0.00  0.00    +0.000 A 
ATOM     34  C   UNL     1       5.037   4.453  19.124  0.00  0.00    +0.000 C 
ENDBRANCH  25  27
ENDBRANCH  22  23
ENDBRANCH   4  22
TORSDOF 8
ENDMDL
MODEL 7
REMARK VINA RESULT:      -7.1      3.241      9.076
REMARK  Name = 
REMARK  12 active torsions:
REMARK  status: ('A' for Active; 'I' for Inactive)
REMARK    1  A    between atoms: C_1  and  O_2
REMARK    2  A    between atoms: O_2  and  C_3
REMARK    3  A    between atoms: C_6  and  S_7
REMARK    4  A    between atoms: S_7  and  C_10
REMARK    5  A    between atoms: C_11  and  S_12
REMARK    6  A    between atoms: S_12  and  C_13
REMARK    7  A    between atoms: N_15  and  C_16
REMARK    8  A    between atoms: C_16  and  C_17
REMARK    9  A    between atoms: N_19  and  C_20
REMARK   10  A    between atoms: C_24  and  C_25
REMARK   11  A    between atoms: C_26  and  C_27
REMARK   12  A    between atoms: C_28  and  N_29
REMARK                            x       y       z     vdW  Elec       q    Type
REMARK                         _______ _______ _______ _____ _____    ______ ____
ROOT
ATOM      1  C   UNL     1       3.864   5.802  18.853  0.00  0.00    +0.000 A 
ATOM      2  C   UNL     1       2.735   5.963  19.697  0.00  0.00    +0.000 A 
ATOM      3  N   UNL     1       2.087   7.109  19.447  0.00  0.00    +0.000 NA
ATOM      4  N   UNL     1       2.796   7.683  18.450  0.00  0.00    +0.000 N 
ATOM      5  C   UNL     1       3.824   6.886  18.011  0.00  0.00    +0.000 A 
ENDROOT
BRANCH   1   6
ATOM      6  S   UNL     1       5.105   4.616  18.839  0.00  0.00    +0.000 S 
ATOM      7  O   UNL     1       4.489   3.377  19.281  0.00  0.00    +0.000 OA
ATOM      8  O   UNL     1       6.206   5.201  19.584  0.00  0.00    +0.000 OA
BRANCH   6  12
ATOM      9  C   UNL     1       6.503   4.284  14.504  0.00  0.00    +0.000 A 
ATOM     10  C   UNL     1       7.342   4.808  15.493  0.00  0.00    +0.000 A 
ATOM     11  C   UNL     1       6.920   4.880  16.818  0.00  0.00    +0.000 A 
ATOM     12  C   UNL     1       5.649   4.425  17.162  0.00  0.00    +0.000 A 
ATOM     13  C   UNL     1       4.773   3.959  16.169  0.00  0.00    +0.000 A 
ATOM     14  C   UNL     1       5.211   3.875  14.838  0.00  0.00    +0.000 A 
BRANCH   9  16
ATOM     15  C   UNL     1       6.370   3.446  12.299  0.00  0.00    +0.000 C 
ATOM     16  O   UNL     1       7.037   4.274  13.244  0.00  0.00    +0.000 OA
ENDBRANCH   9  16
ENDBRANCH   6  12
ENDBRANCH   1   6
BRANCH   5  17
ATOM     17  N   UNL     1       4.633   7.237  16.969  0.00  0.00    +0.000 N 
ATOM     18  H   UNL     1       4.180   7.438  16.067  0.00  0.00    +0.000 HD
ATOM     19  H   UNL     1       5.299   7.995  17.155  0.00  0.00    +0.000 HD
ENDBRANCH   5  17
BRANCH   2  20
ATOM     20  S   UNL     1       2.118   4.895  20.946  0.00  0.00    +0.000 S 
ATOM     21  C   UNL     1       0.948   3.837  20.037  0.00  0.00    +0.000 C 
ENDBRANCH   2  20
BRANCH   4  22
ATOM     22  C   UNL     1       2.338   8.948  17.903  0.00  0.00    +0.000 C 
BRANCH  22  23
ATOM     23  C   UNL     1       1.162   9.526  18.663  0.00  0.00    +0.000 C 
ATOM     24  O   UNL     1       0.928   9.202  19.828  0.00  0.00    +0.000 OA
ATOM     25  N   UNL     1       0.388  10.426  17.935  0.00  0.00    +0.000 N 
ATOM     26  H   UNL     1       0.361  10.271  16.934  0.00  0.00    +0.000 HD
BRANCH  25  27
ATOM     27  C   UNL     1      -0.745  11.055  18.510  0.00  0.00    +0.000 A 
ATOM     28  C   UNL     1      -0.576  11.928  19.593  0.00  0.00    +0.000 A 
ATOM     29  C   UNL     1      -1.676  12.555  20.174  0.00  0.00    +0.000 A 
ATOM     30  C   UNL     1      -2.954  12.299  19.687  0.00  0.00    +0.000 A 
ATOM     31  C   UNL     1      -3.149  11.431  18.600  0.00  0.00    +0.000 A 
ATOM     32  C   UNL     1      -4.557  11.165  18.141  0.00  0.00    +0.000 C 
ATOM     33  C   UNL     1      -2.033  10.810  17.988  0.00  0.00    +0.000 A 
ATOM     34  C   UNL     1      -2.215   9.884  16.813  0.00  0.00    +0.000 C 
ENDBRANCH  25  27
ENDBRANCH  22  23
ENDBRANCH   4  22
TORSDOF 8
ENDMDL
MODEL 8
REMARK VINA RESULT:      -7.1      1.219      1.499
REMARK  Name = 
REMARK  12 active torsions:
REMARK  status: ('A' for Active; 'I' for Inactive)
REMARK    1  A    between atoms: C_1  and  O_2
REMARK    2  A    between atoms: O_2  and  C_3
REMARK    3  A    between atoms: C_6  and  S_7
REMARK    4  A    between atoms: S_7  and  C_10
REMARK    5  A    between atoms: C_11  and  S_12
REMARK    6  A    between atoms: S_12  and  C_13
REMARK    7  A    between atoms: N_15  and  C_16
REMARK    8  A    between atoms: C_16  and  C_17
REMARK    9  A    between atoms: N_19  and  C_20
REMARK   10  A    between atoms: C_24  and  C_25
REMARK   11  A    between atoms: C_26  and  C_27
REMARK   12  A    between atoms: C_28  and  N_29
REMARK                            x       y       z     vdW  Elec       q    Type
REMARK                         _______ _______ _______ _____ _____    ______ ____
ROOT
ATOM      1  C   UNL     1       0.699  10.891  19.506  0.00  0.00    +0.000 A 
ATOM      2  C   UNL     1       0.518   9.671  20.206  0.00  0.00    +0.000 A 
ATOM      3  N   UNL     1       1.240   8.678  19.670  0.00  0.00    +0.000 NA
ATOM      4  N   UNL     1       1.880   9.255  18.628  0.00  0.00    +0.000 N 
ATOM      5  C   UNL     1       1.643  10.605  18.550  0.00  0.00    +0.000 A 
ENDROOT
BRANCH   1   6
ATOM      6  S   UNL     1      -0.076  12.414  19.668  0.00  0.00    +0.000 S 
ATOM      7  O   UNL     1       0.473  13.264  18.625  0.00  0.00    +0.000 OA
ATOM      8  O   UNL     1       0.070  12.774  21.067  0.00  0.00    +0.000 OA
BRANCH   6  12
ATOM      9  C   UNL     1      -4.525  11.903  18.773  0.00  0.00    +0.000 A 
ATOM     10  C   UNL     1      -3.554  11.447  17.876  0.00  0.00    +0.000 A 
ATOM     11  C   UNL     1      -2.199  11.580  18.169  0.00  0.00    +0.000 A 
ATOM     12  C   UNL     1      -1.808  12.174  19.367  0.00  0.00    +0.000 A 
ATOM     13  C   UNL     1      -2.771  12.695  20.245  0.00  0.00    +0.000 A 
ATOM     14  C   UNL     1      -4.135  12.545  19.950  0.00  0.00    +0.000 A 
BRANCH   9  16
ATOM     15  C   UNL     1      -6.253  12.552  17.298  0.00  0.00    +0.000 C 
ATOM     16  O   UNL     1      -5.817  11.716  18.363  0.00  0.00    +0.000 OA
ENDBRANCH   9  16
ENDBRANCH   6  12
ENDBRANCH   1   6
BRANCH   5  17
ATOM     17  N   UNL     1       2.236  11.402  17.614  0.00  0.00    +0.000 N 
ATOM     18  H   UNL     1       1.628  12.049  17.094  0.00  0.00    +0.000 HD
ATOM     19  H   UNL     1       3.053  11.934  17.931  0.00  0.00    +0.000 HD
ENDBRANCH   5  17
BRANCH   2  20
ATOM     20  S   UNL     1      -0.473   9.334  21.615  0.00  0.00    +0.000 S 
ATOM     21  C   UNL     1       0.724   9.418  22.985  0.00  0.00    +0.000 C 
ENDBRANCH   2  20
BRANCH   4  22
ATOM     22  C   UNL     1       2.794   8.452  17.836  0.00  0.00    +0.000 C 
BRANCH  22  23
ATOM     23  C   UNL     1       2.695   6.971  18.143  0.00  0.00    +0.000 C 
ATOM     24  O   UNL     1       1.929   6.236  17.517  0.00  0.00    +0.000 OA
ATOM     25  N   UNL     1       3.521   6.538  19.175  0.00  0.00    +0.000 N 
ATOM     26  H   UNL     1       3.726   7.225  19.892  0.00  0.00    +0.000 HD
BRANCH  25  27
ATOM     27  C   UNL     1       3.544   5.178  19.577  0.00  0.00    +0.000 A 
ATOM     28  C   UNL     1       4.566   4.338  19.115  0.00  0.00    +0.000 A 
ATOM     29  C   UNL     1       4.607   2.999  19.495  0.00  0.00    +0.000 A 
ATOM     30  C   UNL     1       3.616   2.486  20.328  0.00  0.00    +0.000 A 
ATOM     31  C   UNL     1       2.584   3.309  20.808  0.00  0.00    +0.000 A 
ATOM     32  C   UNL     1       1.521   2.691  21.675  0.00  0.00    +0.000 C 
ATOM     33  C   UNL     1       2.551   4.678  20.445  0.00  0.00    +0.000 A 
ATOM     34  C   UNL     1       1.460   5.584  20.957  0.00  0.00    +0.000 C 
ENDBRANCH  25  27
ENDBRANCH  22  23
ENDBRANCH   4  22
TORSDOF 8
ENDMDL
MODEL 9
REMARK VINA RESULT:      -7.0      3.698      9.202
REMARK  Name = 
REMARK  12 active torsions:
REMARK  status: ('A' for Active; 'I' for Inactive)
REMARK    1  A    between atoms: C_1  and  O_2
REMARK    2  A    between atoms: O_2  and  C_3
REMARK    3  A    between atoms: C_6  and  S_7
REMARK    4  A    between atoms: S_7  and  C_10
REMARK    5  A    between atoms: C_11  and  S_12
REMARK    6  A    between atoms: S_12  and  C_13
REMARK    7  A    between atoms: N_15  and  C_16
REMARK    8  A    between atoms: C_16  and  C_17
REMARK    9  A    between atoms: N_19  and  C_20
REMARK   10  A    between atoms: C_24  and  C_25
REMARK   11  A    between atoms: C_26  and  C_27
REMARK   12  A    between atoms: C_28  and  N_29
REMARK                            x       y       z     vdW  Elec       q    Type
REMARK                         _______ _______ _______ _____ _____    ______ ____
ROOT
ATOM      1  C   UNL     1       3.933   5.276  19.102  0.00  0.00    +0.000 A 
ATOM      2  C   UNL     1       2.752   4.954  19.818  0.00  0.00    +0.000 A 
ATOM      3  N   UNL     1       1.848   5.941  19.757  0.00  0.00    +0.000 NA
ATOM      4  N   UNL     1       2.447   6.896  19.010  0.00  0.00    +0.000 N 
ATOM      5  C   UNL     1       3.668   6.497  18.529  0.00  0.00    +0.000 A 
ENDROOT
BRANCH   1   6
ATOM      6  S   UNL     1       5.435   4.456  18.970  0.00  0.00    +0.000 S 
ATOM      7  O   UNL     1       5.210   3.111  19.473  0.00  0.00    +0.000 OA
ATOM      8  O   UNL     1       6.408   5.328  19.603  0.00  0.00    +0.000 OA
BRANCH   6  12
ATOM      9  C   UNL     1       6.490   4.386  14.528  0.00  0.00    +0.000 A 
ATOM     10  C   UNL     1       7.367   4.940  15.466  0.00  0.00    +0.000 A 
ATOM     11  C   UNL     1       7.052   4.932  16.823  0.00  0.00    +0.000 A 
ATOM     12  C   UNL     1       5.852   4.366  17.248  0.00  0.00    +0.000 A 
ATOM     13  C   UNL     1       4.934   3.868  16.311  0.00  0.00    +0.000 A 
ATOM     14  C   UNL     1       5.265   3.866  14.946  0.00  0.00    +0.000 A 
BRANCH   9  16
ATOM     15  C   UNL     1       6.301   3.555  12.324  0.00  0.00    +0.000 C 
ATOM     16  O   UNL     1       6.918   4.462  13.230  0.00  0.00    +0.000 OA
ENDBRANCH   9  16
ENDBRANCH   6  12
ENDBRANCH   1   6
BRANCH   5  17
ATOM     17  N   UNL     1       4.422   7.276  17.701  0.00  0.00    +0.000 N 
ATOM     18  H   UNL     1       5.364   7.535  18.025  0.00  0.00    +0.000 HD
ATOM     19  H   UNL     1       4.509   6.948  16.733  0.00  0.00    +0.000 HD
ENDBRANCH   5  17
BRANCH   2  20
ATOM     20  S   UNL     1       2.354   3.494  20.708  0.00  0.00    +0.000 S 
ATOM     21  C   UNL     1       1.682   2.399  19.417  0.00  0.00    +0.000 C 
ENDBRANCH   2  20
BRANCH   4  22
ATOM     22  C   UNL     1       1.714   8.114  18.713  0.00  0.00    +0.000 C 
BRANCH  22  23
ATOM     23  C   UNL     1       1.298   8.870  19.958  0.00  0.00    +0.000 C 
ATOM     24  O   UNL     1       1.810   8.633  21.054  0.00  0.00    +0.000 OA
ATOM     25  N   UNL     1       0.305   9.823  19.752  0.00  0.00    +0.000 N 
ATOM     26  H   UNL     1      -0.344   9.625  18.999  0.00  0.00    +0.000 HD
BRANCH  25  27
ATOM     27  C   UNL     1      -0.188  10.615  20.820  0.00  0.00    +0.000 A 
ATOM     28  C   UNL     1      -0.636   9.992  21.993  0.00  0.00    +0.000 A 
ATOM     29  C   UNL     1      -1.126  10.750  23.054  0.00  0.00    +0.000 A 
ATOM     30  C   UNL     1      -1.188  12.136  22.942  0.00  0.00    +0.000 A 
ATOM     31  C   UNL     1      -0.742  12.784  21.778  0.00  0.00    +0.000 A 
ATOM     32  C   UNL     1      -0.866  14.282  21.701  0.00  0.00    +0.000 C 
ATOM     33  C   UNL     1      -0.218  12.021  20.706  0.00  0.00    +0.000 A 
ATOM     34  C   UNL     1       0.278  12.694  19.452  0.00  0.00    +0.000 C 
ENDBRANCH  25  27
ENDBRANCH  22  23
ENDBRANCH   4  22
TORSDOF 8
ENDMDL
