MODEL 1
REMARK VINA RESULT:      -7.3      0.000      0.000
REMARK  Name = 
REMARK  6 active torsions:
REMARK  status: ('A' for Active; 'I' for Inactive)
REMARK    1  A    between atoms: C_1  and  C_2
REMARK    2  A    between atoms: N_3  and  C_4
REMARK    3  A    between atoms: N_11  and  C_12
REMARK    4  A    between atoms: C_12  and  C_13
REMARK    5  A    between atoms: C_13  and  C_15
REMARK    6  A    between atoms: C_18  and  N_19
REMARK                            x       y       z     vdW  Elec       q    Type
REMARK                         _______ _______ _______ _____ _____    ______ ____
ROOT
ATOM      1  C   UNL     1       2.116   6.857  17.600  0.00  0.00    +0.000 C 
ENDROOT
BRANCH   1  12
ATOM      2  C   UNL     1       1.613   4.335  19.176  0.00  0.00    +0.000 C 
ATOM      3  C   UNL     1       2.972   4.852  18.812  0.00  0.00    +0.000 A 
ATOM      4  N   UNL     1       4.166   4.305  19.119  0.00  0.00    +0.000 N 
ATOM      5  C   UNL     1       4.404   3.070  19.870  0.00  0.00    +0.000 C 
ATOM      6  C   UNL     1       5.191   5.065  18.567  0.00  0.00    +0.000 A 
ATOM      7  C   UNL     1       6.573   4.893  18.616  0.00  0.00    +0.000 A 
ATOM      8  C   UNL     1       7.339   5.836  17.925  0.00  0.00    +0.000 A 
ATOM      9  C   UNL     1       6.736   6.882  17.207  0.00  0.00    +0.000 A 
ATOM     10  C   UNL     1       5.342   7.043  17.155  0.00  0.00    +0.000 A 
ATOM     11  C   UNL     1       4.582   6.119  17.875  0.00  0.00    +0.000 A 
ATOM     12  N   UNL     1       3.207   5.990  18.114  0.00  0.00    +0.000 N 
ENDBRANCH   1  12
BRANCH   1  13
ATOM     13  C   UNL     1       2.138   8.307  18.050  0.00  0.00    +0.000 C 
ATOM     14  O   UNL     1       2.675   9.176  17.365  0.00  0.00    +0.000 OA
BRANCH  13  15
ATOM     15  C   UNL     1       1.477   8.697  19.326  0.00  0.00    +0.000 A 
ATOM     16  C   UNL     1       1.680   7.990  20.517  0.00  0.00    +0.000 A 
ATOM     17  C   UNL     1       1.101   8.437  21.709  0.00  0.00    +0.000 A 
ATOM     18  C   UNL     1       0.304   9.592  21.708  0.00  0.00    +0.000 A 
ATOM     19  C   UNL     1       0.070  10.290  20.519  0.00  0.00    +0.000 A 
ATOM     20  C   UNL     1       0.661   9.841  19.331  0.00  0.00    +0.000 A 
BRANCH  18  21
ATOM     21  N   UNL     1      -0.260  10.081  22.973  0.00  0.00    +0.000 N 
ATOM     22  O   UNL     1      -1.213  10.869  22.905  0.00  0.00    +0.000 OA
ATOM     23  O   UNL     1       0.247   9.670  24.025  0.00  0.00    +0.000 OA
ENDBRANCH  18  21
ENDBRANCH  13  15
ENDBRANCH   1  13
TORSDOF 4
ENDMDL
MODEL 2
REMARK VINA RESULT:      -7.2      1.523      3.314
REMARK  Name = 
REMARK  6 active torsions:
REMARK  status: ('A' for Active; 'I' for Inactive)
REMARK    1  A    between atoms: C_1  and  C_2
REMARK    2  A    between atoms: N_3  and  C_4
REMARK    3  A    between atoms: N_11  and  C_12
REMARK    4  A    between atoms: C_12  and  C_13
REMARK    5  A    between atoms: C_13  and  C_15
REMARK    6  A    between atoms: C_18  and  N_19
REMARK                            x       y       z     vdW  Elec       q    Type
REMARK                         _______ _______ _______ _____ _____    ______ ____
ROOT
ATOM      1  C   UNL     1       2.833   6.974  19.753  0.00  0.00    +0.000 C 
ENDROOT
BRANCH   1  12
ATOM      2  C   UNL     1       4.921   6.704  17.593  0.00  0.00    +0.000 C 
ATOM      3  C   UNL     1       3.931   5.637  17.955  0.00  0.00    +0.000 A 
ATOM      4  N   UNL     1       3.800   4.418  17.396  0.00  0.00    +0.000 N 
ATOM      5  C   UNL     1       4.606   3.852  16.313  0.00  0.00    +0.000 C 
ATOM      6  C   UNL     1       2.790   3.710  18.039  0.00  0.00    +0.000 A 
ATOM      7  C   UNL     1       2.301   2.424  17.813  0.00  0.00    +0.000 A 
ATOM      8  C   UNL     1       1.278   1.992  18.663  0.00  0.00    +0.000 A 
ATOM      9  C   UNL     1       0.794   2.810  19.698  0.00  0.00    +0.000 A 
ATOM     10  C   UNL     1       1.300   4.101  19.924  0.00  0.00    +0.000 A 
ATOM     11  C   UNL     1       2.295   4.541  19.051  0.00  0.00    +0.000 A 
ATOM     12  N   UNL     1       2.983   5.756  18.918  0.00  0.00    +0.000 N 
ENDBRANCH   1  12
BRANCH   1  13
ATOM     13  C   UNL     1       1.909   8.052  19.215  0.00  0.00    +0.000 C 
ATOM     14  O   UNL     1       1.776   8.230  18.006  0.00  0.00    +0.000 OA
BRANCH  13  15
ATOM     15  C   UNL     1       1.124   8.894  20.161  0.00  0.00    +0.000 A 
ATOM     16  C   UNL     1       1.020   8.585  21.523  0.00  0.00    +0.000 A 
ATOM     17  C   UNL     1       0.338   9.447  22.389  0.00  0.00    +0.000 A 
ATOM     18  C   UNL     1      -0.252  10.618  21.890  0.00  0.00    +0.000 A 
ATOM     19  C   UNL     1      -0.179  10.921  20.526  0.00  0.00    +0.000 A 
ATOM     20  C   UNL     1       0.514  10.059  19.666  0.00  0.00    +0.000 A 
BRANCH  18  21
ATOM     21  N   UNL     1      -0.924  11.539  22.815  0.00  0.00    +0.000 N 
ATOM     22  O   UNL     1      -0.437  12.670  22.947  0.00  0.00    +0.000 OA
ATOM     23  O   UNL     1      -1.936  11.130  23.399  0.00  0.00    +0.000 OA
ENDBRANCH  18  21
ENDBRANCH  13  15
ENDBRANCH   1  13
TORSDOF 4
ENDMDL
MODEL 3
REMARK VINA RESULT:      -7.2      1.572      1.812
REMARK  Name = 
REMARK  6 active torsions:
REMARK  status: ('A' for Active; 'I' for Inactive)
REMARK    1  A    between atoms: C_1  and  C_2
REMARK    2  A    between atoms: N_3  and  C_4
REMARK    3  A    between atoms: N_11  and  C_12
REMARK    4  A    between atoms: C_12  and  C_13
REMARK    5  A    between atoms: C_13  and  C_15
REMARK    6  A    between atoms: C_18  and  N_19
REMARK                            x       y       z     vdW  Elec       q    Type
REMARK                         _______ _______ _______ _____ _____    ______ ____
ROOT
ATOM      1  C   UNL     1       2.616   6.771  19.987  0.00  0.00    +0.000 C 
ENDROOT
BRANCH   1  12
ATOM      2  C   UNL     1       1.132   4.144  20.039  0.00  0.00    +0.000 C 
ATOM      3  C   UNL     1       2.240   4.475  19.084  0.00  0.00    +0.000 A 
ATOM      4  N   UNL     1       2.755   3.684  18.121  0.00  0.00    +0.000 N 
ATOM      5  C   UNL     1       2.337   2.323  17.780  0.00  0.00    +0.000 C 
ATOM      6  C   UNL     1       3.743   4.370  17.424  0.00  0.00    +0.000 A 
ATOM      7  C   UNL     1       4.545   3.967  16.357  0.00  0.00    +0.000 A 
ATOM      8  C   UNL     1       5.440   4.919  15.861  0.00  0.00    +0.000 A 
ATOM      9  C   UNL     1       5.504   6.214  16.402  0.00  0.00    +0.000 A 
ATOM     10  C   UNL     1       4.686   6.614  17.471  0.00  0.00    +0.000 A 
ATOM     11  C   UNL     1       3.819   5.650  17.987  0.00  0.00    +0.000 A 
ATOM     12  N   UNL     1       2.919   5.649  19.061  0.00  0.00    +0.000 N 
ENDBRANCH   1  12
BRANCH   1  13
ATOM     13  C   UNL     1       1.852   7.943  19.399  0.00  0.00    +0.000 C 
ATOM     14  O   UNL     1       1.855   8.162  18.189  0.00  0.00    +0.000 OA
BRANCH  13  15
ATOM     15  C   UNL     1       1.060   8.834  20.293  0.00  0.00    +0.000 A 
ATOM     16  C   UNL     1       0.783   8.497  21.624  0.00  0.00    +0.000 A 
ATOM     17  C   UNL     1       0.103   9.398  22.449  0.00  0.00    +0.000 A 
ATOM     18  C   UNL     1      -0.312  10.638  21.940  0.00  0.00    +0.000 A 
ATOM     19  C   UNL     1      -0.066  10.972  20.604  0.00  0.00    +0.000 A 
ATOM     20  C   UNL     1       0.624  10.069  19.785  0.00  0.00    +0.000 A 
BRANCH  18  21
ATOM     21  N   UNL     1      -0.983  11.597  22.829  0.00  0.00    +0.000 N 
ATOM     22  O   UNL     1      -0.476  12.721  22.940  0.00  0.00    +0.000 OA
ATOM     23  O   UNL     1      -2.013  11.222  23.404  0.00  0.00    +0.000 OA
ENDBRANCH  18  21
ENDBRANCH  13  15
ENDBRANCH   1  13
TORSDOF 4
ENDMDL
MODEL 4
REMARK VINA RESULT:      -7.2      1.552      2.026
REMARK  Name = 
REMARK  6 active torsions:
REMARK  status: ('A' for Active; 'I' for Inactive)
REMARK    1  A    between atoms: C_1  and  C_2
REMARK    2  A    between atoms: N_3  and  C_4
REMARK    3  A    between atoms: N_11  and  C_12
REMARK    4  A    between atoms: C_12  and  C_13
REMARK    5  A    between atoms: C_13  and  C_15
REMARK    6  A    between atoms: C_18  and  N_19
REMARK                            x       y       z     vdW  Elec       q    Type
REMARK                         _______ _______ _______ _____ _____    ______ ____
ROOT
ATOM      1  C   UNL     1       2.573   6.729  19.932  0.00  0.00    +0.000 C 
ENDROOT
BRANCH   1  12
ATOM      2  C   UNL     1       1.144   4.071  19.945  0.00  0.00    +0.000 C 
ATOM      3  C   UNL     1       2.257   4.433  19.007  0.00  0.00    +0.000 A 
ATOM      4  N   UNL     1       2.800   3.661  18.044  0.00  0.00    +0.000 N 
ATOM      5  C   UNL     1       2.416   2.294  17.688  0.00  0.00    +0.000 C 
ATOM      6  C   UNL     1       3.783   4.373  17.365  0.00  0.00    +0.000 A 
ATOM      7  C   UNL     1       4.605   3.995  16.305  0.00  0.00    +0.000 A 
ATOM      8  C   UNL     1       5.487   4.969  15.828  0.00  0.00    +0.000 A 
ATOM      9  C   UNL     1       5.517   6.261  16.380  0.00  0.00    +0.000 A 
ATOM     10  C   UNL     1       4.677   6.636  17.442  0.00  0.00    +0.000 A 
ATOM     11  C   UNL     1       3.824   5.650  17.939  0.00  0.00    +0.000 A 
ATOM     12  N   UNL     1       2.911   5.621  19.002  0.00  0.00    +0.000 N 
ENDBRANCH   1  12
BRANCH   1  13
ATOM     13  C   UNL     1       1.851   7.920  19.329  0.00  0.00    +0.000 C 
ATOM     14  O   UNL     1       1.785   8.073  18.111  0.00  0.00    +0.000 OA
BRANCH  13  15
ATOM     15  C   UNL     1       1.186   8.911  20.220  0.00  0.00    +0.000 A 
ATOM     16  C   UNL     1       0.597  10.081  19.725  0.00  0.00    +0.000 A 
ATOM     17  C   UNL     1      -0.085  10.944  20.589  0.00  0.00    +0.000 A 
ATOM     18  C   UNL     1      -0.170  10.643  21.956  0.00  0.00    +0.000 A 
ATOM     19  C   UNL     1       0.440   9.492  22.466  0.00  0.00    +0.000 A 
ATOM     20  C   UNL     1       1.113   8.626  21.594  0.00  0.00    +0.000 A 
BRANCH  18  21
ATOM     21  N   UNL     1      -0.930  11.531  22.847  0.00  0.00    +0.000 N 
ATOM     22  O   UNL     1      -0.504  12.683  22.999  0.00  0.00    +0.000 OA
ATOM     23  O   UNL     1      -1.948  11.073  23.382  0.00  0.00    +0.000 OA
ENDBRANCH  18  21
ENDBRANCH  13  15
ENDBRANCH   1  13
TORSDOF 4
ENDMDL
MODEL 5
REMARK VINA RESULT:      -7.1      0.293      1.236
REMARK  Name = 
REMARK  6 active torsions:
REMARK  status: ('A' for Active; 'I' for Inactive)
REMARK    1  A    between atoms: C_1  and  C_2
REMARK    2  A    between atoms: N_3  and  C_4
REMARK    3  A    between atoms: N_11  and  C_12
REMARK    4  A    between atoms: C_12  and  C_13
REMARK    5  A    between atoms: C_13  and  C_15
REMARK    6  A    between atoms: C_18  and  N_19
REMARK                            x       y       z     vdW  Elec       q    Type
REMARK                         _______ _______ _______ _____ _____    ______ ____
ROOT
ATOM      1  C   UNL     1       1.952   6.736  17.716  0.00  0.00    +0.000 C 
ENDROOT
BRANCH   1  12
ATOM      2  C   UNL     1       1.575   4.289  19.440  0.00  0.00    +0.000 C 
ATOM      3  C   UNL     1       2.892   4.740  18.881  0.00  0.00    +0.000 A 
ATOM      4  N   UNL     1       4.096   4.157  19.049  0.00  0.00    +0.000 N 
ATOM      5  C   UNL     1       4.388   2.939  19.808  0.00  0.00    +0.000 C 
ATOM      6  C   UNL     1       5.064   4.857  18.338  0.00  0.00    +0.000 A 
ATOM      7  C   UNL     1       6.434   4.633  18.211  0.00  0.00    +0.000 A 
ATOM      8  C   UNL     1       7.134   5.522  17.390  0.00  0.00    +0.000 A 
ATOM      9  C   UNL     1       6.477   6.566  16.718  0.00  0.00    +0.000 A 
ATOM     10  C   UNL     1       5.095   6.779  16.844  0.00  0.00    +0.000 A 
ATOM     11  C   UNL     1       4.406   5.911  17.692  0.00  0.00    +0.000 A 
ATOM     12  N   UNL     1       3.071   5.844  18.114  0.00  0.00    +0.000 N 
ENDBRANCH   1  12
BRANCH   1  13
ATOM     13  C   UNL     1       2.110   8.208  18.053  0.00  0.00    +0.000 C 
ATOM     14  O   UNL     1       2.673   8.980  17.280  0.00  0.00    +0.000 OA
BRANCH  13  15
ATOM     15  C   UNL     1       1.550   8.740  19.327  0.00  0.00    +0.000 A 
ATOM     16  C   UNL     1       0.809   9.927  19.378  0.00  0.00    +0.000 A 
ATOM     17  C   UNL     1       0.236  10.347  20.583  0.00  0.00    +0.000 A 
ATOM     18  C   UNL     1       0.414   9.583  21.746  0.00  0.00    +0.000 A 
ATOM     19  C   UNL     1       1.178   8.412  21.713  0.00  0.00    +0.000 A 
ATOM     20  C   UNL     1       1.741   7.991  20.501  0.00  0.00    +0.000 A 
BRANCH  18  21
ATOM     21  N   UNL     1      -0.231  10.008  22.995  0.00  0.00    +0.000 N 
ATOM     22  O   UNL     1       0.294   9.651  24.058  0.00  0.00    +0.000 OA
ATOM     23  O   UNL     1      -1.254  10.700  22.907  0.00  0.00    +0.000 OA
ENDBRANCH  18  21
ENDBRANCH  13  15
ENDBRANCH   1  13
TORSDOF 4
ENDMDL
MODEL 6
REMARK VINA RESULT:      -7.1      1.493      3.458
REMARK  Name = 
REMARK  6 active torsions:
REMARK  status: ('A' for Active; 'I' for Inactive)
REMARK    1  A    between atoms: C_1  and  C_2
REMARK    2  A    between atoms: N_3  and  C_4
REMARK    3  A    between atoms: N_11  and  C_12
REMARK    4  A    between atoms: C_12  and  C_13
REMARK    5  A    between atoms: C_13  and  C_15
REMARK    6  A    between atoms: C_18  and  N_19
REMARK                            x       y       z     vdW  Elec       q    Type
REMARK                         _______ _______ _______ _____ _____    ______ ____
ROOT
ATOM      1  C   UNL     1       2.841   7.205  19.442  0.00  0.00    +0.000 C 
ENDROOT
BRANCH   1  12
ATOM      2  C   UNL     1       4.965   6.757  17.346  0.00  0.00    +0.000 C 
ATOM      3  C   UNL     1       3.970   5.723  17.781  0.00  0.00    +0.000 A 
ATOM      4  N   UNL     1       3.848   4.461  17.325  0.00  0.00    +0.000 N 
ATOM      5  C   UNL     1       4.672   3.807  16.306  0.00  0.00    +0.000 C 
ATOM      6  C   UNL     1       2.828   3.807  18.008  0.00  0.00    +0.000 A 
ATOM      7  C   UNL     1       2.343   2.506  17.883  0.00  0.00    +0.000 A 
ATOM      8  C   UNL     1       1.307   2.145  18.749  0.00  0.00    +0.000 A 
ATOM      9  C   UNL     1       0.806   3.047  19.704  0.00  0.00    +0.000 A 
ATOM     10  C   UNL     1       1.307   4.353  19.829  0.00  0.00    +0.000 A 
ATOM     11  C   UNL     1       2.317   4.720  18.938  0.00  0.00    +0.000 A 
ATOM     12  N   UNL     1       3.006   5.920  18.714  0.00  0.00    +0.000 N 
ENDBRANCH   1  12
BRANCH   1  13
ATOM     13  C   UNL     1       1.911   8.224  18.810  0.00  0.00    +0.000 C 
ATOM     14  O   UNL     1       1.787   8.301  17.589  0.00  0.00    +0.000 OA
BRANCH  13  15
ATOM     15  C   UNL     1       1.111   9.134  19.677  0.00  0.00    +0.000 A 
ATOM     16  C   UNL     1       0.318  10.161  19.150  0.00  0.00    +0.000 A 
ATOM     17  C   UNL     1      -0.477  10.940  19.996  0.00  0.00    +0.000 A 
ATOM     18  C   UNL     1      -0.473  10.699  21.378  0.00  0.00    +0.000 A 
ATOM     19  C   UNL     1       0.337   9.695  21.919  0.00  0.00    +0.000 A 
ATOM     20  C   UNL     1       1.124   8.912  21.065  0.00  0.00    +0.000 A 
BRANCH  18  21
ATOM     21  N   UNL     1      -1.349  11.491  22.252  0.00  0.00    +0.000 N 
ATOM     22  O   UNL     1      -1.186  11.379  23.474  0.00  0.00    +0.000 OA
ATOM     23  O   UNL     1      -2.189  12.223  21.712  0.00  0.00    +0.000 OA
ENDBRANCH  18  21
ENDBRANCH  13  15
ENDBRANCH   1  13
TORSDOF 4
ENDMDL
MODEL 7
REMARK VINA RESULT:      -7.0      2.697      3.927
REMARK  Name = 
REMARK  6 active torsions:
REMARK  status: ('A' for Active; 'I' for Inactive)
REMARK    1  A    between atoms: C_1  and  C_2
REMARK    2  A    between atoms: N_3  and  C_4
REMARK    3  A    between atoms: N_11  and  C_12
REMARK    4  A    between atoms: C_12  and  C_13
REMARK    5  A    between atoms: C_13  and  C_15
REMARK    6  A    between atoms: C_18  and  N_19
REMARK                            x       y       z     vdW  Elec       q    Type
REMARK                         _______ _______ _______ _____ _____    ______ ____
ROOT
ATOM      1  C   UNL     1       4.000   3.394  17.794  0.00  0.00    +0.000 C 
ENDROOT
BRANCH   1  12
ATOM      2  C   UNL     1       5.653   5.227  19.528  0.00  0.00    +0.000 C 
ATOM      3  C   UNL     1       5.858   5.039  18.055  0.00  0.00    +0.000 A 
ATOM      4  N   UNL     1       6.778   5.639  17.273  0.00  0.00    +0.000 N 
ATOM      5  C   UNL     1       7.797   6.604  17.690  0.00  0.00    +0.000 C 
ATOM      6  C   UNL     1       6.668   5.170  15.968  0.00  0.00    +0.000 A 
ATOM      7  C   UNL     1       7.396   5.494  14.825  0.00  0.00    +0.000 A 
ATOM      8  C   UNL     1       7.046   4.815  13.654  0.00  0.00    +0.000 A 
ATOM      9  C   UNL     1       6.030   3.845  13.649  0.00  0.00    +0.000 A 
ATOM     10  C   UNL     1       5.308   3.517  14.808  0.00  0.00    +0.000 A 
ATOM     11  C   UNL     1       5.636   4.223  15.967  0.00  0.00    +0.000 A 
ATOM     12  N   UNL     1       5.113   4.226  17.267  0.00  0.00    +0.000 N 
ENDBRANCH   1  12
BRANCH   1  13
ATOM     13  C   UNL     1       2.622   4.029  17.788  0.00  0.00    +0.000 C 
ATOM     14  O   UNL     1       1.693   3.525  17.160  0.00  0.00    +0.000 OA
BRANCH  13  15
ATOM     15  C   UNL     1       2.374   5.268  18.577  0.00  0.00    +0.000 A 
ATOM     16  C   UNL     1       2.510   6.546  18.021  0.00  0.00    +0.000 A 
ATOM     17  C   UNL     1       2.192   7.679  18.776  0.00  0.00    +0.000 A 
ATOM     18  C   UNL     1       1.745   7.536  20.098  0.00  0.00    +0.000 A 
ATOM     19  C   UNL     1       1.633   6.266  20.674  0.00  0.00    +0.000 A 
ATOM     20  C   UNL     1       1.945   5.135  19.909  0.00  0.00    +0.000 A 
BRANCH  18  21
ATOM     21  N   UNL     1       1.367   8.730  20.866  0.00  0.00    +0.000 N 
ATOM     22  O   UNL     1       1.458   8.666  22.099  0.00  0.00    +0.000 OA
ATOM     23  O   UNL     1       0.988   9.724  20.233  0.00  0.00    +0.000 OA
ENDBRANCH  18  21
ENDBRANCH  13  15
ENDBRANCH   1  13
TORSDOF 4
ENDMDL
MODEL 8
REMARK VINA RESULT:      -7.0      3.952      6.119
REMARK  Name = 
REMARK  6 active torsions:
REMARK  status: ('A' for Active; 'I' for Inactive)
REMARK    1  A    between atoms: C_1  and  C_2
REMARK    2  A    between atoms: N_3  and  C_4
REMARK    3  A    between atoms: N_11  and  C_12
REMARK    4  A    between atoms: C_12  and  C_13
REMARK    5  A    between atoms: C_13  and  C_15
REMARK    6  A    between atoms: C_18  and  N_19
REMARK                            x       y       z     vdW  Elec       q    Type
REMARK                         _______ _______ _______ _____ _____    ______ ____
ROOT
ATOM      1  C   UNL     1       3.661   3.843  16.640  0.00  0.00    +0.000 C 
ENDROOT
BRANCH   1  12
ATOM      2  C   UNL     1       3.560   1.653  18.713  0.00  0.00    +0.000 C 
ATOM      3  C   UNL     1       3.136   3.071  18.954  0.00  0.00    +0.000 A 
ATOM      4  N   UNL     1       2.647   3.597  20.095  0.00  0.00    +0.000 N 
ATOM      5  C   UNL     1       2.430   2.902  21.365  0.00  0.00    +0.000 C 
ATOM      6  C   UNL     1       2.409   4.957  19.925  0.00  0.00    +0.000 A 
ATOM      7  C   UNL     1       1.912   5.907  20.815  0.00  0.00    +0.000 A 
ATOM      8  C   UNL     1       1.813   7.216  20.333  0.00  0.00    +0.000 A 
ATOM      9  C   UNL     1       2.219   7.546  19.029  0.00  0.00    +0.000 A 
ATOM     10  C   UNL     1       2.728   6.584  18.142  0.00  0.00    +0.000 A 
ATOM     11  C   UNL     1       2.791   5.272  18.615  0.00  0.00    +0.000 A 
ATOM     12  N   UNL     1       3.169   4.058  18.024  0.00  0.00    +0.000 N 
ENDBRANCH   1  12
BRANCH   1  13
ATOM     13  C   UNL     1       5.161   3.940  16.433  0.00  0.00    +0.000 C 
ATOM     14  O   UNL     1       5.774   3.076  15.810  0.00  0.00    +0.000 OA
BRANCH  13  15
ATOM     15  C   UNL     1       5.907   5.114  16.968  0.00  0.00    +0.000 A 
ATOM     16  C   UNL     1       6.856   4.991  17.990  0.00  0.00    +0.000 A 
ATOM     17  C   UNL     1       7.589   6.107  18.407  0.00  0.00    +0.000 A 
ATOM     18  C   UNL     1       7.365   7.355  17.806  0.00  0.00    +0.000 A 
ATOM     19  C   UNL     1       6.399   7.495  16.804  0.00  0.00    +0.000 A 
ATOM     20  C   UNL     1       5.675   6.372  16.385  0.00  0.00    +0.000 A 
BRANCH  18  21
ATOM     21  N   UNL     1       8.174   8.511  18.218  0.00  0.00    +0.000 N 
ATOM     22  O   UNL     1       7.965   9.586  17.642  0.00  0.00    +0.000 OA
ATOM     23  O   UNL     1       9.007   8.337  19.117  0.00  0.00    +0.000 OA
ENDBRANCH  18  21
ENDBRANCH  13  15
ENDBRANCH   1  13
TORSDOF 4
ENDMDL
MODEL 9
REMARK VINA RESULT:      -7.0      0.792      2.860
REMARK  Name = 
REMARK  6 active torsions:
REMARK  status: ('A' for Active; 'I' for Inactive)
REMARK    1  A    between atoms: C_1  and  C_2
REMARK    2  A    between atoms: N_3  and  C_4
REMARK    3  A    between atoms: N_11  and  C_12
REMARK    4  A    between atoms: C_12  and  C_13
REMARK    5  A    between atoms: C_13  and  C_15
REMARK    6  A    between atoms: C_18  and  N_19
REMARK                            x       y       z     vdW  Elec       q    Type
REMARK                         _______ _______ _______ _____ _____    ______ ____
ROOT
ATOM      1  C   UNL     1       1.848   6.972  17.571  0.00  0.00    +0.000 C 
ENDROOT
BRANCH   1  12
ATOM      2  C   UNL     1       4.760   6.742  16.815  0.00  0.00    +0.000 C 
ATOM      3  C   UNL     1       4.059   5.836  17.784  0.00  0.00    +0.000 A 
ATOM      4  N   UNL     1       4.585   4.794  18.458  0.00  0.00    +0.000 N 
ATOM      5  C   UNL     1       5.969   4.317  18.405  0.00  0.00    +0.000 C 
ATOM      6  C   UNL     1       3.621   4.231  19.286  0.00  0.00    +0.000 A 
ATOM      7  C   UNL     1       3.699   3.148  20.161  0.00  0.00    +0.000 A 
ATOM      8  C   UNL     1       2.537   2.846  20.878  0.00  0.00    +0.000 A 
ATOM      9  C   UNL     1       1.369   3.614  20.732  0.00  0.00    +0.000 A 
ATOM     10  C   UNL     1       1.302   4.709  19.855  0.00  0.00    +0.000 A 
ATOM     11  C   UNL     1       2.453   4.985  19.115  0.00  0.00    +0.000 A 
ATOM     12  N   UNL     1       2.749   5.927  18.120  0.00  0.00    +0.000 N 
ENDBRANCH   1  12
BRANCH   1  13
ATOM     13  C   UNL     1       2.026   8.375  18.122  0.00  0.00    +0.000 C 
ATOM     14  O   UNL     1       2.682   9.218  17.513  0.00  0.00    +0.000 OA
BRANCH  13  15
ATOM     15  C   UNL     1       1.376   8.754  19.408  0.00  0.00    +0.000 A 
ATOM     16  C   UNL     1       1.683   8.113  20.615  0.00  0.00    +0.000 A 
ATOM     17  C   UNL     1       1.106   8.553  21.810  0.00  0.00    +0.000 A 
ATOM     18  C   UNL     1       0.211   9.633  21.799  0.00  0.00    +0.000 A 
ATOM     19  C   UNL     1      -0.125  10.262  20.596  0.00  0.00    +0.000 A 
ATOM     20  C   UNL     1       0.463   9.822  19.403  0.00  0.00    +0.000 A 
BRANCH  18  21
ATOM     21  N   UNL     1      -0.352  10.118  23.067  0.00  0.00    +0.000 N 
ATOM     22  O   UNL     1       0.175   9.719  24.114  0.00  0.00    +0.000 OA
ATOM     23  O   UNL     1      -1.311  10.898  23.007  0.00  0.00    +0.000 OA
ENDBRANCH  18  21
ENDBRANCH  13  15
ENDBRANCH   1  13
TORSDOF 4
ENDMDL
