MODEL 1
REMARK VINA RESULT:      -8.3      0.000      0.000
REMARK  Name = 
REMARK  11 active torsions:
REMARK  status: ('A' for Active; 'I' for Inactive)
REMARK    1  A    between atoms: C_1  and  C_2
REMARK    2  A    between atoms: C_2  and  C_3
REMARK    3  A    between atoms: C_3  and  C_4
REMARK    4  A    between atoms: C_6  and  C_7
REMARK    5  A    between atoms: C_7  and  O_9
REMARK    6  A    between atoms: O_9  and  C_10
REMARK    7  A    between atoms: C_10  and  C_11
REMARK    8  A    between atoms: C_12  and  C_13
REMARK    9  A    between atoms: N_19  and  S_20
REMARK   10  A    between atoms: S_20  and  C_23
REMARK   11  A    between atoms: C_26  and  C_27
REMARK                            x       y       z     vdW  Elec       q    Type
REMARK                         _______ _______ _______ _____ _____    ______ ____
ROOT
ATOM      1  C   UNL     1       5.437   4.313  16.354  0.00  0.00    +0.000 C 
ATOM      2  C   UNL     1       4.145   3.595  16.536  0.00  0.00    +0.000 C 
ATOM      3  C   UNL     1       3.523   3.970  17.654  0.00  0.00    +0.000 C 
ATOM      4  C   UNL     1       4.259   5.046  18.386  0.00  0.00    +0.000 C 
ATOM      5  N   UNL     1       5.510   5.195  17.556  0.00  0.00    +0.000 NA
ENDROOT
BRANCH   4   6
ATOM      6  C   UNL     1       3.475   6.339  18.589  0.00  0.00    +0.000 A 
ATOM      7  C   UNL     1       2.721   6.513  19.764  0.00  0.00    +0.000 A 
ATOM      8  C   UNL     1       1.881   7.619  19.925  0.00  0.00    +0.000 A 
ATOM      9  C   UNL     1       1.780   8.572  18.916  0.00  0.00    +0.000 A 
ATOM     10  C   UNL     1       2.541   8.434  17.759  0.00  0.00    +0.000 A 
ATOM     11  C   UNL     1       3.395   7.339  17.604  0.00  0.00    +0.000 A 
ENDBRANCH   4   6
BRANCH   5  12
ATOM     12  S   UNL     1       6.980   5.186  18.407  0.00  0.00    +0.000 S 
ATOM     13  O   UNL     1       6.719   4.968  19.814  0.00  0.00    +0.000 OA
ATOM     14  O   UNL     1       7.909   4.343  17.694  0.00  0.00    +0.000 OA
BRANCH  12  15
ATOM     15  C   UNL     1       7.585   6.861  18.261  0.00  0.00    +0.000 A 
ATOM     16  C   UNL     1       7.052   7.739  17.317  0.00  0.00    +0.000 A 
ATOM     17  C   UNL     1       7.505   9.060  17.277  0.00  0.00    +0.000 A 
ATOM     18  C   UNL     1       8.472   9.507  18.190  0.00  0.00    +0.000 A 
ATOM     19  C   UNL     1       8.909  10.941  18.226  0.00  0.00    +0.000 C 
ATOM     20  C   UNL     1       8.990   8.616  19.137  0.00  0.00    +0.000 A 
ATOM     21  C   UNL     1       8.538   7.302  19.184  0.00  0.00    +0.000 A 
ENDBRANCH  12  15
ENDBRANCH   5  12
BRANCH   3  22
ATOM     22  C   UNL     1       2.251   3.385  18.091  0.00  0.00    +0.000 C 
ATOM     23  O   UNL     1       1.178   3.679  17.583  0.00  0.00    +0.000 OA
BRANCH  22  24
ATOM     24  O   UNL     1       2.444   2.498  19.093  0.00  0.00    +0.000 OA
BRANCH  24  25
ATOM     25  C   UNL     1       1.516   2.608  20.186  0.00  0.00    +0.000 C 
ATOM     26  C   UNL     1       2.196   3.207  21.404  0.00  0.00    +0.000 C 
ENDBRANCH  24  25
ENDBRANCH  22  24
ENDBRANCH   3  22
BRANCH   1  27
ATOM     27  C   UNL     1       5.465   5.132  15.054  0.00  0.00    +0.000 C 
BRANCH  27  29
ATOM     28  C   UNL     1       6.129   3.632  13.110  0.00  0.00    +0.000 C 
ATOM     29  C   UNL     1       6.581   4.690  14.101  0.00  0.00    +0.000 C 
ENDBRANCH  27  29
ENDBRANCH   1  27
TORSDOF 8
ENDMDL
MODEL 2
REMARK VINA RESULT:      -7.6      0.310      1.304
REMARK  Name = 
REMARK  11 active torsions:
REMARK  status: ('A' for Active; 'I' for Inactive)
REMARK    1  A    between atoms: C_1  and  C_2
REMARK    2  A    between atoms: C_2  and  C_3
REMARK    3  A    between atoms: C_3  and  C_4
REMARK    4  A    between atoms: C_6  and  C_7
REMARK    5  A    between atoms: C_7  and  O_9
REMARK    6  A    between atoms: O_9  and  C_10
REMARK    7  A    between atoms: C_10  and  C_11
REMARK    8  A    between atoms: C_12  and  C_13
REMARK    9  A    between atoms: N_19  and  S_20
REMARK   10  A    between atoms: S_20  and  C_23
REMARK   11  A    between atoms: C_26  and  C_27
REMARK                            x       y       z     vdW  Elec       q    Type
REMARK                         _______ _______ _______ _____ _____    ______ ____
ROOT
ATOM      1  C   UNL     1       5.496   4.231  16.306  0.00  0.00    +0.000 C 
ATOM      2  C   UNL     1       4.208   3.495  16.441  0.00  0.00    +0.000 C 
ATOM      3  C   UNL     1       3.528   3.877  17.522  0.00  0.00    +0.000 C 
ATOM      4  C   UNL     1       4.213   4.976  18.269  0.00  0.00    +0.000 C 
ATOM      5  N   UNL     1       5.499   5.133  17.496  0.00  0.00    +0.000 NA
ENDROOT
BRANCH   4   6
ATOM      6  C   UNL     1       3.400   6.259  18.414  0.00  0.00    +0.000 A 
ATOM      7  C   UNL     1       3.455   7.231  17.398  0.00  0.00    +0.000 A 
ATOM      8  C   UNL     1       2.837   8.475  17.556  0.00  0.00    +0.000 A 
ATOM      9  C   UNL     1       2.151   8.771  18.731  0.00  0.00    +0.000 A 
ATOM     10  C   UNL     1       2.060   7.812  19.735  0.00  0.00    +0.000 A 
ATOM     11  C   UNL     1       2.661   6.561  19.572  0.00  0.00    +0.000 A 
ENDBRANCH   4   6
BRANCH   5  12
ATOM     12  S   UNL     1       6.928   5.161  18.414  0.00  0.00    +0.000 S 
ATOM     13  O   UNL     1       6.614   4.878  19.799  0.00  0.00    +0.000 OA
ATOM     14  O   UNL     1       7.928   4.390  17.716  0.00  0.00    +0.000 OA
BRANCH  12  15
ATOM     15  C   UNL     1       7.455   6.867  18.356  0.00  0.00    +0.000 A 
ATOM     16  C   UNL     1       8.504   7.324  19.156  0.00  0.00    +0.000 A 
ATOM     17  C   UNL     1       8.932   8.648  19.036  0.00  0.00    +0.000 A 
ATOM     18  C   UNL     1       8.326   9.508  18.107  0.00  0.00    +0.000 A 
ATOM     19  C   UNL     1       8.825  10.906  17.897  0.00  0.00    +0.000 C 
ATOM     20  C   UNL     1       7.282   9.032  17.306  0.00  0.00    +0.000 A 
ATOM     21  C   UNL     1       6.857   7.713  17.418  0.00  0.00    +0.000 A 
ENDBRANCH  12  15
ENDBRANCH   5  12
BRANCH   3  22
ATOM     22  C   UNL     1       2.247   3.279  17.909  0.00  0.00    +0.000 C 
ATOM     23  O   UNL     1       1.171   3.702  17.511  0.00  0.00    +0.000 OA
BRANCH  22  24
ATOM     24  O   UNL     1       2.434   2.221  18.731  0.00  0.00    +0.000 OA
BRANCH  24  25
ATOM     25  C   UNL     1       1.547   2.168  19.862  0.00  0.00    +0.000 C 
ATOM     26  C   UNL     1       1.559   3.490  20.609  0.00  0.00    +0.000 C 
ENDBRANCH  24  25
ENDBRANCH  22  24
ENDBRANCH   3  22
BRANCH   1  27
ATOM     27  C   UNL     1       5.571   5.029  14.996  0.00  0.00    +0.000 C 
BRANCH  27  29
ATOM     28  C   UNL     1       6.129   3.733  12.880  0.00  0.00    +0.000 C 
ATOM     29  C   UNL     1       6.672   4.524  14.058  0.00  0.00    +0.000 C 
ENDBRANCH  27  29
ENDBRANCH   1  27
TORSDOF 8
ENDMDL
MODEL 3
REMARK VINA RESULT:      -6.8      0.756      1.038
REMARK  Name = 
REMARK  11 active torsions:
REMARK  status: ('A' for Active; 'I' for Inactive)
REMARK    1  A    between atoms: C_1  and  C_2
REMARK    2  A    between atoms: C_2  and  C_3
REMARK    3  A    between atoms: C_3  and  C_4
REMARK    4  A    between atoms: C_6  and  C_7
REMARK    5  A    between atoms: C_7  and  O_9
REMARK    6  A    between atoms: O_9  and  C_10
REMARK    7  A    between atoms: C_10  and  C_11
REMARK    8  A    between atoms: C_12  and  C_13
REMARK    9  A    between atoms: N_19  and  S_20
REMARK   10  A    between atoms: S_20  and  C_23
REMARK   11  A    between atoms: C_26  and  C_27
REMARK                            x       y       z     vdW  Elec       q    Type
REMARK                         _______ _______ _______ _____ _____    ______ ____
ROOT
ATOM      1  C   UNL     1       5.779   3.989  16.417  0.00  0.00    +0.000 C 
ATOM      2  C   UNL     1       4.601   3.121  16.698  0.00  0.00    +0.000 C 
ATOM      3  C   UNL     1       4.034   3.419  17.867  0.00  0.00    +0.000 C 
ATOM      4  C   UNL     1       4.695   4.575  18.547  0.00  0.00    +0.000 C 
ATOM      5  N   UNL     1       5.846   4.873  17.618  0.00  0.00    +0.000 NA
ENDROOT
BRANCH   4   6
ATOM      6  C   UNL     1       3.782   5.764  18.827  0.00  0.00    +0.000 A 
ATOM      7  C   UNL     1       3.092   5.832  20.052  0.00  0.00    +0.000 A 
ATOM      8  C   UNL     1       2.143   6.831  20.290  0.00  0.00    +0.000 A 
ATOM      9  C   UNL     1       1.866   7.780  19.310  0.00  0.00    +0.000 A 
ATOM     10  C   UNL     1       2.559   7.748  18.104  0.00  0.00    +0.000 A 
ATOM     11  C   UNL     1       3.522   6.762  17.872  0.00  0.00    +0.000 A 
ENDBRANCH   4   6
BRANCH   5  12
ATOM     12  S   UNL     1       7.373   5.039  18.344  0.00  0.00    +0.000 S 
ATOM     13  O   UNL     1       7.259   4.783  19.765  0.00  0.00    +0.000 OA
ATOM     14  O   UNL     1       8.334   4.321  17.544  0.00  0.00    +0.000 OA
BRANCH  12  15
ATOM     15  C   UNL     1       7.754   6.776  18.177  0.00  0.00    +0.000 A 
ATOM     16  C   UNL     1       7.127   7.561  17.208  0.00  0.00    +0.000 A 
ATOM     17  C   UNL     1       7.403   8.929  17.151  0.00  0.00    +0.000 A 
ATOM     18  C   UNL     1       8.287   9.515  18.069  0.00  0.00    +0.000 A 
ATOM     19  C   UNL     1       8.531  10.994  18.085  0.00  0.00    +0.000 C 
ATOM     20  C   UNL     1       8.901   8.716  19.040  0.00  0.00    +0.000 A 
ATOM     21  C   UNL     1       8.625   7.354  19.105  0.00  0.00    +0.000 A 
ENDBRANCH  12  15
ENDBRANCH   5  12
BRANCH   3  22
ATOM     22  C   UNL     1       2.882   2.686  18.401  0.00  0.00    +0.000 C 
ATOM     23  O   UNL     1       2.954   1.966  19.388  0.00  0.00    +0.000 OA
BRANCH  22  24
ATOM     24  O   UNL     1       1.771   2.929  17.670  0.00  0.00    +0.000 OA
BRANCH  24  25
ATOM     25  C   UNL     1       0.828   3.828  18.280  0.00  0.00    +0.000 C 
ATOM     26  C   UNL     1       0.557   3.418  19.716  0.00  0.00    +0.000 C 
ENDBRANCH  24  25
ENDBRANCH  22  24
ENDBRANCH   3  22
BRANCH   1  27
ATOM     27  C   UNL     1       5.601   4.806  15.128  0.00  0.00    +0.000 C 
BRANCH  27  29
ATOM     28  C   UNL     1       6.103   3.727  12.880  0.00  0.00    +0.000 C 
ATOM     29  C   UNL     1       6.663   4.483  14.072  0.00  0.00    +0.000 C 
ENDBRANCH  27  29
ENDBRANCH   1  27
TORSDOF 8
ENDMDL
MODEL 4
REMARK VINA RESULT:      -6.4      2.590      6.377
REMARK  Name = 
REMARK  11 active torsions:
REMARK  status: ('A' for Active; 'I' for Inactive)
REMARK    1  A    between atoms: C_1  and  C_2
REMARK    2  A    between atoms: C_2  and  C_3
REMARK    3  A    between atoms: C_3  and  C_4
REMARK    4  A    between atoms: C_6  and  C_7
REMARK    5  A    between atoms: C_7  and  O_9
REMARK    6  A    between atoms: O_9  and  C_10
REMARK    7  A    between atoms: C_10  and  C_11
REMARK    8  A    between atoms: C_12  and  C_13
REMARK    9  A    between atoms: N_19  and  S_20
REMARK   10  A    between atoms: S_20  and  C_23
REMARK   11  A    between atoms: C_26  and  C_27
REMARK                            x       y       z     vdW  Elec       q    Type
REMARK                         _______ _______ _______ _____ _____    ______ ____
ROOT
ATOM      1  C   UNL     1       1.937   5.543  19.109  0.00  0.00    +0.000 C 
ATOM      2  C   UNL     1       2.411   4.350  18.354  0.00  0.00    +0.000 C 
ATOM      3  C   UNL     1       3.457   4.638  17.579  0.00  0.00    +0.000 C 
ATOM      4  C   UNL     1       3.903   6.058  17.723  0.00  0.00    +0.000 C 
ATOM      5  N   UNL     1       2.867   6.622  18.663  0.00  0.00    +0.000 NA
ENDROOT
BRANCH   4   6
ATOM      6  C   UNL     1       5.345   6.235  18.187  0.00  0.00    +0.000 A 
ATOM      7  C   UNL     1       6.189   7.127  17.498  0.00  0.00    +0.000 A 
ATOM      8  C   UNL     1       7.550   7.215  17.805  0.00  0.00    +0.000 A 
ATOM      9  C   UNL     1       8.093   6.414  18.805  0.00  0.00    +0.000 A 
ATOM     10  C   UNL     1       7.270   5.548  19.518  0.00  0.00    +0.000 A 
ATOM     11  C   UNL     1       5.906   5.473  19.226  0.00  0.00    +0.000 A 
ENDBRANCH   4   6
BRANCH   5  12
ATOM     12  S   UNL     1       2.149   8.089  18.196  0.00  0.00    +0.000 S 
ATOM     13  O   UNL     1       3.184   9.062  17.915  0.00  0.00    +0.000 OA
ATOM     14  O   UNL     1       1.128   7.800  17.218  0.00  0.00    +0.000 OA
BRANCH  12  15
ATOM     15  C   UNL     1       1.311   8.658  19.668  0.00  0.00    +0.000 A 
ATOM     16  C   UNL     1       1.776   8.317  20.939  0.00  0.00    +0.000 A 
ATOM     17  C   UNL     1       1.133   8.835  22.065  0.00  0.00    +0.000 A 
ATOM     18  C   UNL     1       0.041   9.705  21.923  0.00  0.00    +0.000 A 
ATOM     19  C   UNL     1      -0.609  10.343  23.114  0.00  0.00    +0.000 C 
ATOM     20  C   UNL     1      -0.407  10.044  20.642  0.00  0.00    +0.000 A 
ATOM     21  C   UNL     1       0.234   9.536  19.517  0.00  0.00    +0.000 A 
ENDBRANCH  12  15
ENDBRANCH   5  12
BRANCH   3  22
ATOM     22  C   UNL     1       4.090   3.650  16.700  0.00  0.00    +0.000 C 
ATOM     23  O   UNL     1       4.028   2.446  16.903  0.00  0.00    +0.000 OA
BRANCH  22  24
ATOM     24  O   UNL     1       4.718   4.254  15.664  0.00  0.00    +0.000 OA
BRANCH  24  25
ATOM     25  C   UNL     1       6.022   3.732  15.359  0.00  0.00    +0.000 C 
ATOM     26  C   UNL     1       6.918   4.827  14.807  0.00  0.00    +0.000 C 
ENDBRANCH  24  25
ENDBRANCH  22  24
ENDBRANCH   3  22
BRANCH   1  27
ATOM     27  C   UNL     1       2.009   5.331  20.629  0.00  0.00    +0.000 C 
BRANCH  27  29
ATOM     28  C   UNL     1       1.491   3.058  21.646  0.00  0.00    +0.000 C 
ATOM     29  C   UNL     1       2.545   3.947  21.008  0.00  0.00    +0.000 C 
ENDBRANCH  27  29
ENDBRANCH   1  27
TORSDOF 8
ENDMDL
MODEL 5
REMARK VINA RESULT:      -6.4      5.839      8.949
REMARK  Name = 
REMARK  11 active torsions:
REMARK  status: ('A' for Active; 'I' for Inactive)
REMARK    1  A    between atoms: C_1  and  C_2
REMARK    2  A    between atoms: C_2  and  C_3
REMARK    3  A    between atoms: C_3  and  C_4
REMARK    4  A    between atoms: C_6  and  C_7
REMARK    5  A    between atoms: C_7  and  O_9
REMARK    6  A    between atoms: O_9  and  C_10
REMARK    7  A    between atoms: C_10  and  C_11
REMARK    8  A    between atoms: C_12  and  C_13
REMARK    9  A    between atoms: N_19  and  S_20
REMARK   10  A    between atoms: S_20  and  C_23
REMARK   11  A    between atoms: C_26  and  C_27
REMARK                            x       y       z     vdW  Elec       q    Type
REMARK                         _______ _______ _______ _____ _____    ______ ____
ROOT
ATOM      1  C   UNL     1      -1.222  10.618  19.630  0.00  0.00    +0.000 C 
ATOM      2  C   UNL     1      -1.739  11.971  19.977  0.00  0.00    +0.000 C 
ATOM      3  C   UNL     1      -0.816  12.713  20.590  0.00  0.00    +0.000 C 
ATOM      4  C   UNL     1       0.498  12.008  20.709  0.00  0.00    +0.000 C 
ATOM      5  N   UNL     1       0.181  10.648  20.140  0.00  0.00    +0.000 NA
ENDROOT
BRANCH   4   6
ATOM      6  C   UNL     1       1.671  12.718  20.041  0.00  0.00    +0.000 A 
ATOM      7  C   UNL     1       2.467  13.600  20.796  0.00  0.00    +0.000 A 
ATOM      8  C   UNL     1       3.462  14.372  20.190  0.00  0.00    +0.000 A 
ATOM      9  C   UNL     1       3.681  14.277  18.819  0.00  0.00    +0.000 A 
ATOM     10  C   UNL     1       2.926  13.389  18.059  0.00  0.00    +0.000 A 
ATOM     11  C   UNL     1       1.943  12.602  18.667  0.00  0.00    +0.000 A 
ENDBRANCH   4   6
BRANCH   5  12
ATOM     12  S   UNL     1       0.671   9.312  21.068  0.00  0.00    +0.000 S 
ATOM     13  O   UNL     1       1.620   9.748  22.072  0.00  0.00    +0.000 OA
ATOM     14  O   UNL     1      -0.505   8.568  21.446  0.00  0.00    +0.000 OA
BRANCH  12  15
ATOM     15  C   UNL     1       1.586   8.291  19.923  0.00  0.00    +0.000 A 
ATOM     16  C   UNL     1       1.957   8.771  18.667  0.00  0.00    +0.000 A 
ATOM     17  C   UNL     1       2.728   7.967  17.825  0.00  0.00    +0.000 A 
ATOM     18  C   UNL     1       3.142   6.693  18.244  0.00  0.00    +0.000 A 
ATOM     19  C   UNL     1       4.043   5.847  17.395  0.00  0.00    +0.000 C 
ATOM     20  C   UNL     1       2.769   6.229  19.510  0.00  0.00    +0.000 A 
ATOM     21  C   UNL     1       2.007   7.029  20.354  0.00  0.00    +0.000 A 
ENDBRANCH  12  15
ENDBRANCH   5  12
BRANCH   3  22
ATOM     22  C   UNL     1      -1.080  14.070  21.075  0.00  0.00    +0.000 C 
ATOM     23  O   UNL     1      -0.922  14.400  22.243  0.00  0.00    +0.000 OA
BRANCH  22  24
ATOM     24  O   UNL     1      -1.497  14.872  20.069  0.00  0.00    +0.000 OA
BRANCH  24  25
ATOM     25  C   UNL     1      -0.447  15.404  19.243  0.00  0.00    +0.000 C 
ATOM     26  C   UNL     1      -0.240  16.880  19.531  0.00  0.00    +0.000 C 
ENDBRANCH  24  25
ENDBRANCH  22  24
ENDBRANCH   3  22
BRANCH   1  27
ATOM     27  C   UNL     1      -1.265  10.353  18.118  0.00  0.00    +0.000 C 
BRANCH  27  29
ATOM     28  C   UNL     1      -2.743   9.926  16.092  0.00  0.00    +0.000 C 
ATOM     29  C   UNL     1      -2.690  10.147  17.594  0.00  0.00    +0.000 C 
ENDBRANCH  27  29
ENDBRANCH   1  27
TORSDOF 8
ENDMDL
MODEL 6
REMARK VINA RESULT:      -6.3      5.880      8.871
REMARK  Name = 
REMARK  11 active torsions:
REMARK  status: ('A' for Active; 'I' for Inactive)
REMARK    1  A    between atoms: C_1  and  C_2
REMARK    2  A    between atoms: C_2  and  C_3
REMARK    3  A    between atoms: C_3  and  C_4
REMARK    4  A    between atoms: C_6  and  C_7
REMARK    5  A    between atoms: C_7  and  O_9
REMARK    6  A    between atoms: O_9  and  C_10
REMARK    7  A    between atoms: C_10  and  C_11
REMARK    8  A    between atoms: C_12  and  C_13
REMARK    9  A    between atoms: N_19  and  S_20
REMARK   10  A    between atoms: S_20  and  C_23
REMARK   11  A    between atoms: C_26  and  C_27
REMARK                            x       y       z     vdW  Elec       q    Type
REMARK                         _______ _______ _______ _____ _____    ______ ____
ROOT
ATOM      1  C   UNL     1      -1.284  10.492  19.520  0.00  0.00    +0.000 C 
ATOM      2  C   UNL     1      -1.848  11.849  19.768  0.00  0.00    +0.000 C 
ATOM      3  C   UNL     1      -0.974  12.643  20.388  0.00  0.00    +0.000 C 
ATOM      4  C   UNL     1       0.346  11.978  20.611  0.00  0.00    +0.000 C 
ATOM      5  N   UNL     1       0.089  10.583  20.098  0.00  0.00    +0.000 NA
ENDROOT
BRANCH   4   6
ATOM      6  C   UNL     1       1.537  12.680  19.967  0.00  0.00    +0.000 A 
ATOM      7  C   UNL     1       2.345  13.528  20.748  0.00  0.00    +0.000 A 
ATOM      8  C   UNL     1       3.359  14.295  20.166  0.00  0.00    +0.000 A 
ATOM      9  C   UNL     1       3.585  14.229  18.795  0.00  0.00    +0.000 A 
ATOM     10  C   UNL     1       2.817  13.375  18.009  0.00  0.00    +0.000 A 
ATOM     11  C   UNL     1       1.815  12.593  18.592  0.00  0.00    +0.000 A 
ENDBRANCH   4   6
BRANCH   5  12
ATOM     12  S   UNL     1       0.559   9.309  21.120  0.00  0.00    +0.000 S 
ATOM     13  O   UNL     1       1.416   9.826  22.166  0.00  0.00    +0.000 OA
ATOM     14  O   UNL     1      -0.614   8.537  21.448  0.00  0.00    +0.000 OA
BRANCH  12  15
ATOM     15  C   UNL     1       1.589   8.275  20.091  0.00  0.00    +0.000 A 
ATOM     16  C   UNL     1       1.945   6.987  20.492  0.00  0.00    +0.000 A 
ATOM     17  C   UNL     1       2.698   6.184  19.631  0.00  0.00    +0.000 A 
ATOM     18  C   UNL     1       3.077   6.659  18.367  0.00  0.00    +0.000 A 
ATOM     19  C   UNL     1       3.808   5.786  17.391  0.00  0.00    +0.000 C 
ATOM     20  C   UNL     1       2.705   7.950  17.976  0.00  0.00    +0.000 A 
ATOM     21  C   UNL     1       1.951   8.751  18.827  0.00  0.00    +0.000 A 
ENDBRANCH  12  15
ENDBRANCH   5  12
BRANCH   3  22
ATOM     22  C   UNL     1      -1.293  14.017  20.786  0.00  0.00    +0.000 C 
ATOM     23  O   UNL     1      -1.132  14.977  20.044  0.00  0.00    +0.000 OA
BRANCH  22  24
ATOM     24  O   UNL     1      -1.784  14.056  22.046  0.00  0.00    +0.000 OA
BRANCH  24  25
ATOM     25  C   UNL     1      -3.040  14.744  22.186  0.00  0.00    +0.000 C 
ATOM     26  C   UNL     1      -4.197  13.774  22.032  0.00  0.00    +0.000 C 
ENDBRANCH  24  25
ENDBRANCH  22  24
ENDBRANCH   3  22
BRANCH   1  27
ATOM     27  C   UNL     1      -1.243  10.149  18.023  0.00  0.00    +0.000 C 
BRANCH  27  29
ATOM     28  C   UNL     1      -2.603   9.952  15.883  0.00  0.00    +0.000 C 
ATOM     29  C   UNL     1      -2.639  10.058  17.398  0.00  0.00    +0.000 C 
ENDBRANCH  27  29
ENDBRANCH   1  27
TORSDOF 8
ENDMDL
MODEL 7
REMARK VINA RESULT:      -6.3      5.869      8.801
REMARK  Name = 
REMARK  11 active torsions:
REMARK  status: ('A' for Active; 'I' for Inactive)
REMARK    1  A    between atoms: C_1  and  C_2
REMARK    2  A    between atoms: C_2  and  C_3
REMARK    3  A    between atoms: C_3  and  C_4
REMARK    4  A    between atoms: C_6  and  C_7
REMARK    5  A    between atoms: C_7  and  O_9
REMARK    6  A    between atoms: O_9  and  C_10
REMARK    7  A    between atoms: C_10  and  C_11
REMARK    8  A    between atoms: C_12  and  C_13
REMARK    9  A    between atoms: N_19  and  S_20
REMARK   10  A    between atoms: S_20  and  C_23
REMARK   11  A    between atoms: C_26  and  C_27
REMARK                            x       y       z     vdW  Elec       q    Type
REMARK                         _______ _______ _______ _____ _____    ______ ____
ROOT
ATOM      1  C   UNL     1      -1.292  10.514  19.340  0.00  0.00    +0.000 C 
ATOM      2  C   UNL     1      -1.948  11.818  19.636  0.00  0.00    +0.000 C 
ATOM      3  C   UNL     1      -1.148  12.630  20.327  0.00  0.00    +0.000 C 
ATOM      4  C   UNL     1       0.203  12.035  20.566  0.00  0.00    +0.000 C 
ATOM      5  N   UNL     1       0.052  10.656  19.974  0.00  0.00    +0.000 NA
ENDROOT
BRANCH   4   6
ATOM      6  C   UNL     1       1.369  12.842  20.004  0.00  0.00    +0.000 A 
ATOM      7  C   UNL     1       2.078  13.715  20.850  0.00  0.00    +0.000 A 
ATOM      8  C   UNL     1       3.060  14.572  20.344  0.00  0.00    +0.000 A 
ATOM      9  C   UNL     1       3.353  14.571  18.984  0.00  0.00    +0.000 A 
ATOM     10  C   UNL     1       2.685  13.694  18.134  0.00  0.00    +0.000 A 
ATOM     11  C   UNL     1       1.717  12.823  18.642  0.00  0.00    +0.000 A 
ENDBRANCH   4   6
BRANCH   5  12
ATOM     12  S   UNL     1       0.565   9.361  20.946  0.00  0.00    +0.000 S 
ATOM     13  O   UNL     1       1.480   9.853  21.955  0.00  0.00    +0.000 OA
ATOM     14  O   UNL     1      -0.595   8.590  21.321  0.00  0.00    +0.000 OA
BRANCH  12  15
ATOM     15  C   UNL     1       1.533   8.339  19.846  0.00  0.00    +0.000 A 
ATOM     16  C   UNL     1       1.948   8.814  18.601  0.00  0.00    +0.000 A 
ATOM     17  C   UNL     1       2.759   8.010  17.797  0.00  0.00    +0.000 A 
ATOM     18  C   UNL     1       3.169   6.744  18.241  0.00  0.00    +0.000 A 
ATOM     19  C   UNL     1       4.110   5.900  17.436  0.00  0.00    +0.000 C 
ATOM     20  C   UNL     1       2.751   6.286  19.496  0.00  0.00    +0.000 A 
ATOM     21  C   UNL     1       1.949   7.086  20.303  0.00  0.00    +0.000 A 
ENDBRANCH  12  15
ENDBRANCH   5  12
BRANCH   3  22
ATOM     22  C   UNL     1      -1.565  13.959  20.783  0.00  0.00    +0.000 C 
ATOM     23  O   UNL     1      -1.223  14.990  20.220  0.00  0.00    +0.000 OA
BRANCH  22  24
ATOM     24  O   UNL     1      -2.365  13.871  21.870  0.00  0.00    +0.000 OA
BRANCH  24  25
ATOM     25  C   UNL     1      -1.687  13.541  23.095  0.00  0.00    +0.000 C 
ATOM     26  C   UNL     1      -0.930  14.745  23.625  0.00  0.00    +0.000 C 
ENDBRANCH  24  25
ENDBRANCH  22  24
ENDBRANCH   3  22
BRANCH   1  27
ATOM     27  C   UNL     1      -1.178  10.253  17.831  0.00  0.00    +0.000 C 
BRANCH  27  29
ATOM     28  C   UNL     1      -2.731  10.690  15.865  0.00  0.00    +0.000 C 
ATOM     29  C   UNL     1      -2.531   9.953  17.178  0.00  0.00    +0.000 C 
ENDBRANCH  27  29
ENDBRANCH   1  27
TORSDOF 8
ENDMDL
MODEL 8
REMARK VINA RESULT:      -6.1      5.972      9.139
REMARK  Name = 
REMARK  11 active torsions:
REMARK  status: ('A' for Active; 'I' for Inactive)
REMARK    1  A    between atoms: C_1  and  C_2
REMARK    2  A    between atoms: C_2  and  C_3
REMARK    3  A    between atoms: C_3  and  C_4
REMARK    4  A    between atoms: C_6  and  C_7
REMARK    5  A    between atoms: C_7  and  O_9
REMARK    6  A    between atoms: O_9  and  C_10
REMARK    7  A    between atoms: C_10  and  C_11
REMARK    8  A    between atoms: C_12  and  C_13
REMARK    9  A    between atoms: N_19  and  S_20
REMARK   10  A    between atoms: S_20  and  C_23
REMARK   11  A    between atoms: C_26  and  C_27
REMARK                            x       y       z     vdW  Elec       q    Type
REMARK                         _______ _______ _______ _____ _____    ______ ____
ROOT
ATOM      1  C   UNL     1      -1.345  10.556  19.306  0.00  0.00    +0.000 C 
ATOM      2  C   UNL     1      -2.009  11.873  19.520  0.00  0.00    +0.000 C 
ATOM      3  C   UNL     1      -1.224  12.723  20.181  0.00  0.00    +0.000 C 
ATOM      4  C   UNL     1       0.124  12.146  20.476  0.00  0.00    +0.000 C 
ATOM      5  N   UNL     1      -0.013  10.737  19.956  0.00  0.00    +0.000 NA
ENDROOT
BRANCH   4   6
ATOM      6  C   UNL     1       1.298  12.926  19.893  0.00  0.00    +0.000 A 
ATOM      7  C   UNL     1       1.668  12.719  18.551  0.00  0.00    +0.000 A 
ATOM      8  C   UNL     1       2.820  13.308  18.021  0.00  0.00    +0.000 A 
ATOM      9  C   UNL     1       3.622  14.116  18.821  0.00  0.00    +0.000 A 
ATOM     10  C   UNL     1       3.258  14.358  20.143  0.00  0.00    +0.000 A 
ATOM     11  C   UNL     1       2.097  13.785  20.669  0.00  0.00    +0.000 A 
ENDBRANCH   4   6
BRANCH   5  12
ATOM     12  S   UNL     1       0.485   9.498  21.005  0.00  0.00    +0.000 S 
ATOM     13  O   UNL     1       1.330  10.056  22.040  0.00  0.00    +0.000 OA
ATOM     14  O   UNL     1      -0.670   8.705  21.349  0.00  0.00    +0.000 OA
BRANCH  12  15
ATOM     15  C   UNL     1       1.540   8.465  19.999  0.00  0.00    +0.000 A 
ATOM     16  C   UNL     1       1.922   7.193  20.426  0.00  0.00    +0.000 A 
ATOM     17  C   UNL     1       2.693   6.389  19.584  0.00  0.00    +0.000 A 
ATOM     18  C   UNL     1       3.066   6.847  18.311  0.00  0.00    +0.000 A 
ATOM     19  C   UNL     1       3.817   5.970  17.354  0.00  0.00    +0.000 C 
ATOM     20  C   UNL     1       2.667   8.121  17.893  0.00  0.00    +0.000 A 
ATOM     21  C   UNL     1       1.894   8.923  18.726  0.00  0.00    +0.000 A 
ENDBRANCH  12  15
ENDBRANCH   5  12
BRANCH   3  22
ATOM     22  C   UNL     1      -1.653  14.073  20.558  0.00  0.00    +0.000 C 
ATOM     23  O   UNL     1      -2.298  14.305  21.571  0.00  0.00    +0.000 OA
BRANCH  22  24
ATOM     24  O   UNL     1      -1.232  14.986  19.653  0.00  0.00    +0.000 OA
BRANCH  24  25
ATOM     25  C   UNL     1      -0.814  16.244  20.212  0.00  0.00    +0.000 C 
ATOM     26  C   UNL     1      -0.675  17.290  19.120  0.00  0.00    +0.000 C 
ENDBRANCH  24  25
ENDBRANCH  22  24
ENDBRANCH   3  22
BRANCH   1  27
ATOM     27  C   UNL     1      -1.202  10.217  17.815  0.00  0.00    +0.000 C 
BRANCH  27  29
ATOM     28  C   UNL     1      -2.858  10.880  16.002  0.00  0.00    +0.000 C 
ATOM     29  C   UNL     1      -2.548   9.926  17.142  0.00  0.00    +0.000 C 
ENDBRANCH  27  29
ENDBRANCH   1  27
TORSDOF 8
ENDMDL
MODEL 9
REMARK VINA RESULT:      -6.1      2.524      6.310
REMARK  Name = 
REMARK  11 active torsions:
REMARK  status: ('A' for Active; 'I' for Inactive)
REMARK    1  A    between atoms: C_1  and  C_2
REMARK    2  A    between atoms: C_2  and  C_3
REMARK    3  A    between atoms: C_3  and  C_4
REMARK    4  A    between atoms: C_6  and  C_7
REMARK    5  A    between atoms: C_7  and  O_9
REMARK    6  A    between atoms: O_9  and  C_10
REMARK    7  A    between atoms: C_10  and  C_11
REMARK    8  A    between atoms: C_12  and  C_13
REMARK    9  A    between atoms: N_19  and  S_20
REMARK   10  A    between atoms: S_20  and  C_23
REMARK   11  A    between atoms: C_26  and  C_27
REMARK                            x       y       z     vdW  Elec       q    Type
REMARK                         _______ _______ _______ _____ _____    ______ ____
ROOT
ATOM      1  C   UNL     1       2.168   5.373  18.641  0.00  0.00    +0.000 C 
ATOM      2  C   UNL     1       2.779   4.285  17.829  0.00  0.00    +0.000 C 
ATOM      3  C   UNL     1       3.851   4.708  17.159  0.00  0.00    +0.000 C 
ATOM      4  C   UNL     1       4.180   6.138  17.450  0.00  0.00    +0.000 C 
ATOM      5  N   UNL     1       3.044   6.547  18.354  0.00  0.00    +0.000 NA
ENDROOT
BRANCH   4   6
ATOM      6  C   UNL     1       5.570   6.372  18.032  0.00  0.00    +0.000 A 
ATOM      7  C   UNL     1       6.427   7.307  17.422  0.00  0.00    +0.000 A 
ATOM      8  C   UNL     1       7.754   7.450  17.840  0.00  0.00    +0.000 A 
ATOM      9  C   UNL     1       8.249   6.662  18.876  0.00  0.00    +0.000 A 
ATOM     10  C   UNL     1       7.409   5.753  19.512  0.00  0.00    +0.000 A 
ATOM     11  C   UNL     1       6.077   5.622  19.108  0.00  0.00    +0.000 A 
ENDBRANCH   4   6
BRANCH   5  12
ATOM     12  S   UNL     1       2.253   7.996  17.956  0.00  0.00    +0.000 S 
ATOM     13  O   UNL     1       3.231   8.977  17.534  0.00  0.00    +0.000 OA
ATOM     14  O   UNL     1       1.124   7.678  17.116  0.00  0.00    +0.000 OA
BRANCH  12  15
ATOM     15  C   UNL     1       1.594   8.581  19.510  0.00  0.00    +0.000 A 
ATOM     16  C   UNL     1       0.729   9.675  19.560  0.00  0.00    +0.000 A 
ATOM     17  C   UNL     1       0.183  10.062  20.785  0.00  0.00    +0.000 A 
ATOM     18  C   UNL     1       0.484   9.347  21.955  0.00  0.00    +0.000 A 
ATOM     19  C   UNL     1      -0.158   9.688  23.266  0.00  0.00    +0.000 C 
ATOM     20  C   UNL     1       1.346   8.247  21.887  0.00  0.00    +0.000 A 
ATOM     21  C   UNL     1       1.888   7.855  20.668  0.00  0.00    +0.000 A 
ENDBRANCH  12  15
ENDBRANCH   5  12
BRANCH   3  22
ATOM     22  C   UNL     1       4.614   3.846  16.252  0.00  0.00    +0.000 C 
ATOM     23  O   UNL     1       4.784   2.652  16.459  0.00  0.00    +0.000 OA
BRANCH  22  24
ATOM     24  O   UNL     1       5.070   4.544  15.187  0.00  0.00    +0.000 OA
BRANCH  24  25
ATOM     25  C   UNL     1       6.256   4.008  14.575  0.00  0.00    +0.000 C 
ATOM     26  C   UNL     1       5.993   3.660  13.121  0.00  0.00    +0.000 C 
ENDBRANCH  24  25
ENDBRANCH  22  24
ENDBRANCH   3  22
BRANCH   1  27
ATOM     27  C   UNL     1       2.152   5.037  20.140  0.00  0.00    +0.000 C 
BRANCH  27  29
ATOM     28  C   UNL     1       1.519   2.913  21.388  0.00  0.00    +0.000 C 
ATOM     29  C   UNL     1       1.034   4.057  20.514  0.00  0.00    +0.000 C 
ENDBRANCH  27  29
ENDBRANCH   1  27
TORSDOF 8
ENDMDL
