MODEL 1
REMARK VINA RESULT:      -6.9      0.000      0.000
REMARK  Name = 
REMARK  9 active torsions:
REMARK  status: ('A' for Active; 'I' for Inactive)
REMARK    1  A    between atoms: C_1  and  N_2
REMARK    2  A    between atoms: N_2  and  C_3
REMARK    3  A    between atoms: N_2  and  C_16
REMARK    4  A    between atoms: C_3  and  C_4
REMARK    5  A    between atoms: N_6  and  C_7
REMARK    6  A    between atoms: C_7  and  C_8
REMARK    7  A    between atoms: C_8  and  C_9
REMARK    8  A    between atoms: C_9  and  N_10
REMARK    9  A    between atoms: C_16  and  C_17
REMARK                            x       y       z     vdW  Elec       q    Type
REMARK                         _______ _______ _______ _____ _____    ______ ____
ROOT
ATOM      1  C   UNL     1       5.498   4.405  18.118  0.00  0.00    +0.000 C 
ATOM      2  O   UNL     1       4.903   5.097  18.942  0.00  0.00    +0.000 OA
ATOM      3  N   UNL     1       4.859   3.458  17.343  0.00  0.00    +0.000 N 
ATOM      4  H   UNL     1       5.412   2.879  16.722  0.00  0.00    +0.000 HD
ENDROOT
BRANCH   1   5
ATOM      5  C   UNL     1       7.013   4.532  17.877  0.00  0.00    +0.000 C 
BRANCH   5   7
ATOM      6  C   UNL     1       7.578   6.849  17.404  0.00  0.00    +0.000 C 
ATOM      7  N   UNL     1       7.327   5.519  16.816  0.00  0.00    +0.000 NA
BRANCH   7   8
ATOM      8  C   UNL     1       6.173   5.615  15.880  0.00  0.00    +0.000 C 
BRANCH   8   9
ATOM      9  C   UNL     1       6.461   5.063  14.489  0.00  0.00    +0.000 A 
ATOM     10  C   UNL     1       5.623   4.096  13.933  0.00  0.00    +0.000 A 
ATOM     11  C   UNL     1       5.967   3.530  12.708  0.00  0.00    +0.000 A 
ATOM     12  C   UNL     1       7.126   3.946  12.068  0.00  0.00    +0.000 A 
ATOM     13  C   UNL     1       7.894   4.922  12.674  0.00  0.00    +0.000 A 
ATOM     14  N   UNL     1       7.590   5.491  13.866  0.00  0.00    +0.000 NA
ENDBRANCH   8   9
ENDBRANCH   7   8
ENDBRANCH   5   7
ENDBRANCH   1   5
BRANCH   3  15
ATOM     15  C   UNL     1       3.441   3.195  17.485  0.00  0.00    +0.000 C 
BRANCH  15  16
ATOM     16  C   UNL     1       3.166   1.790  18.010  0.00  0.00    +0.000 C 
BRANCH  16  17
ATOM     17  C   UNL     1       2.003   1.808  18.998  0.00  0.00    +0.000 C 
BRANCH  17  18
ATOM     18  N   UNL     1       2.023   2.988  19.841  0.00  0.00    +0.000 N 
ATOM     19  C   UNL     1       1.489   4.210  19.548  0.00  0.00    +0.000 A 
ATOM     20  C   UNL     1       1.732   4.998  20.644  0.00  0.00    +0.000 A 
ATOM     21 CL   UNL     1       1.296   6.611  20.894  0.00  0.00    +0.000 Cl
ATOM     22  C   UNL     1       2.432   4.168  21.539  0.00  0.00    +0.000 A 
ATOM     23  N   UNL     1       2.615   2.936  21.051  0.00  0.00    +0.000 NA
ENDBRANCH  17  18
ENDBRANCH  16  17
ENDBRANCH  15  16
ENDBRANCH   3  15
TORSDOF 8
ENDMDL
MODEL 2
REMARK VINA RESULT:      -6.7      1.699      2.221
REMARK  Name = 
REMARK  9 active torsions:
REMARK  status: ('A' for Active; 'I' for Inactive)
REMARK    1  A    between atoms: C_1  and  N_2
REMARK    2  A    between atoms: N_2  and  C_3
REMARK    3  A    between atoms: N_2  and  C_16
REMARK    4  A    between atoms: C_3  and  C_4
REMARK    5  A    between atoms: N_6  and  C_7
REMARK    6  A    between atoms: C_7  and  C_8
REMARK    7  A    between atoms: C_8  and  C_9
REMARK    8  A    between atoms: C_9  and  N_10
REMARK    9  A    between atoms: C_16  and  C_17
REMARK                            x       y       z     vdW  Elec       q    Type
REMARK                         _______ _______ _______ _____ _____    ______ ____
ROOT
ATOM      1  C   UNL     1       4.926   3.748  18.684  0.00  0.00    +0.000 C 
ATOM      2  O   UNL     1       5.651   4.354  19.473  0.00  0.00    +0.000 OA
ATOM      3  N   UNL     1       3.934   2.883  19.101  0.00  0.00    +0.000 N 
ATOM      4  H   UNL     1       3.407   2.369  18.405  0.00  0.00    +0.000 HD
ENDROOT
BRANCH   1   5
ATOM      5  C   UNL     1       5.060   3.901  17.159  0.00  0.00    +0.000 C 
BRANCH   5   7
ATOM      6  C   UNL     1       5.149   5.944  15.844  0.00  0.00    +0.000 C 
ATOM      7  N   UNL     1       5.882   5.079  16.788  0.00  0.00    +0.000 NA
BRANCH   7   8
ATOM      8  C   UNL     1       7.139   4.614  16.141  0.00  0.00    +0.000 C 
BRANCH   8   9
ATOM      9  C   UNL     1       7.084   4.612  14.618  0.00  0.00    +0.000 A 
ATOM     10  C   UNL     1       6.311   3.664  13.947  0.00  0.00    +0.000 A 
ATOM     11  C   UNL     1       6.362   3.616  12.556  0.00  0.00    +0.000 A 
ATOM     12  C   UNL     1       7.170   4.513  11.873  0.00  0.00    +0.000 A 
ATOM     13  C   UNL     1       7.892   5.435  12.609  0.00  0.00    +0.000 A 
ATOM     14  N   UNL     1       7.867   5.508  13.962  0.00  0.00    +0.000 NA
ENDBRANCH   8   9
ENDBRANCH   7   8
ENDBRANCH   5   7
ENDBRANCH   1   5
BRANCH   3  15
ATOM     15  C   UNL     1       3.714   2.605  20.507  0.00  0.00    +0.000 C 
BRANCH  15  16
ATOM     16  C   UNL     1       2.232   2.586  20.865  0.00  0.00    +0.000 C 
BRANCH  16  17
ATOM     17  C   UNL     1       1.723   4.005  21.103  0.00  0.00    +0.000 C 
BRANCH  17  18
ATOM     18  N   UNL     1       1.882   4.846  19.932  0.00  0.00    +0.000 N 
ATOM     19  C   UNL     1       2.487   6.069  19.882  0.00  0.00    +0.000 A 
ATOM     20  C   UNL     1       2.415   6.468  18.572  0.00  0.00    +0.000 A 
ATOM     21 CL   UNL     1       3.007   7.889  17.874  0.00  0.00    +0.000 Cl
ATOM     22  C   UNL     1       1.735   5.428  17.912  0.00  0.00    +0.000 A 
ATOM     23  N   UNL     1       1.404   4.432  18.741  0.00  0.00    +0.000 NA
ENDBRANCH  17  18
ENDBRANCH  16  17
ENDBRANCH  15  16
ENDBRANCH   3  15
TORSDOF 8
ENDMDL
MODEL 3
REMARK VINA RESULT:      -6.7      3.016      7.044
REMARK  Name = 
REMARK  9 active torsions:
REMARK  status: ('A' for Active; 'I' for Inactive)
REMARK    1  A    between atoms: C_1  and  N_2
REMARK    2  A    between atoms: N_2  and  C_3
REMARK    3  A    between atoms: N_2  and  C_16
REMARK    4  A    between atoms: C_3  and  C_4
REMARK    5  A    between atoms: N_6  and  C_7
REMARK    6  A    between atoms: C_7  and  C_8
REMARK    7  A    between atoms: C_8  and  C_9
REMARK    8  A    between atoms: C_9  and  N_10
REMARK    9  A    between atoms: C_16  and  C_17
REMARK                            x       y       z     vdW  Elec       q    Type
REMARK                         _______ _______ _______ _____ _____    ______ ____
ROOT
ATOM      1  C   UNL     1       5.541   4.018  19.086  0.00  0.00    +0.000 C 
ATOM      2  O   UNL     1       5.978   4.820  19.910  0.00  0.00    +0.000 OA
ATOM      3  N   UNL     1       6.063   3.902  17.813  0.00  0.00    +0.000 N 
ATOM      4  H   UNL     1       5.624   3.263  17.161  0.00  0.00    +0.000 HD
ENDROOT
BRANCH   1   5
ATOM      5  C   UNL     1       4.372   3.069  19.402  0.00  0.00    +0.000 C 
BRANCH   5   7
ATOM      6  C   UNL     1       2.647   2.781  21.090  0.00  0.00    +0.000 C 
ATOM      7  N   UNL     1       3.306   3.741  20.185  0.00  0.00    +0.000 NA
BRANCH   7   8
ATOM      8  C   UNL     1       2.291   4.300  19.251  0.00  0.00    +0.000 C 
BRANCH   8   9
ATOM      9  C   UNL     1       2.238   5.823  19.239  0.00  0.00    +0.000 A 
ATOM     10  C   UNL     1       1.864   6.519  20.390  0.00  0.00    +0.000 A 
ATOM     11  C   UNL     1       1.719   7.902  20.322  0.00  0.00    +0.000 A 
ATOM     12  C   UNL     1       1.957   8.554  19.121  0.00  0.00    +0.000 A 
ATOM     13  C   UNL     1       2.342   7.796  18.030  0.00  0.00    +0.000 A 
ATOM     14  N   UNL     1       2.489   6.450  18.061  0.00  0.00    +0.000 NA
ENDBRANCH   8   9
ENDBRANCH   7   8
ENDBRANCH   5   7
ENDBRANCH   1   5
BRANCH   3  15
ATOM     15  C   UNL     1       7.140   4.756  17.355  0.00  0.00    +0.000 C 
BRANCH  15  16
ATOM     16  C   UNL     1       6.634   6.105  16.857  0.00  0.00    +0.000 C 
BRANCH  16  17
ATOM     17  C   UNL     1       5.553   5.910  15.797  0.00  0.00    +0.000 C 
BRANCH  17  18
ATOM     18  N   UNL     1       6.039   5.160  14.654  0.00  0.00    +0.000 N 
ATOM     19  C   UNL     1       5.422   4.101  14.051  0.00  0.00    +0.000 A 
ATOM     20  C   UNL     1       6.240   3.736  13.011  0.00  0.00    +0.000 A 
ATOM     21 CL   UNL     1       6.010   2.501  11.881  0.00  0.00    +0.000 Cl
ATOM     22  C   UNL     1       7.330   4.621  13.078  0.00  0.00    +0.000 A 
ATOM     23  N   UNL     1       7.214   5.495  14.084  0.00  0.00    +0.000 NA
ENDBRANCH  17  18
ENDBRANCH  16  17
ENDBRANCH  15  16
ENDBRANCH   3  15
TORSDOF 8
ENDMDL
MODEL 4
REMARK VINA RESULT:      -6.7      3.997      6.339
REMARK  Name = 
REMARK  9 active torsions:
REMARK  status: ('A' for Active; 'I' for Inactive)
REMARK    1  A    between atoms: C_1  and  N_2
REMARK    2  A    between atoms: N_2  and  C_3
REMARK    3  A    between atoms: N_2  and  C_16
REMARK    4  A    between atoms: C_3  and  C_4
REMARK    5  A    between atoms: N_6  and  C_7
REMARK    6  A    between atoms: C_7  and  C_8
REMARK    7  A    between atoms: C_8  and  C_9
REMARK    8  A    between atoms: C_9  and  N_10
REMARK    9  A    between atoms: C_16  and  C_17
REMARK                            x       y       z     vdW  Elec       q    Type
REMARK                         _______ _______ _______ _____ _____    ______ ____
ROOT
ATOM      1  C   UNL     1       4.629   6.483  16.951  0.00  0.00    +0.000 C 
ATOM      2  O   UNL     1       4.979   7.014  15.897  0.00  0.00    +0.000 OA
ATOM      3  N   UNL     1       3.696   7.049  17.794  0.00  0.00    +0.000 N 
ATOM      4  H   UNL     1       3.490   6.593  18.675  0.00  0.00    +0.000 HD
ENDROOT
BRANCH   1   5
ATOM      5  C   UNL     1       5.203   5.135  17.422  0.00  0.00    +0.000 C 
BRANCH   5   7
ATOM      6  C   UNL     1       6.709   5.311  19.323  0.00  0.00    +0.000 C 
ATOM      7  N   UNL     1       5.318   5.065  18.899  0.00  0.00    +0.000 NA
BRANCH   7   8
ATOM      8  C   UNL     1       4.905   3.710  19.358  0.00  0.00    +0.000 C 
BRANCH   8   9
ATOM      9  C   UNL     1       3.397   3.536  19.488  0.00  0.00    +0.000 A 
ATOM     10  C   UNL     1       2.660   4.401  20.298  0.00  0.00    +0.000 A 
ATOM     11  C   UNL     1       1.302   4.156  20.485  0.00  0.00    +0.000 A 
ATOM     12  C   UNL     1       0.714   3.067  19.856  0.00  0.00    +0.000 A 
ATOM     13  C   UNL     1       1.507   2.268  19.054  0.00  0.00    +0.000 A 
ATOM     14  N   UNL     1       2.831   2.477  18.853  0.00  0.00    +0.000 NA
ENDBRANCH   8   9
ENDBRANCH   7   8
ENDBRANCH   5   7
ENDBRANCH   1   5
BRANCH   3  15
ATOM     15  C   UNL     1       3.096   8.337  17.505  0.00  0.00    +0.000 C 
BRANCH  15  16
ATOM     16  C   UNL     1       1.668   8.439  18.030  0.00  0.00    +0.000 C 
BRANCH  16  17
ATOM     17  C   UNL     1       1.285   9.899  18.252  0.00  0.00    +0.000 C 
BRANCH  17  18
ATOM     18  N   UNL     1       0.672  10.111  19.550  0.00  0.00    +0.000 N 
ATOM     19  C   UNL     1       0.842   9.345  20.667  0.00  0.00    +0.000 A 
ATOM     20  C   UNL     1       0.086   9.939  21.646  0.00  0.00    +0.000 A 
ATOM     21 CL   UNL     1      -0.099   9.469  23.258  0.00  0.00    +0.000 Cl
ATOM     22  C   UNL     1      -0.514  11.046  21.019  0.00  0.00    +0.000 A 
ATOM     23  N   UNL     1      -0.160  11.156  19.734  0.00  0.00    +0.000 NA
ENDBRANCH  17  18
ENDBRANCH  16  17
ENDBRANCH  15  16
ENDBRANCH   3  15
TORSDOF 8
ENDMDL
MODEL 5
REMARK VINA RESULT:      -6.6      5.072      8.727
REMARK  Name = 
REMARK  9 active torsions:
REMARK  status: ('A' for Active; 'I' for Inactive)
REMARK    1  A    between atoms: C_1  and  N_2
REMARK    2  A    between atoms: N_2  and  C_3
REMARK    3  A    between atoms: N_2  and  C_16
REMARK    4  A    between atoms: C_3  and  C_4
REMARK    5  A    between atoms: N_6  and  C_7
REMARK    6  A    between atoms: C_7  and  C_8
REMARK    7  A    between atoms: C_8  and  C_9
REMARK    8  A    between atoms: C_9  and  N_10
REMARK    9  A    between atoms: C_16  and  C_17
REMARK                            x       y       z     vdW  Elec       q    Type
REMARK                         _______ _______ _______ _____ _____    ______ ____
ROOT
ATOM      1  C   UNL     1       7.262   6.735  17.613  0.00  0.00    +0.000 C 
ATOM      2  O   UNL     1       7.728   5.962  18.449  0.00  0.00    +0.000 OA
ATOM      3  N   UNL     1       7.638   8.060  17.537  0.00  0.00    +0.000 N 
ATOM      4  H   UNL     1       7.178   8.662  16.864  0.00  0.00    +0.000 HD
ENDROOT
BRANCH   1   5
ATOM      5  C   UNL     1       6.217   6.291  16.574  0.00  0.00    +0.000 C 
BRANCH   5   7
ATOM      6  C   UNL     1       5.391   4.087  15.966  0.00  0.00    +0.000 C 
ATOM      7  N   UNL     1       5.448   5.107  17.029  0.00  0.00    +0.000 NA
BRANCH   7   8
ATOM      8  C   UNL     1       4.061   5.527  17.370  0.00  0.00    +0.000 C 
BRANCH   8   9
ATOM      9  C   UNL     1       3.269   4.473  18.134  0.00  0.00    +0.000 A 
ATOM     10  C   UNL     1       2.003   4.089  17.688  0.00  0.00    +0.000 A 
ATOM     11  C   UNL     1       1.256   3.205  18.462  0.00  0.00    +0.000 A 
ATOM     12  C   UNL     1       1.788   2.721  19.649  0.00  0.00    +0.000 A 
ATOM     13  C   UNL     1       3.057   3.134  20.013  0.00  0.00    +0.000 A 
ATOM     14  N   UNL     1       3.809   3.995  19.286  0.00  0.00    +0.000 NA
ENDBRANCH   8   9
ENDBRANCH   7   8
ENDBRANCH   5   7
ENDBRANCH   1   5
BRANCH   3  15
ATOM     15  C   UNL     1       8.583   8.635  18.474  0.00  0.00    +0.000 C 
BRANCH  15  16
ATOM     16  C   UNL     1       8.797  10.125  18.236  0.00  0.00    +0.000 C 
BRANCH  16  17
ATOM     17  C   UNL     1       9.563  10.747  19.400  0.00  0.00    +0.000 C 
BRANCH  17  18
ATOM     18  N   UNL     1      10.079  12.063  19.074  0.00  0.00    +0.000 N 
ATOM     19  C   UNL     1      10.318  12.559  17.824  0.00  0.00    +0.000 A 
ATOM     20  C   UNL     1      10.778  13.837  18.012  0.00  0.00    +0.000 A 
ATOM     21 CL   UNL     1      11.226  14.972  16.842  0.00  0.00    +0.000 Cl
ATOM     22  C   UNL     1      10.798  14.015  19.407  0.00  0.00    +0.000 A 
ATOM     23  N   UNL     1      10.372  12.930  20.063  0.00  0.00    +0.000 NA
ENDBRANCH  17  18
ENDBRANCH  16  17
ENDBRANCH  15  16
ENDBRANCH   3  15
TORSDOF 8
ENDMDL
MODEL 6
REMARK VINA RESULT:      -6.6      4.361      6.033
REMARK  Name = 
REMARK  9 active torsions:
REMARK  status: ('A' for Active; 'I' for Inactive)
REMARK    1  A    between atoms: C_1  and  N_2
REMARK    2  A    between atoms: N_2  and  C_3
REMARK    3  A    between atoms: N_2  and  C_16
REMARK    4  A    between atoms: C_3  and  C_4
REMARK    5  A    between atoms: N_6  and  C_7
REMARK    6  A    between atoms: C_7  and  C_8
REMARK    7  A    between atoms: C_8  and  C_9
REMARK    8  A    between atoms: C_9  and  N_10
REMARK    9  A    between atoms: C_16  and  C_17
REMARK                            x       y       z     vdW  Elec       q    Type
REMARK                         _______ _______ _______ _____ _____    ______ ____
ROOT
ATOM      1  C   UNL     1       2.424   6.403  19.148  0.00  0.00    +0.000 C 
ATOM      2  O   UNL     1       2.224   6.985  20.212  0.00  0.00    +0.000 OA
ATOM      3  N   UNL     1       2.701   7.074  17.974  0.00  0.00    +0.000 N 
ATOM      4  H   UNL     1       2.800   6.544  17.117  0.00  0.00    +0.000 HD
ENDROOT
BRANCH   1   5
ATOM      5  C   UNL     1       2.386   4.869  19.029  0.00  0.00    +0.000 C 
BRANCH   5   7
ATOM      6  C   UNL     1       2.637   3.263  17.222  0.00  0.00    +0.000 C 
ATOM      7  N   UNL     1       3.279   4.371  17.955  0.00  0.00    +0.000 NA
BRANCH   7   8
ATOM      8  C   UNL     1       4.546   3.879  18.561  0.00  0.00    +0.000 C 
BRANCH   8   9
ATOM      9  C   UNL     1       5.686   4.889  18.509  0.00  0.00    +0.000 A 
ATOM     10  C   UNL     1       5.920   5.621  17.344  0.00  0.00    +0.000 A 
ATOM     11  C   UNL     1       7.032   6.457  17.286  0.00  0.00    +0.000 A 
ATOM     12  C   UNL     1       7.873   6.550  18.386  0.00  0.00    +0.000 A 
ATOM     13  C   UNL     1       7.563   5.807  19.510  0.00  0.00    +0.000 A 
ATOM     14  N   UNL     1       6.491   4.982  19.599  0.00  0.00    +0.000 NA
ENDBRANCH   8   9
ENDBRANCH   7   8
ENDBRANCH   5   7
ENDBRANCH   1   5
BRANCH   3  15
ATOM     15  C   UNL     1       2.730   8.522  17.919  0.00  0.00    +0.000 C 
BRANCH  15  16
ATOM     16  C   UNL     1       1.331   9.128  17.921  0.00  0.00    +0.000 C 
BRANCH  16  17
ATOM     17  C   UNL     1       1.367  10.551  18.473  0.00  0.00    +0.000 C 
BRANCH  17  18
ATOM     18  N   UNL     1       0.507  10.709  19.630  0.00  0.00    +0.000 N 
ATOM     19  C   UNL     1       0.625  10.064  20.829  0.00  0.00    +0.000 A 
ATOM     20  C   UNL     1      -0.392  10.546  21.613  0.00  0.00    +0.000 A 
ATOM     21 CL   UNL     1      -0.760  10.146  23.214  0.00  0.00    +0.000 Cl
ATOM     22  C   UNL     1      -1.079  11.462  20.796  0.00  0.00    +0.000 A 
ATOM     23  N   UNL     1      -0.533  11.565  19.579  0.00  0.00    +0.000 NA
ENDBRANCH  17  18
ENDBRANCH  16  17
ENDBRANCH  15  16
ENDBRANCH   3  15
TORSDOF 8
ENDMDL
MODEL 7
REMARK VINA RESULT:      -6.6      4.741      8.725
REMARK  Name = 
REMARK  9 active torsions:
REMARK  status: ('A' for Active; 'I' for Inactive)
REMARK    1  A    between atoms: C_1  and  N_2
REMARK    2  A    between atoms: N_2  and  C_3
REMARK    3  A    between atoms: N_2  and  C_16
REMARK    4  A    between atoms: C_3  and  C_4
REMARK    5  A    between atoms: N_6  and  C_7
REMARK    6  A    between atoms: C_7  and  C_8
REMARK    7  A    between atoms: C_8  and  C_9
REMARK    8  A    between atoms: C_9  and  N_10
REMARK    9  A    between atoms: C_16  and  C_17
REMARK                            x       y       z     vdW  Elec       q    Type
REMARK                         _______ _______ _______ _____ _____    ______ ____
ROOT
ATOM      1  C   UNL     1       6.588   6.667  17.076  0.00  0.00    +0.000 C 
ATOM      2  O   UNL     1       7.456   5.951  16.579  0.00  0.00    +0.000 OA
ATOM      3  N   UNL     1       6.870   7.898  17.633  0.00  0.00    +0.000 N 
ATOM      4  H   UNL     1       6.123   8.417  18.078  0.00  0.00    +0.000 HD
ENDROOT
BRANCH   1   5
ATOM      5  C   UNL     1       5.106   6.254  17.119  0.00  0.00    +0.000 C 
BRANCH   5   7
ATOM      6  C   UNL     1       6.014   5.169  19.096  0.00  0.00    +0.000 C 
ATOM      7  N   UNL     1       4.791   5.437  18.316  0.00  0.00    +0.000 NA
BRANCH   7   8
ATOM      8  C   UNL     1       4.200   4.142  17.883  0.00  0.00    +0.000 C 
BRANCH   8   9
ATOM      9  C   UNL     1       2.903   3.785  18.600  0.00  0.00    +0.000 A 
ATOM     10  C   UNL     1       2.430   4.595  19.634  0.00  0.00    +0.000 A 
ATOM     11  C   UNL     1       1.303   4.190  20.344  0.00  0.00    +0.000 A 
ATOM     12  C   UNL     1       0.674   3.001  20.003  0.00  0.00    +0.000 A 
ATOM     13  C   UNL     1       1.193   2.264  18.954  0.00  0.00    +0.000 A 
ATOM     14  N   UNL     1       2.289   2.627  18.245  0.00  0.00    +0.000 NA
ENDBRANCH   8   9
ENDBRANCH   7   8
ENDBRANCH   5   7
ENDBRANCH   1   5
BRANCH   3  15
ATOM     15  C   UNL     1       8.226   8.405  17.703  0.00  0.00    +0.000 C 
BRANCH  15  16
ATOM     16  C   UNL     1       8.274   9.862  18.149  0.00  0.00    +0.000 C 
BRANCH  16  17
ATOM     17  C   UNL     1       9.285  10.041  19.278  0.00  0.00    +0.000 C 
BRANCH  17  18
ATOM     18  N   UNL     1      10.261  11.072  18.978  0.00  0.00    +0.000 N 
ATOM     19  C   UNL     1      10.601  11.539  17.740  0.00  0.00    +0.000 A 
ATOM     20  C   UNL     1      11.542  12.513  17.954  0.00  0.00    +0.000 A 
ATOM     21 CL   UNL     1      12.333  13.476  16.812  0.00  0.00    +0.000 Cl
ATOM     22  C   UNL     1      11.716  12.550  19.349  0.00  0.00    +0.000 A 
ATOM     23  N   UNL     1      10.935  11.668  19.982  0.00  0.00    +0.000 NA
ENDBRANCH  17  18
ENDBRANCH  16  17
ENDBRANCH  15  16
ENDBRANCH   3  15
TORSDOF 8
ENDMDL
MODEL 8
REMARK VINA RESULT:      -6.5      4.580      8.316
REMARK  Name = 
REMARK  9 active torsions:
REMARK  status: ('A' for Active; 'I' for Inactive)
REMARK    1  A    between atoms: C_1  and  N_2
REMARK    2  A    between atoms: N_2  and  C_3
REMARK    3  A    between atoms: N_2  and  C_16
REMARK    4  A    between atoms: C_3  and  C_4
REMARK    5  A    between atoms: N_6  and  C_7
REMARK    6  A    between atoms: C_7  and  C_8
REMARK    7  A    between atoms: C_8  and  C_9
REMARK    8  A    between atoms: C_9  and  N_10
REMARK    9  A    between atoms: C_16  and  C_17
REMARK                            x       y       z     vdW  Elec       q    Type
REMARK                         _______ _______ _______ _____ _____    ______ ____
ROOT
ATOM      1  C   UNL     1       7.303   6.044  17.173  0.00  0.00    +0.000 C 
ATOM      2  O   UNL     1       7.471   6.170  15.961  0.00  0.00    +0.000 OA
ATOM      3  N   UNL     1       7.480   7.086  18.060  0.00  0.00    +0.000 N 
ATOM      4  H   UNL     1       7.383   6.907  19.052  0.00  0.00    +0.000 HD
ENDROOT
BRANCH   1   5
ATOM      5  C   UNL     1       6.879   4.709  17.810  0.00  0.00    +0.000 C 
BRANCH   5   7
ATOM      6  C   UNL     1       4.740   5.626  17.109  0.00  0.00    +0.000 C 
ATOM      7  N   UNL     1       5.405   4.584  17.914  0.00  0.00    +0.000 NA
BRANCH   7   8
ATOM      8  C   UNL     1       5.000   4.742  19.338  0.00  0.00    +0.000 C 
BRANCH   8   9
ATOM      9  C   UNL     1       3.594   4.238  19.638  0.00  0.00    +0.000 A 
ATOM     10  C   UNL     1       3.196   2.973  19.202  0.00  0.00    +0.000 A 
ATOM     11  C   UNL     1       1.875   2.579  19.395  0.00  0.00    +0.000 A 
ATOM     12  C   UNL     1       0.990   3.446  20.020  0.00  0.00    +0.000 A 
ATOM     13  C   UNL     1       1.465   4.675  20.440  0.00  0.00    +0.000 A 
ATOM     14  N   UNL     1       2.743   5.090  20.266  0.00  0.00    +0.000 NA
ENDBRANCH   8   9
ENDBRANCH   7   8
ENDBRANCH   5   7
ENDBRANCH   1   5
BRANCH   3  15
ATOM     15  C   UNL     1       7.918   8.394  17.615  0.00  0.00    +0.000 C 
BRANCH  15  16
ATOM     16  C   UNL     1       8.640   9.165  18.714  0.00  0.00    +0.000 C 
BRANCH  16  17
ATOM     17  C   UNL     1       9.113  10.519  18.192  0.00  0.00    +0.000 C 
BRANCH  17  18
ATOM     18  N   UNL     1       9.488  11.418  19.268  0.00  0.00    +0.000 N 
ATOM     19  C   UNL     1       9.905  12.712  19.143  0.00  0.00    +0.000 A 
ATOM     20  C   UNL     1      10.125  13.159  20.421  0.00  0.00    +0.000 A 
ATOM     21 CL   UNL     1      10.634  14.690  20.923  0.00  0.00    +0.000 Cl
ATOM     22  C   UNL     1       9.830  12.059  21.246  0.00  0.00    +0.000 A 
ATOM     23  N   UNL     1       9.441  10.988  20.545  0.00  0.00    +0.000 NA
ENDBRANCH  17  18
ENDBRANCH  16  17
ENDBRANCH  15  16
ENDBRANCH   3  15
TORSDOF 8
ENDMDL
MODEL 9
REMARK VINA RESULT:      -6.5      4.332      8.449
REMARK  Name = 
REMARK  9 active torsions:
REMARK  status: ('A' for Active; 'I' for Inactive)
REMARK    1  A    between atoms: C_1  and  N_2
REMARK    2  A    between atoms: N_2  and  C_3
REMARK    3  A    between atoms: N_2  and  C_16
REMARK    4  A    between atoms: C_3  and  C_4
REMARK    5  A    between atoms: N_6  and  C_7
REMARK    6  A    between atoms: C_7  and  C_8
REMARK    7  A    between atoms: C_8  and  C_9
REMARK    8  A    between atoms: C_9  and  N_10
REMARK    9  A    between atoms: C_16  and  C_17
REMARK                            x       y       z     vdW  Elec       q    Type
REMARK                         _______ _______ _______ _____ _____    ______ ____
ROOT
ATOM      1  C   UNL     1       6.599   5.701  19.166  0.00  0.00    +0.000 C 
ATOM      2  O   UNL     1       7.380   5.346  20.047  0.00  0.00    +0.000 OA
ATOM      3  N   UNL     1       6.921   6.661  18.228  0.00  0.00    +0.000 N 
ATOM      4  H   UNL     1       6.216   6.953  17.562  0.00  0.00    +0.000 HD
ENDROOT
BRANCH   1   5
ATOM      5  C   UNL     1       5.187   5.104  19.029  0.00  0.00    +0.000 C 
BRANCH   5   7
ATOM      6  C   UNL     1       4.282   5.014  16.775  0.00  0.00    +0.000 C 
ATOM      7  N   UNL     1       5.046   4.282  17.803  0.00  0.00    +0.000 NA
BRANCH   7   8
ATOM      8  C   UNL     1       4.324   3.024  18.137  0.00  0.00    +0.000 C 
BRANCH   8   9
ATOM      9  C   UNL     1       3.259   3.192  19.215  0.00  0.00    +0.000 A 
ATOM     10  C   UNL     1       3.462   2.658  20.488  0.00  0.00    +0.000 A 
ATOM     11  C   UNL     1       2.431   2.732  21.421  0.00  0.00    +0.000 A 
ATOM     12  C   UNL     1       1.235   3.340  21.068  0.00  0.00    +0.000 A 
ATOM     13  C   UNL     1       1.118   3.862  19.793  0.00  0.00    +0.000 A 
ATOM     14  N   UNL     1       2.100   3.805  18.860  0.00  0.00    +0.000 NA
ENDBRANCH   8   9
ENDBRANCH   7   8
ENDBRANCH   5   7
ENDBRANCH   1   5
BRANCH   3  15
ATOM     15  C   UNL     1       8.200   7.344  18.253  0.00  0.00    +0.000 C 
BRANCH  15  16
ATOM     16  C   UNL     1       8.066   8.830  17.940  0.00  0.00    +0.000 C 
BRANCH  16  17
ATOM     17  C   UNL     1       8.941   9.654  18.881  0.00  0.00    +0.000 C 
BRANCH  17  18
ATOM     18  N   UNL     1       9.337  10.918  18.290  0.00  0.00    +0.000 N 
ATOM     19  C   UNL     1      10.610  11.318  17.997  0.00  0.00    +0.000 A 
ATOM     20  C   UNL     1      10.489  12.566  17.439  0.00  0.00    +0.000 A 
ATOM     21 CL   UNL     1      11.712  13.574  16.852  0.00  0.00    +0.000 Cl
ATOM     22  C   UNL     1       9.110  12.839  17.454  0.00  0.00    +0.000 A 
ATOM     23  N   UNL     1       8.399  11.833  17.976  0.00  0.00    +0.000 NA
ENDBRANCH  17  18
ENDBRANCH  16  17
ENDBRANCH  15  16
ENDBRANCH   3  15
TORSDOF 8
ENDMDL
