MODEL 1
REMARK VINA RESULT:      -7.6      0.000      0.000
REMARK  Name = 
REMARK  11 active torsions:
REMARK  status: ('A' for Active; 'I' for Inactive)
REMARK    1  A    between atoms: C_1  and  C_2
REMARK    2  A    between atoms: C_2  and  C_3
REMARK    3  A    between atoms: N_5  and  C_6
REMARK    4  A    between atoms: N_5  and  C_12
REMARK    5  A    between atoms: C_12  and  C_13
REMARK    6  A    between atoms: C_13  and  O_14
REMARK    7  A    between atoms: O_14  and  C_15
REMARK    8  A    between atoms: N_18  and  C_19
REMARK    9  A    between atoms: C_19  and  C_20
REMARK   10  A    between atoms: C_20  and  N_21
REMARK   11  A    between atoms: C_22  and  C_23
REMARK                            x       y       z     vdW  Elec       q    Type
REMARK                         _______ _______ _______ _____ _____    ______ ____
ROOT
ATOM      1  C   UNL     1       4.427   5.653  18.665  0.00  0.00    +0.000 C 
ATOM      2  C   UNL     1       3.735   6.411  19.830  0.00  0.00    +0.000 C 
ATOM      3  C   UNL     1       2.454   7.135  19.416  0.00  0.00    +0.000 C 
ATOM      4  N   UNL     1       2.675   8.133  18.366  0.00  0.00    +0.000 NA
ATOM      5  C   UNL     1       3.355   7.547  17.194  0.00  0.00    +0.000 C 
ATOM      6  C   UNL     1       4.593   6.712  17.523  0.00  0.00    +0.000 C 
ENDROOT
BRANCH   1   9
ATOM      7  C   UNL     1       3.792   3.550  17.183  0.00  0.00    +0.000 C 
ATOM      8  O   UNL     1       3.372   2.388  17.129  0.00  0.00    +0.000 OA
ATOM      9  N   UNL     1       3.618   4.376  18.317  0.00  0.00    +0.000 N 
BRANCH   9  10
ATOM     10  C   UNL     1       2.804   3.803  19.352  0.00  0.00    +0.000 A 
ATOM     11  C   UNL     1       3.378   3.128  20.443  0.00  0.00    +0.000 A 
ATOM     12  C   UNL     1       2.583   2.568  21.445  0.00  0.00    +0.000 A 
ATOM     13  C   UNL     1       1.191   2.655  21.355  0.00  0.00    +0.000 A 
ATOM     14  C   UNL     1       0.607   3.272  20.247  0.00  0.00    +0.000 A 
ATOM     15  C   UNL     1       1.403   3.836  19.248  0.00  0.00    +0.000 A 
ENDBRANCH   9  10
BRANCH   7  17
ATOM     16  C   UNL     1       5.890   3.713  15.748  0.00  0.00    +0.000 C 
ATOM     17  C   UNL     1       4.437   4.135  15.939  0.00  0.00    +0.000 C 
ENDBRANCH   7  17
ENDBRANCH   1   9
BRANCH   1  18
ATOM     18  C   UNL     1       5.899   5.322  19.104  0.00  0.00    +0.000 C 
BRANCH  18  19
ATOM     19  O   UNL     1       6.853   6.019  18.299  0.00  0.00    +0.000 OA
ATOM     20  C   UNL     1       8.074   6.226  18.999  0.00  0.00    +0.000 C 
ENDBRANCH  18  19
ENDBRANCH   1  18
BRANCH   4  21
ATOM     21  C   UNL     1       1.394   8.735  17.910  0.00  0.00    +0.000 C 
BRANCH  21  22
ATOM     22  C   UNL     1       1.165  10.252  18.145  0.00  0.00    +0.000 C 
BRANCH  22  23
ATOM     23  N   UNL     1       0.454  10.588  19.373  0.00  0.00    +0.000 N 
ATOM     24  C   UNL     1       1.087  11.225  20.415  0.00  0.00    +0.000 A 
ATOM     25  C   UNL     1       1.700  12.550  20.042  0.00  0.00    +0.000 C 
ATOM     26  N   UNL     1       0.647  11.062  21.624  0.00  0.00    +0.000 NA
ATOM     27  C   UNL     1      -0.717  11.404  21.700  0.00  0.00    +0.000 A 
ATOM     28  C   UNL     1      -1.180  11.977  22.881  0.00  0.00    +0.000 A 
ATOM     29  C   UNL     1      -2.267  12.846  22.835  0.00  0.00    +0.000 A 
ATOM     30  C   UNL     1      -2.897  13.118  21.615  0.00  0.00    +0.000 A 
ATOM     31  C   UNL     1      -2.533  12.421  20.460  0.00  0.00    +0.000 A 
ATOM     32  C   UNL     1      -1.467  11.526  20.520  0.00  0.00    +0.000 A 
ATOM     33  C   UNL     1      -0.904  10.886  19.297  0.00  0.00    +0.000 A 
ATOM     34  O   UNL     1      -1.590  10.782  18.285  0.00  0.00    +0.000 OA
ENDBRANCH  22  23
ENDBRANCH  21  22
ENDBRANCH   4  21
TORSDOF 8
ENDMDL
MODEL 2
REMARK VINA RESULT:      -7.2      1.759      2.835
REMARK  Name = 
REMARK  11 active torsions:
REMARK  status: ('A' for Active; 'I' for Inactive)
REMARK    1  A    between atoms: C_1  and  C_2
REMARK    2  A    between atoms: C_2  and  C_3
REMARK    3  A    between atoms: N_5  and  C_6
REMARK    4  A    between atoms: N_5  and  C_12
REMARK    5  A    between atoms: C_12  and  C_13
REMARK    6  A    between atoms: C_13  and  O_14
REMARK    7  A    between atoms: O_14  and  C_15
REMARK    8  A    between atoms: N_18  and  C_19
REMARK    9  A    between atoms: C_19  and  C_20
REMARK   10  A    between atoms: C_20  and  N_21
REMARK   11  A    between atoms: C_22  and  C_23
REMARK                            x       y       z     vdW  Elec       q    Type
REMARK                         _______ _______ _______ _____ _____    ______ ____
ROOT
ATOM      1  C   UNL     1       4.371   5.001  17.183  0.00  0.00    +0.000 C 
ATOM      2  C   UNL     1       4.920   6.340  16.622  0.00  0.00    +0.000 C 
ATOM      3  C   UNL     1       4.383   7.575  17.346  0.00  0.00    +0.000 C 
ATOM      4  N   UNL     1       2.923   7.685  17.284  0.00  0.00    +0.000 NA
ATOM      5  C   UNL     1       2.265   6.456  17.771  0.00  0.00    +0.000 C 
ATOM      6  C   UNL     1       2.813   5.157  17.178  0.00  0.00    +0.000 C 
ENDROOT
BRANCH   1   9
ATOM      7  C   UNL     1       6.281   5.177  19.012  0.00  0.00    +0.000 C 
ATOM      8  O   UNL     1       6.596   5.186  20.208  0.00  0.00    +0.000 OA
ATOM      9  N   UNL     1       5.034   4.694  18.551  0.00  0.00    +0.000 N 
BRANCH   9  10
ATOM     10  C   UNL     1       4.214   4.099  19.568  0.00  0.00    +0.000 A 
ATOM     11  C   UNL     1       4.261   2.718  19.829  0.00  0.00    +0.000 A 
ATOM     12  C   UNL     1       3.458   2.143  20.815  0.00  0.00    +0.000 A 
ATOM     13  C   UNL     1       2.571   2.941  21.542  0.00  0.00    +0.000 A 
ATOM     14  C   UNL     1       2.473   4.304  21.252  0.00  0.00    +0.000 A 
ATOM     15  C   UNL     1       3.280   4.880  20.269  0.00  0.00    +0.000 A 
ENDBRANCH   9  10
BRANCH   7  17
ATOM     16  C   UNL     1       7.972   6.954  18.327  0.00  0.00    +0.000 C 
ATOM     17  C   UNL     1       7.320   5.615  17.996  0.00  0.00    +0.000 C 
ENDBRANCH   7  17
ENDBRANCH   1   9
BRANCH   1  18
ATOM     18  C   UNL     1       4.651   3.876  16.122  0.00  0.00    +0.000 C 
BRANCH  18  19
ATOM     19  O   UNL     1       6.018   3.883  15.702  0.00  0.00    +0.000 OA
ATOM     20  C   UNL     1       6.127   3.862  14.283  0.00  0.00    +0.000 C 
ENDBRANCH  18  19
ENDBRANCH   1  18
BRANCH   4  21
ATOM     21  C   UNL     1       2.429   8.831  18.092  0.00  0.00    +0.000 C 
BRANCH  21  22
ATOM     22  C   UNL     1       1.528   8.536  19.320  0.00  0.00    +0.000 C 
BRANCH  22  23
ATOM     23  N   UNL     1       1.049   9.713  20.034  0.00  0.00    +0.000 N 
ATOM     24  C   UNL     1       0.333  10.697  19.394  0.00  0.00    +0.000 A 
ATOM     25  C   UNL     1      -0.928  10.204  18.732  0.00  0.00    +0.000 C 
ATOM     26  N   UNL     1       0.360  11.909  19.854  0.00  0.00    +0.000 NA
ATOM     27  C   UNL     1      -0.031  11.930  21.206  0.00  0.00    +0.000 A 
ATOM     28  C   UNL     1      -0.732  13.041  21.666  0.00  0.00    +0.000 A 
ATOM     29  C   UNL     1      -1.627  12.892  22.722  0.00  0.00    +0.000 A 
ATOM     30  C   UNL     1      -1.796  11.642  23.327  0.00  0.00    +0.000 A 
ATOM     31  C   UNL     1      -0.977  10.567  22.972  0.00  0.00    +0.000 A 
ATOM     32  C   UNL     1      -0.059  10.732  21.938  0.00  0.00    +0.000 A 
ATOM     33  C   UNL     1       0.717   9.587  21.381  0.00  0.00    +0.000 A 
ATOM     34  O   UNL     1       0.899   8.580  22.057  0.00  0.00    +0.000 OA
ENDBRANCH  22  23
ENDBRANCH  21  22
ENDBRANCH   4  21
TORSDOF 8
ENDMDL
MODEL 3
REMARK VINA RESULT:      -7.2      1.256      1.516
REMARK  Name = 
REMARK  11 active torsions:
REMARK  status: ('A' for Active; 'I' for Inactive)
REMARK    1  A    between atoms: C_1  and  C_2
REMARK    2  A    between atoms: C_2  and  C_3
REMARK    3  A    between atoms: N_5  and  C_6
REMARK    4  A    between atoms: N_5  and  C_12
REMARK    5  A    between atoms: C_12  and  C_13
REMARK    6  A    between atoms: C_13  and  O_14
REMARK    7  A    between atoms: O_14  and  C_15
REMARK    8  A    between atoms: N_18  and  C_19
REMARK    9  A    between atoms: C_19  and  C_20
REMARK   10  A    between atoms: C_20  and  N_21
REMARK   11  A    between atoms: C_22  and  C_23
REMARK                            x       y       z     vdW  Elec       q    Type
REMARK                         _______ _______ _______ _____ _____    ______ ____
ROOT
ATOM      1  C   UNL     1       4.497   5.814  18.664  0.00  0.00    +0.000 C 
ATOM      2  C   UNL     1       3.663   6.560  19.740  0.00  0.00    +0.000 C 
ATOM      3  C   UNL     1       2.451   7.298  19.174  0.00  0.00    +0.000 C 
ATOM      4  N   UNL     1       2.810   8.309  18.177  0.00  0.00    +0.000 NA
ATOM      5  C   UNL     1       3.634   7.735  17.094  0.00  0.00    +0.000 C 
ATOM      6  C   UNL     1       4.815   6.887  17.568  0.00  0.00    +0.000 C 
ENDROOT
BRANCH   1   9
ATOM      7  C   UNL     1       3.980   3.800  17.020  0.00  0.00    +0.000 C 
ATOM      8  O   UNL     1       3.588   2.637  16.870  0.00  0.00    +0.000 OA
ATOM      9  N   UNL     1       3.734   4.547  18.195  0.00  0.00    +0.000 N 
BRANCH   9  10
ATOM     10  C   UNL     1       2.884   3.893  19.149  0.00  0.00    +0.000 A 
ATOM     11  C   UNL     1       3.420   3.208  20.255  0.00  0.00    +0.000 A 
ATOM     12  C   UNL     1       2.591   2.569  21.178  0.00  0.00    +0.000 A 
ATOM     13  C   UNL     1       1.206   2.584  20.994  0.00  0.00    +0.000 A 
ATOM     14  C   UNL     1       0.665   3.211  19.869  0.00  0.00    +0.000 A 
ATOM     15  C   UNL     1       1.494   3.853  18.948  0.00  0.00    +0.000 A 
ENDBRANCH   9  10
BRANCH   7  17
ATOM     16  C   UNL     1       5.757   3.625  15.204  0.00  0.00    +0.000 C 
ATOM     17  C   UNL     1       4.669   4.478  15.849  0.00  0.00    +0.000 C 
ENDBRANCH   7  17
ENDBRANCH   1   9
BRANCH   1  18
ATOM     18  C   UNL     1       5.898   5.467  19.285  0.00  0.00    +0.000 C 
BRANCH  18  19
ATOM     19  O   UNL     1       6.480   4.324  18.653  0.00  0.00    +0.000 OA
ATOM     20  C   UNL     1       7.699   4.656  17.997  0.00  0.00    +0.000 C 
ENDBRANCH  18  19
ENDBRANCH   1  18
BRANCH   4  21
ATOM     21  C   UNL     1       1.602   8.927  17.567  0.00  0.00    +0.000 C 
BRANCH  21  22
ATOM     22  C   UNL     1       0.349   9.135  18.458  0.00  0.00    +0.000 C 
BRANCH  22  23
ATOM     23  N   UNL     1       0.421  10.267  19.373  0.00  0.00    +0.000 N 
ATOM     24  C   UNL     1       0.195  11.553  18.941  0.00  0.00    +0.000 A 
ATOM     25  C   UNL     1      -1.156  11.757  18.306  0.00  0.00    +0.000 C 
ATOM     26  N   UNL     1       0.739  12.545  19.574  0.00  0.00    +0.000 NA
ATOM     27  C   UNL     1       0.396  12.504  20.939  0.00  0.00    +0.000 A 
ATOM     28  C   UNL     1       0.239  13.714  21.609  0.00  0.00    +0.000 A 
ATOM     29  C   UNL     1      -0.632  13.783  22.693  0.00  0.00    +0.000 A 
ATOM     30  C   UNL     1      -1.320  12.640  23.114  0.00  0.00    +0.000 A 
ATOM     31  C   UNL     1      -1.041  11.396  22.544  0.00  0.00    +0.000 A 
ATOM     32  C   UNL     1      -0.142  11.327  21.483  0.00  0.00    +0.000 A 
ATOM     33  C   UNL     1       0.068  10.071  20.706  0.00  0.00    +0.000 A 
ATOM     34  O   UNL     1      -0.198   8.985  21.209  0.00  0.00    +0.000 OA
ENDBRANCH  22  23
ENDBRANCH  21  22
ENDBRANCH   4  21
TORSDOF 8
ENDMDL
MODEL 4
REMARK VINA RESULT:      -7.0      1.407      2.369
REMARK  Name = 
REMARK  11 active torsions:
REMARK  status: ('A' for Active; 'I' for Inactive)
REMARK    1  A    between atoms: C_1  and  C_2
REMARK    2  A    between atoms: C_2  and  C_3
REMARK    3  A    between atoms: N_5  and  C_6
REMARK    4  A    between atoms: N_5  and  C_12
REMARK    5  A    between atoms: C_12  and  C_13
REMARK    6  A    between atoms: C_13  and  O_14
REMARK    7  A    between atoms: O_14  and  C_15
REMARK    8  A    between atoms: N_18  and  C_19
REMARK    9  A    between atoms: C_19  and  C_20
REMARK   10  A    between atoms: C_20  and  N_21
REMARK   11  A    between atoms: C_22  and  C_23
REMARK                            x       y       z     vdW  Elec       q    Type
REMARK                         _______ _______ _______ _____ _____    ______ ____
ROOT
ATOM      1  C   UNL     1       4.283   5.134  17.191  0.00  0.00    +0.000 C 
ATOM      2  C   UNL     1       4.557   6.633  16.895  0.00  0.00    +0.000 C 
ATOM      3  C   UNL     1       3.811   7.589  17.826  0.00  0.00    +0.000 C 
ATOM      4  N   UNL     1       2.356   7.430  17.763  0.00  0.00    +0.000 NA
ATOM      5  C   UNL     1       1.951   6.030  18.005  0.00  0.00    +0.000 C 
ATOM      6  C   UNL     1       2.723   4.990  17.191  0.00  0.00    +0.000 C 
ENDROOT
BRANCH   1   9
ATOM      7  C   UNL     1       6.303   5.135  18.907  0.00  0.00    +0.000 C 
ATOM      8  O   UNL     1       6.689   5.048  20.079  0.00  0.00    +0.000 OA
ATOM      9  N   UNL     1       5.020   4.713  18.490  0.00  0.00    +0.000 N 
BRANCH   9  10
ATOM     10  C   UNL     1       4.247   4.059  19.508  0.00  0.00    +0.000 A 
ATOM     11  C   UNL     1       4.313   2.666  19.694  0.00  0.00    +0.000 A 
ATOM     12  C   UNL     1       3.557   2.034  20.682  0.00  0.00    +0.000 A 
ATOM     13  C   UNL     1       2.699   2.787  21.488  0.00  0.00    +0.000 A 
ATOM     14  C   UNL     1       2.582   4.162  21.276  0.00  0.00    +0.000 A 
ATOM     15  C   UNL     1       3.341   4.795  20.290  0.00  0.00    +0.000 A 
ENDBRANCH   9  10
BRANCH   7  17
ATOM     16  C   UNL     1       7.834   7.024  18.149  0.00  0.00    +0.000 C 
ATOM     17  C   UNL     1       7.289   5.628  17.864  0.00  0.00    +0.000 C 
ENDBRANCH   7  17
ENDBRANCH   1   9
BRANCH   1  18
ATOM     18  C   UNL     1       4.749   4.297  15.946  0.00  0.00    +0.000 C 
BRANCH  18  19
ATOM     19  O   UNL     1       5.547   5.083  15.058  0.00  0.00    +0.000 OA
ATOM     20  C   UNL     1       6.331   4.263  14.198  0.00  0.00    +0.000 C 
ENDBRANCH  18  19
ENDBRANCH   1  18
BRANCH   4  21
ATOM     21  C   UNL     1       1.670   8.294  18.761  0.00  0.00    +0.000 C 
BRANCH  21  22
ATOM     22  C   UNL     1       1.396   9.776  18.391  0.00  0.00    +0.000 C 
BRANCH  22  23
ATOM     23  N   UNL     1       0.757  10.566  19.435  0.00  0.00    +0.000 N 
ATOM     24  C   UNL     1       1.374  11.670  19.976  0.00  0.00    +0.000 A 
ATOM     25  C   UNL     1       1.733  12.728  18.966  0.00  0.00    +0.000 C 
ATOM     26  N   UNL     1       1.077  12.040  21.183  0.00  0.00    +0.000 NA
ATOM     27  C   UNL     1      -0.311  12.241  21.308  0.00  0.00    +0.000 A 
ATOM     28  C   UNL     1      -0.749  13.244  22.169  0.00  0.00    +0.000 A 
ATOM     29  C   UNL     1      -1.959  13.882  21.909  0.00  0.00    +0.000 A 
ATOM     30  C   UNL     1      -2.732  13.498  20.808  0.00  0.00    +0.000 A 
ATOM     31  C   UNL     1      -2.370  12.389  20.041  0.00  0.00    +0.000 A 
ATOM     32  C   UNL     1      -1.176  11.732  20.327  0.00  0.00    +0.000 A 
ATOM     33  C   UNL     1      -0.633  10.660  19.444  0.00  0.00    +0.000 A 
ATOM     34  O   UNL     1      -1.383  10.035  18.702  0.00  0.00    +0.000 OA
ENDBRANCH  22  23
ENDBRANCH  21  22
ENDBRANCH   4  21
TORSDOF 8
ENDMDL
MODEL 5
REMARK VINA RESULT:      -6.9      0.563      1.011
REMARK  Name = 
REMARK  11 active torsions:
REMARK  status: ('A' for Active; 'I' for Inactive)
REMARK    1  A    between atoms: C_1  and  C_2
REMARK    2  A    between atoms: C_2  and  C_3
REMARK    3  A    between atoms: N_5  and  C_6
REMARK    4  A    between atoms: N_5  and  C_12
REMARK    5  A    between atoms: C_12  and  C_13
REMARK    6  A    between atoms: C_13  and  O_14
REMARK    7  A    between atoms: O_14  and  C_15
REMARK    8  A    between atoms: N_18  and  C_19
REMARK    9  A    between atoms: C_19  and  C_20
REMARK   10  A    between atoms: C_20  and  N_21
REMARK   11  A    between atoms: C_22  and  C_23
REMARK                            x       y       z     vdW  Elec       q    Type
REMARK                         _______ _______ _______ _____ _____    ______ ____
ROOT
ATOM      1  C   UNL     1       4.577   5.738  18.563  0.00  0.00    +0.000 C 
ATOM      2  C   UNL     1       3.654   6.225  19.712  0.00  0.00    +0.000 C 
ATOM      3  C   UNL     1       2.402   6.954  19.226  0.00  0.00    +0.000 C 
ATOM      4  N   UNL     1       2.706   8.144  18.427  0.00  0.00    +0.000 NA
ATOM      5  C   UNL     1       3.606   7.825  17.299  0.00  0.00    +0.000 C 
ATOM      6  C   UNL     1       4.838   7.002  17.676  0.00  0.00    +0.000 C 
ENDROOT
BRANCH   1   9
ATOM      7  C   UNL     1       4.397   3.879  16.682  0.00  0.00    +0.000 C 
ATOM      8  O   UNL     1       4.063   2.732  16.364  0.00  0.00    +0.000 OA
ATOM      9  N   UNL     1       3.935   4.514  17.857  0.00  0.00    +0.000 N 
BRANCH   9  10
ATOM     10  C   UNL     1       2.948   3.770  18.588  0.00  0.00    +0.000 A 
ATOM     11  C   UNL     1       1.613   3.701  18.151  0.00  0.00    +0.000 A 
ATOM     12  C   UNL     1       0.656   2.980  18.867  0.00  0.00    +0.000 A 
ATOM     13  C   UNL     1       1.017   2.334  20.052  0.00  0.00    +0.000 A 
ATOM     14  C   UNL     1       2.326   2.442  20.527  0.00  0.00    +0.000 A 
ATOM     15  C   UNL     1       3.284   3.160  19.809  0.00  0.00    +0.000 A 
ENDBRANCH   9  10
BRANCH   7  17
ATOM     16  C   UNL     1       5.967   3.795  14.678  0.00  0.00    +0.000 C 
ATOM     17  C   UNL     1       5.263   4.666  15.714  0.00  0.00    +0.000 C 
ENDBRANCH   7  17
ENDBRANCH   1   9
BRANCH   1  18
ATOM     18  C   UNL     1       5.984   5.398  19.177  0.00  0.00    +0.000 C 
BRANCH  18  19
ATOM     19  O   UNL     1       7.044   5.841  18.326  0.00  0.00    +0.000 OA
ATOM     20  C   UNL     1       8.141   6.345  19.080  0.00  0.00    +0.000 C 
ENDBRANCH  18  19
ENDBRANCH   1  18
BRANCH   4  21
ATOM     21  C   UNL     1       1.469   8.761  17.877  0.00  0.00    +0.000 C 
BRANCH  21  22
ATOM     22  C   UNL     1       1.229  10.275  18.119  0.00  0.00    +0.000 C 
BRANCH  22  23
ATOM     23  N   UNL     1       0.506  10.600  19.343  0.00  0.00    +0.000 N 
ATOM     24  C   UNL     1       1.126  11.234  20.393  0.00  0.00    +0.000 A 
ATOM     25  C   UNL     1       1.734  12.565  20.033  0.00  0.00    +0.000 C 
ATOM     26  N   UNL     1       0.678  11.063  21.598  0.00  0.00    +0.000 NA
ATOM     27  C   UNL     1      -0.689  11.395  21.665  0.00  0.00    +0.000 A 
ATOM     28  C   UNL     1      -1.166  11.958  22.845  0.00  0.00    +0.000 A 
ATOM     29  C   UNL     1      -2.258  12.821  22.795  0.00  0.00    +0.000 A 
ATOM     30  C   UNL     1      -2.880  13.095  21.571  0.00  0.00    +0.000 A 
ATOM     31  C   UNL     1      -2.502  12.407  20.416  0.00  0.00    +0.000 A 
ATOM     32  C   UNL     1      -1.431  11.519  20.480  0.00  0.00    +0.000 A 
ATOM     33  C   UNL     1      -0.854  10.889  19.257  0.00  0.00    +0.000 A 
ATOM     34  O   UNL     1      -1.530  10.787  18.240  0.00  0.00    +0.000 OA
ENDBRANCH  22  23
ENDBRANCH  21  22
ENDBRANCH   4  21
TORSDOF 8
ENDMDL
MODEL 6
REMARK VINA RESULT:      -6.9      2.141      8.987
REMARK  Name = 
REMARK  11 active torsions:
REMARK  status: ('A' for Active; 'I' for Inactive)
REMARK    1  A    between atoms: C_1  and  C_2
REMARK    2  A    between atoms: C_2  and  C_3
REMARK    3  A    between atoms: N_5  and  C_6
REMARK    4  A    between atoms: N_5  and  C_12
REMARK    5  A    between atoms: C_12  and  C_13
REMARK    6  A    between atoms: C_13  and  O_14
REMARK    7  A    between atoms: O_14  and  C_15
REMARK    8  A    between atoms: N_18  and  C_19
REMARK    9  A    between atoms: C_19  and  C_20
REMARK   10  A    between atoms: C_20  and  N_21
REMARK   11  A    between atoms: C_22  and  C_23
REMARK                            x       y       z     vdW  Elec       q    Type
REMARK                         _______ _______ _______ _____ _____    ______ ____
ROOT
ATOM      1  C   UNL     1       0.227  11.951  19.582  0.00  0.00    +0.000 C 
ATOM      2  C   UNL     1       0.851  11.001  18.525  0.00  0.00    +0.000 C 
ATOM      3  C   UNL     1       0.880   9.536  18.958  0.00  0.00    +0.000 C 
ATOM      4  N   UNL     1       1.643   9.317  20.189  0.00  0.00    +0.000 NA
ATOM      5  C   UNL     1       1.165  10.185  21.285  0.00  0.00    +0.000 C 
ATOM      6  C   UNL     1       1.002  11.659  20.911  0.00  0.00    +0.000 C 
ENDROOT
BRANCH   1   9
ATOM      7  C   UNL     1      -2.214  12.326  20.547  0.00  0.00    +0.000 C 
ATOM      8  O   UNL     1      -3.428  12.419  20.332  0.00  0.00    +0.000 OA
ATOM      9  N   UNL     1      -1.312  11.756  19.619  0.00  0.00    +0.000 N 
BRANCH   9  10
ATOM     10  C   UNL     1      -1.935  11.179  18.461  0.00  0.00    +0.000 A 
ATOM     11  C   UNL     1      -1.961  11.858  17.230  0.00  0.00    +0.000 A 
ATOM     12  C   UNL     1      -2.572  11.296  16.108  0.00  0.00    +0.000 A 
ATOM     13  C   UNL     1      -3.194  10.048  16.209  0.00  0.00    +0.000 A 
ATOM     14  C   UNL     1      -3.226   9.390  17.440  0.00  0.00    +0.000 A 
ATOM     15  C   UNL     1      -2.610   9.951  18.561  0.00  0.00    +0.000 A 
ENDBRANCH   9  10
BRANCH   7  17
ATOM     16  C   UNL     1      -2.045  11.789  23.031  0.00  0.00    +0.000 C 
ATOM     17  C   UNL     1      -1.693  12.757  21.906  0.00  0.00    +0.000 C 
ENDBRANCH   7  17
ENDBRANCH   1   9
BRANCH   1  18
ATOM     18  C   UNL     1       0.630  13.425  19.214  0.00  0.00    +0.000 C 
BRANCH  18  19
ATOM     19  O   UNL     1       1.990  13.696  19.564  0.00  0.00    +0.000 OA
ATOM     20  C   UNL     1       2.705  14.266  18.473  0.00  0.00    +0.000 C 
ENDBRANCH  18  19
ENDBRANCH   1  18
BRANCH   4  21
ATOM     21  C   UNL     1       1.555   7.903  20.641  0.00  0.00    +0.000 C 
BRANCH  21  22
ATOM     22  C   UNL     1       1.701   6.779  19.581  0.00  0.00    +0.000 C 
BRANCH  22  23
ATOM     23  N   UNL     1       3.071   6.444  19.216  0.00  0.00    +0.000 N 
ATOM     24  C   UNL     1       3.643   5.253  19.597  0.00  0.00    +0.000 A 
ATOM     25  C   UNL     1       2.893   4.035  19.123  0.00  0.00    +0.000 C 
ATOM     26  N   UNL     1       4.930   5.176  19.731  0.00  0.00    +0.000 NA
ATOM     27  C   UNL     1       5.572   5.580  18.544  0.00  0.00    +0.000 A 
ATOM     28  C   UNL     1       6.766   4.951  18.202  0.00  0.00    +0.000 A 
ATOM     29  C   UNL     1       7.117   4.843  16.859  0.00  0.00    +0.000 A 
ATOM     30  C   UNL     1       6.288   5.386  15.871  0.00  0.00    +0.000 A 
ATOM     31  C   UNL     1       5.176   6.154  16.225  0.00  0.00    +0.000 A 
ATOM     32  C   UNL     1       4.849   6.288  17.572  0.00  0.00    +0.000 A 
ATOM     33  C   UNL     1       3.580   6.934  18.016  0.00  0.00    +0.000 A 
ATOM     34  O   UNL     1       3.002   7.725  17.279  0.00  0.00    +0.000 OA
ENDBRANCH  22  23
ENDBRANCH  21  22
ENDBRANCH   4  21
TORSDOF 8
ENDMDL
MODEL 7
REMARK VINA RESULT:      -6.8      1.336      3.571
REMARK  Name = 
REMARK  11 active torsions:
REMARK  status: ('A' for Active; 'I' for Inactive)
REMARK    1  A    between atoms: C_1  and  C_2
REMARK    2  A    between atoms: C_2  and  C_3
REMARK    3  A    between atoms: N_5  and  C_6
REMARK    4  A    between atoms: N_5  and  C_12
REMARK    5  A    between atoms: C_12  and  C_13
REMARK    6  A    between atoms: C_13  and  O_14
REMARK    7  A    between atoms: O_14  and  C_15
REMARK    8  A    between atoms: N_18  and  C_19
REMARK    9  A    between atoms: C_19  and  C_20
REMARK   10  A    between atoms: C_20  and  N_21
REMARK   11  A    between atoms: C_22  and  C_23
REMARK                            x       y       z     vdW  Elec       q    Type
REMARK                         _______ _______ _______ _____ _____    ______ ____
ROOT
ATOM      1  C   UNL     1       3.234   4.850  19.317  0.00  0.00    +0.000 C 
ATOM      2  C   UNL     1       1.863   4.903  18.591  0.00  0.00    +0.000 C 
ATOM      3  C   UNL     1       1.680   6.142  17.715  0.00  0.00    +0.000 C 
ATOM      4  N   UNL     1       1.780   7.395  18.469  0.00  0.00    +0.000 NA
ATOM      5  C   UNL     1       3.041   7.468  19.235  0.00  0.00    +0.000 C 
ATOM      6  C   UNL     1       3.362   6.222  20.062  0.00  0.00    +0.000 C 
ENDROOT
BRANCH   1   9
ATOM      7  C   UNL     1       4.265   3.589  17.227  0.00  0.00    +0.000 C 
ATOM      8  O   UNL     1       5.043   3.605  16.266  0.00  0.00    +0.000 OA
ATOM      9  N   UNL     1       4.353   4.504  18.301  0.00  0.00    +0.000 N 
BRANCH   9  10
ATOM     10  C   UNL     1       5.495   5.373  18.250  0.00  0.00    +0.000 A 
ATOM     11  C   UNL     1       5.586   6.405  17.298  0.00  0.00    +0.000 A 
ATOM     12  C   UNL     1       6.700   7.244  17.249  0.00  0.00    +0.000 A 
ATOM     13  C   UNL     1       7.758   7.047  18.140  0.00  0.00    +0.000 A 
ATOM     14  C   UNL     1       7.705   5.990  19.052  0.00  0.00    +0.000 A 
ATOM     15  C   UNL     1       6.589   5.153  19.104  0.00  0.00    +0.000 A 
ENDBRANCH   9  10
BRANCH   7  17
ATOM     16  C   UNL     1       3.613   1.350  18.252  0.00  0.00    +0.000 C 
ATOM     17  C   UNL     1       3.235   2.475  17.294  0.00  0.00    +0.000 C 
ENDBRANCH   7  17
ENDBRANCH   1   9
BRANCH   1  18
ATOM     18  C   UNL     1       3.133   3.790  20.474  0.00  0.00    +0.000 C 
BRANCH  18  19
ATOM     19  O   UNL     1       1.918   3.937  21.212  0.00  0.00    +0.000 OA
ATOM     20  C   UNL     1       1.395   2.676  21.611  0.00  0.00    +0.000 C 
ENDBRANCH  18  19
ENDBRANCH   1  18
BRANCH   4  21
ATOM     21  C   UNL     1       1.710   8.578  17.570  0.00  0.00    +0.000 C 
BRANCH  21  22
ATOM     22  C   UNL     1       1.910   9.988  18.187  0.00  0.00    +0.000 C 
BRANCH  22  23
ATOM     23  N   UNL     1       0.923  10.371  19.188  0.00  0.00    +0.000 N 
ATOM     24  C   UNL     1       1.251  11.199  20.236  0.00  0.00    +0.000 A 
ATOM     25  C   UNL     1       1.795  12.539  19.812  0.00  0.00    +0.000 C 
ATOM     26  N   UNL     1       0.581  11.124  21.344  0.00  0.00    +0.000 NA
ATOM     27  C   UNL     1      -0.795  11.297  21.098  0.00  0.00    +0.000 A 
ATOM     28  C   UNL     1      -1.556  11.939  22.070  0.00  0.00    +0.000 A 
ATOM     29  C   UNL     1      -2.688  12.653  21.687  0.00  0.00    +0.000 A 
ATOM     30  C   UNL     1      -3.066  12.700  20.340  0.00  0.00    +0.000 A 
ATOM     31  C   UNL     1      -2.395  11.925  19.391  0.00  0.00    +0.000 A 
ATOM     32  C   UNL     1      -1.284  11.185  19.787  0.00  0.00    +0.000 A 
ATOM     33  C   UNL     1      -0.410  10.484  18.802  0.00  0.00    +0.000 A 
ATOM     34  O   UNL     1      -0.849  10.178  17.698  0.00  0.00    +0.000 OA
ENDBRANCH  22  23
ENDBRANCH  21  22
ENDBRANCH   4  21
TORSDOF 8
ENDMDL
MODEL 8
REMARK VINA RESULT:      -6.7      1.343      1.831
REMARK  Name = 
REMARK  11 active torsions:
REMARK  status: ('A' for Active; 'I' for Inactive)
REMARK    1  A    between atoms: C_1  and  C_2
REMARK    2  A    between atoms: C_2  and  C_3
REMARK    3  A    between atoms: N_5  and  C_6
REMARK    4  A    between atoms: N_5  and  C_12
REMARK    5  A    between atoms: C_12  and  C_13
REMARK    6  A    between atoms: C_13  and  O_14
REMARK    7  A    between atoms: O_14  and  C_15
REMARK    8  A    between atoms: N_18  and  C_19
REMARK    9  A    between atoms: C_19  and  C_20
REMARK   10  A    between atoms: C_20  and  N_21
REMARK   11  A    between atoms: C_22  and  C_23
REMARK                            x       y       z     vdW  Elec       q    Type
REMARK                         _______ _______ _______ _____ _____    ______ ____
ROOT
ATOM      1  C   UNL     1       4.504   5.530  18.674  0.00  0.00    +0.000 C 
ATOM      2  C   UNL     1       3.843   6.306  19.844  0.00  0.00    +0.000 C 
ATOM      3  C   UNL     1       2.625   7.129  19.424  0.00  0.00    +0.000 C 
ATOM      4  N   UNL     1       2.939   8.135  18.405  0.00  0.00    +0.000 NA
ATOM      5  C   UNL     1       3.602   7.531  17.231  0.00  0.00    +0.000 C 
ATOM      6  C   UNL     1       4.770   6.602  17.563  0.00  0.00    +0.000 C 
ENDROOT
BRANCH   1   9
ATOM      7  C   UNL     1       3.724   3.545  17.100  0.00  0.00    +0.000 C 
ATOM      8  O   UNL     1       3.233   2.415  16.995  0.00  0.00    +0.000 OA
ATOM      9  N   UNL     1       3.615   4.323  18.275  0.00  0.00    +0.000 N 
BRANCH   9  10
ATOM     10  C   UNL     1       2.780   3.749  19.293  0.00  0.00    +0.000 A 
ATOM     11  C   UNL     1       1.382   3.895  19.260  0.00  0.00    +0.000 A 
ATOM     12  C   UNL     1       0.575   3.339  20.254  0.00  0.00    +0.000 A 
ATOM     13  C   UNL     1       1.161   2.647  21.318  0.00  0.00    +0.000 A 
ATOM     14  C   UNL     1       2.552   2.545  21.393  0.00  0.00    +0.000 A 
ATOM     15  C   UNL     1       3.359   3.097  20.396  0.00  0.00    +0.000 A 
ENDBRANCH   9  10
BRANCH   7  17
ATOM     16  C   UNL     1       5.796   3.627  15.621  0.00  0.00    +0.000 C 
ATOM     17  C   UNL     1       4.387   4.153  15.876  0.00  0.00    +0.000 C 
ENDBRANCH   7  17
ENDBRANCH   1   9
BRANCH   1  18
ATOM     18  C   UNL     1       5.940   5.084  19.133  0.00  0.00    +0.000 C 
BRANCH  18  19
ATOM     19  O   UNL     1       6.947   5.573  18.244  0.00  0.00    +0.000 OA
ATOM     20  C   UNL     1       7.986   6.241  18.951  0.00  0.00    +0.000 C 
ENDBRANCH  18  19
ENDBRANCH   1  18
BRANCH   4  21
ATOM     21  C   UNL     1       1.714   8.838  17.940  0.00  0.00    +0.000 C 
BRANCH  21  22
ATOM     22  C   UNL     1       1.658  10.384  18.062  0.00  0.00    +0.000 C 
BRANCH  22  23
ATOM     23  N   UNL     1       0.343  10.934  18.366  0.00  0.00    +0.000 N 
ATOM     24  C   UNL     1      -0.599  10.201  19.048  0.00  0.00    +0.000 A 
ATOM     25  C   UNL     1      -0.143   9.726  20.404  0.00  0.00    +0.000 C 
ATOM     26  N   UNL     1      -1.858  10.456  18.871  0.00  0.00    +0.000 NA
ATOM     27  C   UNL     1      -2.125  11.814  19.133  0.00  0.00    +0.000 A 
ATOM     28  C   UNL     1      -3.359  12.141  19.687  0.00  0.00    +0.000 A 
ATOM     29  C   UNL     1      -3.466  13.273  20.491  0.00  0.00    +0.000 A 
ATOM     30  C   UNL     1      -2.346  14.083  20.714  0.00  0.00    +0.000 A 
ATOM     31  C   UNL     1      -1.152  13.843  20.030  0.00  0.00    +0.000 A 
ATOM     32  C   UNL     1      -1.062  12.729  19.200  0.00  0.00    +0.000 A 
ATOM     33  C   UNL     1       0.228  12.305  18.583  0.00  0.00    +0.000 A 
ATOM     34  O   UNL     1       1.133  13.119  18.430  0.00  0.00    +0.000 OA
ENDBRANCH  22  23
ENDBRANCH  21  22
ENDBRANCH   4  21
TORSDOF 8
ENDMDL
MODEL 9
REMARK VINA RESULT:      -6.7      4.600      7.606
REMARK  Name = 
REMARK  11 active torsions:
REMARK  status: ('A' for Active; 'I' for Inactive)
REMARK    1  A    between atoms: C_1  and  C_2
REMARK    2  A    between atoms: C_2  and  C_3
REMARK    3  A    between atoms: N_5  and  C_6
REMARK    4  A    between atoms: N_5  and  C_12
REMARK    5  A    between atoms: C_12  and  C_13
REMARK    6  A    between atoms: C_13  and  O_14
REMARK    7  A    between atoms: O_14  and  C_15
REMARK    8  A    between atoms: N_18  and  C_19
REMARK    9  A    between atoms: C_19  and  C_20
REMARK   10  A    between atoms: C_20  and  N_21
REMARK   11  A    between atoms: C_22  and  C_23
REMARK                            x       y       z     vdW  Elec       q    Type
REMARK                         _______ _______ _______ _____ _____    ______ ____
ROOT
ATOM      1  C   UNL     1       5.539   5.194  16.598  0.00  0.00    +0.000 C 
ATOM      2  C   UNL     1       6.893   4.685  17.162  0.00  0.00    +0.000 C 
ATOM      3  C   UNL     1       7.560   5.663  18.129  0.00  0.00    +0.000 C 
ATOM      4  N   UNL     1       7.845   6.965  17.521  0.00  0.00    +0.000 NA
ATOM      5  C   UNL     1       6.635   7.559  16.917  0.00  0.00    +0.000 C 
ATOM      6  C   UNL     1       5.840   6.615  16.014  0.00  0.00    +0.000 C 
ENDROOT
BRANCH   1   9
ATOM      7  C   UNL     1       3.451   6.075  17.972  0.00  0.00    +0.000 C 
ATOM      8  O   UNL     1       2.423   5.815  18.608  0.00  0.00    +0.000 OA
ATOM      9  N   UNL     1       4.448   5.111  17.699  0.00  0.00    +0.000 N 
BRANCH   9  10
ATOM     10  C   UNL     1       4.234   3.838  18.326  0.00  0.00    +0.000 A 
ATOM     11  C   UNL     1       4.756   3.555  19.601  0.00  0.00    +0.000 A 
ATOM     12  C   UNL     1       4.549   2.314  20.205  0.00  0.00    +0.000 A 
ATOM     13  C   UNL     1       3.834   1.322  19.529  0.00  0.00    +0.000 A 
ATOM     14  C   UNL     1       3.360   1.572  18.239  0.00  0.00    +0.000 A 
ATOM     15  C   UNL     1       3.563   2.814  17.636  0.00  0.00    +0.000 A 
ENDBRANCH   9  10
BRANCH   7  17
ATOM     16  C   UNL     1       2.492   8.429  17.807  0.00  0.00    +0.000 C 
ATOM     17  C   UNL     1       3.687   7.516  17.554  0.00  0.00    +0.000 C 
ENDBRANCH   7  17
ENDBRANCH   1   9
BRANCH   1  18
ATOM     18  C   UNL     1       5.178   4.326  15.338  0.00  0.00    +0.000 C 
BRANCH  18  19
ATOM     19  O   UNL     1       5.734   4.882  14.145  0.00  0.00    +0.000 OA
ATOM     20  C   UNL     1       6.527   3.930  13.445  0.00  0.00    +0.000 C 
ENDBRANCH  18  19
ENDBRANCH   1  18
BRANCH   4  21
ATOM     21  C   UNL     1       8.389   7.925  18.519  0.00  0.00    +0.000 C 
BRANCH  21  22
ATOM     22  C   UNL     1       7.981   9.418  18.406  0.00  0.00    +0.000 C 
BRANCH  22  23
ATOM     23  N   UNL     1       9.068  10.372  18.589  0.00  0.00    +0.000 N 
ATOM     24  C   UNL     1       9.366  11.311  17.630  0.00  0.00    +0.000 A 
ATOM     25  C   UNL     1       8.214  12.219  17.282  0.00  0.00    +0.000 C 
ATOM     26  N   UNL     1      10.572  11.779  17.546  0.00  0.00    +0.000 NA
ATOM     27  C   UNL     1      10.978  12.313  18.784  0.00  0.00    +0.000 A 
ATOM     28  C   UNL     1      11.824  13.418  18.772  0.00  0.00    +0.000 A 
ATOM     29  C   UNL     1      11.779  14.321  19.830  0.00  0.00    +0.000 A 
ATOM     30  C   UNL     1      10.909  14.101  20.904  0.00  0.00    +0.000 A 
ATOM     31  C   UNL     1      10.180  12.913  20.992  0.00  0.00    +0.000 A 
ATOM     32  C   UNL     1      10.255  11.997  19.945  0.00  0.00    +0.000 A 
ATOM     33  C   UNL     1       9.370  10.798  19.880  0.00  0.00    +0.000 A 
ATOM     34  O   UNL     1       8.864  10.351  20.904  0.00  0.00    +0.000 OA
ENDBRANCH  22  23
ENDBRANCH  21  22
ENDBRANCH   4  21
TORSDOF 8
ENDMDL
