MODEL 1
REMARK VINA RESULT:      -6.5      0.000      0.000
REMARK  Name = 
REMARK  5 active torsions:
REMARK  status: ('A' for Active; 'I' for Inactive)
REMARK    1  A    between atoms: C_2  and  C_3
REMARK    2  A    between atoms: C_3  and  C_11
REMARK    3  A    between atoms: C_4  and  C_5
REMARK    4  A    between atoms: N_13  and  C_14
REMARK    5  A    between atoms: C_14  and  C_15
REMARK                            x       y       z     vdW  Elec       q    Type
REMARK                         _______ _______ _______ _____ _____    ______ ____
ROOT
ATOM      1  C   UNL     1       3.302   6.315  17.811  0.00  0.00    +0.000 C 
ATOM      2  C   UNL     1       4.455   6.654  17.207  0.00  0.00    +0.000 C 
ENDROOT
BRANCH   2   3
ATOM      3  C   UNL     1       5.297   5.782  16.470  0.00  0.00    +0.000 A 
ATOM      4  C   UNL     1       5.130   5.295  15.185  0.00  0.00    +0.000 A 
ATOM      5  C   UNL     1       6.269   4.583  14.735  0.00  0.00    +0.000 A 
ATOM      6 BR   UNL     1       6.375   3.864  12.996  0.00  0.00    +0.000 Br
ATOM      7  C   UNL     1       7.266   4.507  15.674  0.00  0.00    +0.000 A 
ATOM      8  S   UNL     1       6.820   5.310  17.117  0.00  0.00    +0.000 S 
ENDBRANCH   2   3
BRANCH   1   9
ATOM      9  C   UNL     1       2.661   4.960  17.795  0.00  0.00    +0.000 C 
ATOM     10  O   UNL     1       1.479   4.805  17.512  0.00  0.00    +0.000 OA
ATOM     11  N   UNL     1       3.483   3.913  18.147  0.00  0.00    +0.000 N 
ATOM     12  H   UNL     1       4.462   4.040  18.377  0.00  0.00    +0.000 HD
BRANCH  11  13
ATOM     13  C   UNL     1       3.012   2.536  18.231  0.00  0.00    +0.000 C 
BRANCH  13  14
ATOM     14  C   UNL     1       2.546   2.171  19.647  0.00  0.00    +0.000 C 
ATOM     15  C   UNL     1       1.107   2.552  19.962  0.00  0.00    +0.000 C 
ATOM     16  C   UNL     1       1.148   2.735  21.459  0.00  0.00    +0.000 C 
ATOM     17  C   UNL     1       2.524   3.321  21.682  0.00  0.00    +0.000 C 
ATOM     18  O   UNL     1       3.370   2.841  20.624  0.00  0.00    +0.000 OA
ENDBRANCH  13  14
ENDBRANCH  11  13
ENDBRANCH   1   9
BRANCH   1  20
ATOM     19  N   UNL     1       1.961   8.362  19.134  0.00  0.00    +0.000 NA
ATOM     20  C   UNL     1       2.569   7.434  18.534  0.00  0.00    +0.000 C 
ENDBRANCH   1  20
TORSDOF 5
ENDMDL
MODEL 2
REMARK VINA RESULT:      -6.4      1.149      1.149
REMARK  Name = 
REMARK  5 active torsions:
REMARK  status: ('A' for Active; 'I' for Inactive)
REMARK    1  A    between atoms: C_2  and  C_3
REMARK    2  A    between atoms: C_3  and  C_11
REMARK    3  A    between atoms: C_4  and  C_5
REMARK    4  A    between atoms: N_13  and  C_14
REMARK    5  A    between atoms: C_14  and  C_15
REMARK                            x       y       z     vdW  Elec       q    Type
REMARK                         _______ _______ _______ _____ _____    ______ ____
ROOT
ATOM      1  C   UNL     1       3.956   6.118  17.774  0.00  0.00    +0.000 C 
ATOM      2  C   UNL     1       4.490   6.467  16.589  0.00  0.00    +0.000 C 
ENDROOT
BRANCH   2   3
ATOM      3  C   UNL     1       5.385   5.683  15.816  0.00  0.00    +0.000 A 
ATOM      4  C   UNL     1       5.133   4.965  14.660  0.00  0.00    +0.000 A 
ATOM      5  C   UNL     1       6.321   4.446  14.088  0.00  0.00    +0.000 A 
ATOM      6 BR   UNL     1       6.312   3.486  12.465  0.00  0.00    +0.000 Br
ATOM      7  C   UNL     1       7.446   4.741  14.814  0.00  0.00    +0.000 A 
ATOM      8  S   UNL     1       7.061   5.661  16.205  0.00  0.00    +0.000 S 
ENDBRANCH   2   3
BRANCH   1   9
ATOM      9  C   UNL     1       4.173   4.822  18.493  0.00  0.00    +0.000 C 
ATOM     10  O   UNL     1       4.920   4.733  19.461  0.00  0.00    +0.000 OA
ATOM     11  N   UNL     1       3.502   3.738  17.975  0.00  0.00    +0.000 N 
ATOM     12  H   UNL     1       2.880   3.810  17.176  0.00  0.00    +0.000 HD
BRANCH  11  13
ATOM     13  C   UNL     1       3.635   2.392  18.520  0.00  0.00    +0.000 C 
BRANCH  13  14
ATOM     14  C   UNL     1       2.630   2.125  19.649  0.00  0.00    +0.000 C 
ATOM     15  C   UNL     1       1.328   2.903  19.540  0.00  0.00    +0.000 C 
ATOM     16  C   UNL     1       0.897   3.004  20.982  0.00  0.00    +0.000 C 
ATOM     17  C   UNL     1       2.215   3.145  21.710  0.00  0.00    +0.000 C 
ATOM     18  O   UNL     1       3.213   2.479  20.920  0.00  0.00    +0.000 OA
ENDBRANCH  13  14
ENDBRANCH  11  13
ENDBRANCH   1   9
BRANCH   1  20
ATOM     19  N   UNL     1       2.225   7.962  18.930  0.00  0.00    +0.000 NA
ATOM     20  C   UNL     1       3.011   7.126  18.406  0.00  0.00    +0.000 C 
ENDBRANCH   1  20
TORSDOF 5
ENDMDL
MODEL 3
REMARK VINA RESULT:      -6.4      2.765      4.430
REMARK  Name = 
REMARK  5 active torsions:
REMARK  status: ('A' for Active; 'I' for Inactive)
REMARK    1  A    between atoms: C_2  and  C_3
REMARK    2  A    between atoms: C_3  and  C_11
REMARK    3  A    between atoms: C_4  and  C_5
REMARK    4  A    between atoms: N_13  and  C_14
REMARK    5  A    between atoms: C_14  and  C_15
REMARK                            x       y       z     vdW  Elec       q    Type
REMARK                         _______ _______ _______ _____ _____    ______ ____
ROOT
ATOM      1  C   UNL     1       3.144   4.128  19.842  0.00  0.00    +0.000 C 
ATOM      2  C   UNL     1       4.332   3.608  19.484  0.00  0.00    +0.000 C 
ENDROOT
BRANCH   2   3
ATOM      3  C   UNL     1       5.141   4.047  18.404  0.00  0.00    +0.000 A 
ATOM      4  C   UNL     1       5.044   3.726  17.061  0.00  0.00    +0.000 A 
ATOM      5  C   UNL     1       5.929   4.495  16.266  0.00  0.00    +0.000 A 
ATOM      6 BR   UNL     1       5.977   4.340  14.388  0.00  0.00    +0.000 Br
ATOM      7  C   UNL     1       6.701   5.361  16.998  0.00  0.00    +0.000 A 
ATOM      8  S   UNL     1       6.349   5.244  18.668  0.00  0.00    +0.000 S 
ENDBRANCH   2   3
BRANCH   1   9
ATOM      9  C   UNL     1       2.458   5.293  19.196  0.00  0.00    +0.000 C 
ATOM     10  O   UNL     1       1.772   5.166  18.188  0.00  0.00    +0.000 OA
ATOM     11  N   UNL     1       2.675   6.514  19.794  0.00  0.00    +0.000 N 
ATOM     12  H   UNL     1       3.239   6.620  20.631  0.00  0.00    +0.000 HD
BRANCH  11  13
ATOM     13  C   UNL     1       2.125   7.758  19.270  0.00  0.00    +0.000 C 
BRANCH  13  14
ATOM     14  C   UNL     1       1.575   8.660  20.384  0.00  0.00    +0.000 C 
ATOM     15  C   UNL     1       0.678   7.955  21.390  0.00  0.00    +0.000 C 
ATOM     16  C   UNL     1      -0.206   9.079  21.870  0.00  0.00    +0.000 C 
ATOM     17  C   UNL     1      -0.383   9.914  20.621  0.00  0.00    +0.000 C 
ATOM     18  O   UNL     1       0.789   9.725  19.811  0.00  0.00    +0.000 OA
ENDBRANCH  13  14
ENDBRANCH  11  13
ENDBRANCH   1   9
BRANCH   1  20
ATOM     19  N   UNL     1       1.912   2.963  22.047  0.00  0.00    +0.000 NA
ATOM     20  C   UNL     1       2.470   3.492  21.047  0.00  0.00    +0.000 C 
ENDBRANCH   1  20
TORSDOF 5
ENDMDL
MODEL 4
REMARK VINA RESULT:      -6.4      1.293      1.882
REMARK  Name = 
REMARK  5 active torsions:
REMARK  status: ('A' for Active; 'I' for Inactive)
REMARK    1  A    between atoms: C_2  and  C_3
REMARK    2  A    between atoms: C_3  and  C_11
REMARK    3  A    between atoms: C_4  and  C_5
REMARK    4  A    between atoms: N_13  and  C_14
REMARK    5  A    between atoms: C_14  and  C_15
REMARK                            x       y       z     vdW  Elec       q    Type
REMARK                         _______ _______ _______ _____ _____    ______ ____
ROOT
ATOM      1  C   UNL     1       2.785   6.868  18.277  0.00  0.00    +0.000 C 
ATOM      2  C   UNL     1       3.971   7.081  17.677  0.00  0.00    +0.000 C 
ENDROOT
BRANCH   2   3
ATOM      3  C   UNL     1       4.821   6.082  17.137  0.00  0.00    +0.000 A 
ATOM      4  C   UNL     1       4.970   5.688  15.818  0.00  0.00    +0.000 A 
ATOM      5  C   UNL     1       6.040   4.774  15.654  0.00  0.00    +0.000 A 
ATOM      6 BR   UNL     1       6.539   4.113  13.961  0.00  0.00    +0.000 Br
ATOM      7  C   UNL     1       6.668   4.459  16.832  0.00  0.00    +0.000 A 
ATOM      8  S   UNL     1       5.958   5.283  18.152  0.00  0.00    +0.000 S 
ENDBRANCH   2   3
BRANCH   1   9
ATOM      9  C   UNL     1       2.113   5.542  18.461  0.00  0.00    +0.000 C 
ATOM     10  O   UNL     1       1.721   4.875  17.510  0.00  0.00    +0.000 OA
ATOM     11  N   UNL     1       1.943   5.141  19.767  0.00  0.00    +0.000 N 
ATOM     12  H   UNL     1       2.271   5.690  20.555  0.00  0.00    +0.000 HD
BRANCH  11  13
ATOM     13  C   UNL     1       1.266   3.902  20.130  0.00  0.00    +0.000 C 
BRANCH  13  14
ATOM     14  C   UNL     1       2.227   2.705  20.152  0.00  0.00    +0.000 C 
ATOM     15  C   UNL     1       3.691   3.067  20.349  0.00  0.00    +0.000 C 
ATOM     16  C   UNL     1       4.396   1.921  19.668  0.00  0.00    +0.000 C 
ATOM     17  C   UNL     1       3.477   1.613  18.507  0.00  0.00    +0.000 C 
ATOM     18  O   UNL     1       2.148   1.987  18.903  0.00  0.00    +0.000 OA
ENDBRANCH  13  14
ENDBRANCH  11  13
ENDBRANCH   1   9
BRANCH   1  20
ATOM     19  N   UNL     1       1.439   9.132  19.171  0.00  0.00    +0.000 NA
ATOM     20  C   UNL     1       2.050   8.106  18.765  0.00  0.00    +0.000 C 
ENDBRANCH   1  20
TORSDOF 5
ENDMDL
MODEL 5
REMARK VINA RESULT:      -6.3      3.237      4.399
REMARK  Name = 
REMARK  5 active torsions:
REMARK  status: ('A' for Active; 'I' for Inactive)
REMARK    1  A    between atoms: C_2  and  C_3
REMARK    2  A    between atoms: C_3  and  C_11
REMARK    3  A    between atoms: C_4  and  C_5
REMARK    4  A    between atoms: N_13  and  C_14
REMARK    5  A    between atoms: C_14  and  C_15
REMARK                            x       y       z     vdW  Elec       q    Type
REMARK                         _______ _______ _______ _____ _____    ______ ____
ROOT
ATOM      1  C   UNL     1       5.402   4.918  17.496  0.00  0.00    +0.000 C 
ATOM      2  C   UNL     1       5.206   6.183  17.910  0.00  0.00    +0.000 C 
ENDROOT
BRANCH   2   3
ATOM      3  C   UNL     1       3.966   6.746  18.308  0.00  0.00    +0.000 A 
ATOM      4  C   UNL     1       3.283   6.586  19.502  0.00  0.00    +0.000 A 
ATOM      5  C   UNL     1       2.159   7.443  19.589  0.00  0.00    +0.000 A 
ATOM      6 BR   UNL     1       1.072   7.511  21.128  0.00  0.00    +0.000 Br
ATOM      7  C   UNL     1       1.977   8.214  18.470  0.00  0.00    +0.000 A 
ATOM      8  S   UNL     1       3.184   7.901  17.299  0.00  0.00    +0.000 S 
ENDBRANCH   2   3
BRANCH   1   9
ATOM      9  C   UNL     1       4.360   3.846  17.408  0.00  0.00    +0.000 C 
ATOM     10  O   UNL     1       3.542   3.808  16.496  0.00  0.00    +0.000 OA
ATOM     11  N   UNL     1       4.367   2.928  18.434  0.00  0.00    +0.000 N 
ATOM     12  H   UNL     1       5.046   2.955  19.188  0.00  0.00    +0.000 HD
BRANCH  11  13
ATOM     13  C   UNL     1       3.393   1.847  18.533  0.00  0.00    +0.000 C 
BRANCH  13  14
ATOM     14  C   UNL     1       2.304   2.146  19.573  0.00  0.00    +0.000 C 
ATOM     15  C   UNL     1       1.326   3.240  19.175  0.00  0.00    +0.000 C 
ATOM     16  C   UNL     1       0.883   3.773  20.515  0.00  0.00    +0.000 C 
ATOM     17  C   UNL     1       2.142   3.660  21.346  0.00  0.00    +0.000 C 
ATOM     18  O   UNL     1       2.910   2.569  20.812  0.00  0.00    +0.000 OA
ENDBRANCH  13  14
ENDBRANCH  11  13
ENDBRANCH   1   9
BRANCH   1  20
ATOM     19  N   UNL     1       8.016   4.237  16.831  0.00  0.00    +0.000 NA
ATOM     20  C   UNL     1       6.830   4.546  17.132  0.00  0.00    +0.000 C 
ENDBRANCH   1  20
TORSDOF 5
ENDMDL
MODEL 6
REMARK VINA RESULT:      -6.2      2.810      4.437
REMARK  Name = 
REMARK  5 active torsions:
REMARK  status: ('A' for Active; 'I' for Inactive)
REMARK    1  A    between atoms: C_2  and  C_3
REMARK    2  A    between atoms: C_3  and  C_11
REMARK    3  A    between atoms: C_4  and  C_5
REMARK    4  A    between atoms: N_13  and  C_14
REMARK    5  A    between atoms: C_14  and  C_15
REMARK                            x       y       z     vdW  Elec       q    Type
REMARK                         _______ _______ _______ _____ _____    ______ ____
ROOT
ATOM      1  C   UNL     1       3.178   4.252  19.799  0.00  0.00    +0.000 C 
ATOM      2  C   UNL     1       4.333   3.674  19.424  0.00  0.00    +0.000 C 
ENDROOT
BRANCH   2   3
ATOM      3  C   UNL     1       5.157   4.083  18.344  0.00  0.00    +0.000 A 
ATOM      4  C   UNL     1       5.057   3.754  17.003  0.00  0.00    +0.000 A 
ATOM      5  C   UNL     1       5.964   4.494  16.206  0.00  0.00    +0.000 A 
ATOM      6 BR   UNL     1       6.014   4.323  14.329  0.00  0.00    +0.000 Br
ATOM      7  C   UNL     1       6.757   5.343  16.934  0.00  0.00    +0.000 A 
ATOM      8  S   UNL     1       6.396   5.248  18.603  0.00  0.00    +0.000 S 
ENDBRANCH   2   3
BRANCH   1   9
ATOM      9  C   UNL     1       2.552   5.462  19.174  0.00  0.00    +0.000 C 
ATOM     10  O   UNL     1       2.041   5.427  18.060  0.00  0.00    +0.000 OA
ATOM     11  N   UNL     1       2.618   6.616  19.922  0.00  0.00    +0.000 N 
ATOM     12  H   UNL     1       3.037   6.646  20.845  0.00  0.00    +0.000 HD
BRANCH  11  13
ATOM     13  C   UNL     1       2.104   7.894  19.446  0.00  0.00    +0.000 C 
BRANCH  13  14
ATOM     14  C   UNL     1       0.997   8.445  20.357  0.00  0.00    +0.000 C 
ATOM     15  C   UNL     1       0.745   9.939  20.221  0.00  0.00    +0.000 C 
ATOM     16  C   UNL     1       0.205  10.295  21.583  0.00  0.00    +0.000 C 
ATOM     17  C   UNL     1       0.992   9.383  22.498  0.00  0.00    +0.000 C 
ATOM     18  O   UNL     1       1.337   8.212  21.740  0.00  0.00    +0.000 OA
ENDBRANCH  13  14
ENDBRANCH  11  13
ENDBRANCH   1   9
BRANCH   1  20
ATOM     19  N   UNL     1       1.898   3.128  21.997  0.00  0.00    +0.000 NA
ATOM     20  C   UNL     1       2.479   3.637  21.000  0.00  0.00    +0.000 C 
ENDBRANCH   1  20
TORSDOF 5
ENDMDL
MODEL 7
REMARK VINA RESULT:      -6.0      1.480      2.243
REMARK  Name = 
REMARK  5 active torsions:
REMARK  status: ('A' for Active; 'I' for Inactive)
REMARK    1  A    between atoms: C_2  and  C_3
REMARK    2  A    between atoms: C_3  and  C_11
REMARK    3  A    between atoms: C_4  and  C_5
REMARK    4  A    between atoms: N_13  and  C_14
REMARK    5  A    between atoms: C_14  and  C_15
REMARK                            x       y       z     vdW  Elec       q    Type
REMARK                         _______ _______ _______ _____ _____    ______ ____
ROOT
ATOM      1  C   UNL     1       3.126   7.189  18.540  0.00  0.00    +0.000 C 
ATOM      2  C   UNL     1       3.851   7.426  17.431  0.00  0.00    +0.000 C 
ENDROOT
BRANCH   2   3
ATOM      3  C   UNL     1       4.866   6.586  16.906  0.00  0.00    +0.000 A 
ATOM      4  C   UNL     1       4.780   5.650  15.889  0.00  0.00    +0.000 A 
ATOM      5  C   UNL     1       6.049   5.130  15.536  0.00  0.00    +0.000 A 
ATOM      6 BR   UNL     1       6.266   3.891  14.132  0.00  0.00    +0.000 Br
ATOM      7  C   UNL     1       7.073   5.641  16.292  0.00  0.00    +0.000 A 
ATOM      8  S   UNL     1       6.492   6.766  17.442  0.00  0.00    +0.000 S 
ENDBRANCH   2   3
BRANCH   1   9
ATOM      9  C   UNL     1       3.223   5.978  19.417  0.00  0.00    +0.000 C 
ATOM     10  O   UNL     1       4.303   5.526  19.783  0.00  0.00    +0.000 OA
ATOM     11  N   UNL     1       2.023   5.396  19.757  0.00  0.00    +0.000 N 
ATOM     12  H   UNL     1       1.129   5.771  19.458  0.00  0.00    +0.000 HD
BRANCH  11  13
ATOM     13  C   UNL     1       1.935   4.184  20.563  0.00  0.00    +0.000 C 
BRANCH  13  14
ATOM     14  C   UNL     1       2.034   2.914  19.707  0.00  0.00    +0.000 C 
ATOM     15  C   UNL     1       3.417   2.284  19.659  0.00  0.00    +0.000 C 
ATOM     16  C   UNL     1       3.400   1.580  18.325  0.00  0.00    +0.000 C 
ATOM     17  C   UNL     1       2.579   2.519  17.468  0.00  0.00    +0.000 C 
ATOM     18  O   UNL     1       1.672   3.211  18.342  0.00  0.00    +0.000 OA
ENDBRANCH  13  14
ENDBRANCH  11  13
ENDBRANCH   1   9
BRANCH   1  20
ATOM     19  N   UNL     1       1.219   9.106  19.190  0.00  0.00    +0.000 NA
ATOM     20  C   UNL     1       2.084   8.236  18.895  0.00  0.00    +0.000 C 
ENDBRANCH   1  20
TORSDOF 5
ENDMDL
MODEL 8
REMARK VINA RESULT:      -6.0      3.373      4.666
REMARK  Name = 
REMARK  5 active torsions:
REMARK  status: ('A' for Active; 'I' for Inactive)
REMARK    1  A    between atoms: C_2  and  C_3
REMARK    2  A    between atoms: C_3  and  C_11
REMARK    3  A    between atoms: C_4  and  C_5
REMARK    4  A    between atoms: N_13  and  C_14
REMARK    5  A    between atoms: C_14  and  C_15
REMARK                            x       y       z     vdW  Elec       q    Type
REMARK                         _______ _______ _______ _____ _____    ______ ____
ROOT
ATOM      1  C   UNL     1       3.883   5.619  17.412  0.00  0.00    +0.000 C 
ATOM      2  C   UNL     1       3.905   6.901  17.822  0.00  0.00    +0.000 C 
ENDROOT
BRANCH   2   3
ATOM      3  C   UNL     1       2.841   7.589  18.459  0.00  0.00    +0.000 A 
ATOM      4  C   UNL     1       2.348   7.428  19.743  0.00  0.00    +0.000 A 
ATOM      5  C   UNL     1       1.389   8.417  20.071  0.00  0.00    +0.000 A 
ATOM      6 BR   UNL     1       0.591   8.508  21.777  0.00  0.00    +0.000 Br
ATOM      7  C   UNL     1       1.138   9.291  19.044  0.00  0.00    +0.000 A 
ATOM      8  S   UNL     1       2.079   8.913  17.666  0.00  0.00    +0.000 S 
ENDBRANCH   2   3
BRANCH   1   9
ATOM      9  C   UNL     1       2.746   4.658  17.581  0.00  0.00    +0.000 C 
ATOM     10  O   UNL     1       1.579   5.031  17.614  0.00  0.00    +0.000 OA
ATOM     11  N   UNL     1       3.104   3.336  17.724  0.00  0.00    +0.000 N 
ATOM     12  H   UNL     1       4.070   3.025  17.693  0.00  0.00    +0.000 HD
BRANCH  11  13
ATOM     13  C   UNL     1       2.131   2.274  17.946  0.00  0.00    +0.000 C 
BRANCH  13  14
ATOM     14  C   UNL     1       1.937   1.972  19.438  0.00  0.00    +0.000 C 
ATOM     15  C   UNL     1       0.860   2.799  20.122  0.00  0.00    +0.000 C 
ATOM     16  C   UNL     1       1.339   2.825  21.552  0.00  0.00    +0.000 C 
ATOM     17  C   UNL     1       2.842   2.875  21.395  0.00  0.00    +0.000 C 
ATOM     18  O   UNL     1       3.164   2.225  20.154  0.00  0.00    +0.000 OA
ENDBRANCH  13  14
ENDBRANCH  11  13
ENDBRANCH   1   9
BRANCH   1  20
ATOM     19  N   UNL     1       6.211   4.669  16.224  0.00  0.00    +0.000 NA
ATOM     20  C   UNL     1       5.155   5.101  16.763  0.00  0.00    +0.000 C 
ENDBRANCH   1  20
TORSDOF 5
ENDMDL
MODEL 9
REMARK VINA RESULT:      -5.9      2.400      2.777
REMARK  Name = 
REMARK  5 active torsions:
REMARK  status: ('A' for Active; 'I' for Inactive)
REMARK    1  A    between atoms: C_2  and  C_3
REMARK    2  A    between atoms: C_3  and  C_11
REMARK    3  A    between atoms: C_4  and  C_5
REMARK    4  A    between atoms: N_13  and  C_14
REMARK    5  A    between atoms: C_14  and  C_15
REMARK                            x       y       z     vdW  Elec       q    Type
REMARK                         _______ _______ _______ _____ _____    ______ ____
ROOT
ATOM      1  C   UNL     1       6.311   4.730  17.297  0.00  0.00    +0.000 C 
ATOM      2  C   UNL     1       7.226   4.791  16.313  0.00  0.00    +0.000 C 
ENDROOT
BRANCH   2   3
ATOM      3  C   UNL     1       6.992   4.518  14.941  0.00  0.00    +0.000 A 
ATOM      4  C   UNL     1       5.980   3.770  14.365  0.00  0.00    +0.000 A 
ATOM      5  C   UNL     1       5.986   3.868  12.951  0.00  0.00    +0.000 A 
ATOM      6 BR   UNL     1       4.682   3.020  11.886  0.00  0.00    +0.000 Br
ATOM      7  C   UNL     1       7.002   4.651  12.467  0.00  0.00    +0.000 A 
ATOM      8  S   UNL     1       7.959   5.280  13.737  0.00  0.00    +0.000 S 
ENDBRANCH   2   3
BRANCH   1   9
ATOM      9  C   UNL     1       4.859   4.398  17.134  0.00  0.00    +0.000 C 
ATOM     10  O   UNL     1       4.046   5.220  16.725  0.00  0.00    +0.000 OA
ATOM     11  N   UNL     1       4.499   3.121  17.501  0.00  0.00    +0.000 N 
ATOM     12  H   UNL     1       5.171   2.438  17.836  0.00  0.00    +0.000 HD
BRANCH  11  13
ATOM     13  C   UNL     1       3.122   2.645  17.453  0.00  0.00    +0.000 C 
BRANCH  13  14
ATOM     14  C   UNL     1       2.541   2.417  18.856  0.00  0.00    +0.000 C 
ATOM     15  C   UNL     1       1.123   2.930  19.050  0.00  0.00    +0.000 C 
ATOM     16  C   UNL     1       1.087   3.212  20.531  0.00  0.00    +0.000 C 
ATOM     17  C   UNL     1       2.491   3.702  20.807  0.00  0.00    +0.000 C 
ATOM     18  O   UNL     1       3.357   3.085  19.841  0.00  0.00    +0.000 OA
ENDBRANCH  13  14
ENDBRANCH  11  13
ENDBRANCH   1   9
BRANCH   1  20
ATOM     19  N   UNL     1       7.209   5.370  19.850  0.00  0.00    +0.000 NA
ATOM     20  C   UNL     1       6.802   5.080  18.692  0.00  0.00    +0.000 C 
ENDBRANCH   1  20
TORSDOF 5
ENDMDL
