MODEL 1
REMARK VINA RESULT:      -7.3      0.000      0.000
REMARK  Name = 
REMARK  8 active torsions:
REMARK  status: ('A' for Active; 'I' for Inactive)
REMARK    1  A    between atoms: C_1  and  O_2
REMARK    2  A    between atoms: O_2  and  C_3
REMARK    3  A    between atoms: C_6  and  N_7
REMARK    4  A    between atoms: C_9  and  N_10
REMARK    5  A    between atoms: N_13  and  C_14
REMARK    6  A    between atoms: C_14  and  C_15
REMARK    7  A    between atoms: C_14  and  C_16
REMARK    8  A    between atoms: C_14  and  C_17
REMARK                            x       y       z     vdW  Elec       q    Type
REMARK                         _______ _______ _______ _____ _____    ______ ____
ROOT
ATOM      1  N   UNL     1       5.213   5.752  17.771  0.00  0.00    +0.000 N 
ATOM      2  C   UNL     1       5.914   6.089  16.547  0.00  0.00    +0.000 C 
ATOM      3  C   UNL     1       6.969   4.993  16.386  0.00  0.00    +0.000 C 
ATOM      4  C   UNL     1       7.230   4.524  17.802  0.00  0.00    +0.000 C 
ATOM      5  C   UNL     1       5.941   4.821  18.520  0.00  0.00    +0.000 C 
ATOM      6  O   UNL     1       5.674   4.312  19.600  0.00  0.00    +0.000 OA
ENDROOT
BRANCH   1  10
ATOM      7  C   UNL     1       1.901   8.027  19.197  0.00  0.00    +0.000 A 
ATOM      8  C   UNL     1       2.329   6.896  19.880  0.00  0.00    +0.000 A 
ATOM      9  C   UNL     1       3.405   6.136  19.402  0.00  0.00    +0.000 A 
ATOM     10  C   UNL     1       4.081   6.489  18.227  0.00  0.00    +0.000 A 
ATOM     11  C   UNL     1       3.618   7.618  17.534  0.00  0.00    +0.000 A 
ATOM     12  C   UNL     1       2.533   8.376  18.008  0.00  0.00    +0.000 A 
BRANCH   7  14
ATOM     13  C   UNL     1       0.663  10.033  19.342  0.00  0.00    +0.000 C 
ATOM     14  O   UNL     1       0.847   8.687  19.764  0.00  0.00    +0.000 OA
ENDBRANCH   7  14
ENDBRANCH   1  10
BRANCH   3  15
ATOM     15  N   UNL     1       6.533   3.901  15.514  0.00  0.00    +0.000 N 
ATOM     16  C   UNL     1       6.431   4.144  14.167  0.00  0.00    +0.000 C 
ATOM     17  O   UNL     1       6.737   5.219  13.670  0.00  0.00    +0.000 OA
ATOM     18  N   UNL     1       5.973   3.055  13.472  0.00  0.00    +0.000 N 
ATOM     19  H   UNL     1       5.900   3.208  15.892  0.00  0.00    +0.000 HD
ATOM     20  H   UNL     1       6.066   2.170  13.949  0.00  0.00    +0.000 HD
BRANCH  18  21
ATOM     21  C   UNL     1       5.924   3.012  11.999  0.00  0.00    +0.000 C 
ATOM     22  C   UNL     1       7.075   3.831  11.388  0.00  0.00    +0.000 C 
ATOM     23  C   UNL     1       6.080   1.550  11.540  0.00  0.00    +0.000 C 
ATOM     24  C   UNL     1       4.572   3.528  11.475  0.00  0.00    +0.000 C 
ENDBRANCH  18  21
ENDBRANCH   3  15
TORSDOF 4
ENDMDL
MODEL 2
REMARK VINA RESULT:      -7.1      3.984      6.371
REMARK  Name = 
REMARK  8 active torsions:
REMARK  status: ('A' for Active; 'I' for Inactive)
REMARK    1  A    between atoms: C_1  and  O_2
REMARK    2  A    between atoms: O_2  and  C_3
REMARK    3  A    between atoms: C_6  and  N_7
REMARK    4  A    between atoms: C_9  and  N_10
REMARK    5  A    between atoms: N_13  and  C_14
REMARK    6  A    between atoms: C_14  and  C_15
REMARK    7  A    between atoms: C_14  and  C_16
REMARK    8  A    between atoms: C_14  and  C_17
REMARK                            x       y       z     vdW  Elec       q    Type
REMARK                         _______ _______ _______ _____ _____    ______ ____
ROOT
ATOM      1  N   UNL     1       5.487   5.746  17.933  0.00  0.00    +0.000 N 
ATOM      2  C   UNL     1       6.691   6.182  18.616  0.00  0.00    +0.000 C 
ATOM      3  C   UNL     1       7.618   6.672  17.503  0.00  0.00    +0.000 C 
ATOM      4  C   UNL     1       7.172   5.892  16.284  0.00  0.00    +0.000 C 
ATOM      5  C   UNL     1       5.724   5.590  16.563  0.00  0.00    +0.000 C 
ATOM      6  O   UNL     1       4.959   5.235  15.677  0.00  0.00    +0.000 OA
ENDROOT
BRANCH   1  10
ATOM      7  C   UNL     1       2.073   4.459  20.139  0.00  0.00    +0.000 A 
ATOM      8  C   UNL     1       3.165   3.617  19.968  0.00  0.00    +0.000 A 
ATOM      9  C   UNL     1       4.279   4.031  19.227  0.00  0.00    +0.000 A 
ATOM     10  C   UNL     1       4.331   5.300  18.637  0.00  0.00    +0.000 A 
ATOM     11  C   UNL     1       3.209   6.128  18.794  0.00  0.00    +0.000 A 
ATOM     12  C   UNL     1       2.086   5.710  19.530  0.00  0.00    +0.000 A 
BRANCH   7  14
ATOM     13  C   UNL     1       1.354   2.761  21.615  0.00  0.00    +0.000 C 
ATOM     14  O   UNL     1       1.050   3.944  20.884  0.00  0.00    +0.000 OA
ENDBRANCH   7  14
ENDBRANCH   1  10
BRANCH   3  15
ATOM     15  N   UNL     1       7.542   8.119  17.291  0.00  0.00    +0.000 N 
ATOM     16  C   UNL     1       8.339   8.933  18.058  0.00  0.00    +0.000 C 
ATOM     17  O   UNL     1       9.138   8.488  18.871  0.00  0.00    +0.000 OA
ATOM     18  N   UNL     1       8.141  10.262  17.790  0.00  0.00    +0.000 N 
ATOM     19  H   UNL     1       6.663   8.514  16.986  0.00  0.00    +0.000 HD
ATOM     20  H   UNL     1       7.704  10.461  16.902  0.00  0.00    +0.000 HD
BRANCH  18  21
ATOM     21  C   UNL     1       8.983  11.326  18.369  0.00  0.00    +0.000 C 
ATOM     22  C   UNL     1      10.415  11.256  17.808  0.00  0.00    +0.000 C 
ATOM     23  C   UNL     1       8.385  12.693  17.988  0.00  0.00    +0.000 C 
ATOM     24  C   UNL     1       9.012  11.235  19.905  0.00  0.00    +0.000 C 
ENDBRANCH  18  21
ENDBRANCH   3  15
TORSDOF 4
ENDMDL
MODEL 3
REMARK VINA RESULT:      -7.0      0.342      1.076
REMARK  Name = 
REMARK  8 active torsions:
REMARK  status: ('A' for Active; 'I' for Inactive)
REMARK    1  A    between atoms: C_1  and  O_2
REMARK    2  A    between atoms: O_2  and  C_3
REMARK    3  A    between atoms: C_6  and  N_7
REMARK    4  A    between atoms: C_9  and  N_10
REMARK    5  A    between atoms: N_13  and  C_14
REMARK    6  A    between atoms: C_14  and  C_15
REMARK    7  A    between atoms: C_14  and  C_16
REMARK    8  A    between atoms: C_14  and  C_17
REMARK                            x       y       z     vdW  Elec       q    Type
REMARK                         _______ _______ _______ _____ _____    ______ ____
ROOT
ATOM      1  N   UNL     1       5.272   5.802  17.759  0.00  0.00    +0.000 N 
ATOM      2  C   UNL     1       5.979   6.115  16.532  0.00  0.00    +0.000 C 
ATOM      3  C   UNL     1       7.003   4.991  16.371  0.00  0.00    +0.000 C 
ATOM      4  C   UNL     1       7.254   4.518  17.788  0.00  0.00    +0.000 C 
ATOM      5  C   UNL     1       5.975   4.852  18.508  0.00  0.00    +0.000 C 
ATOM      6  O   UNL     1       5.697   4.353  19.590  0.00  0.00    +0.000 OA
ENDROOT
BRANCH   1  10
ATOM      7  C   UNL     1       1.880   8.032  19.062  0.00  0.00    +0.000 A 
ATOM      8  C   UNL     1       2.608   8.436  17.950  0.00  0.00    +0.000 A 
ATOM      9  C   UNL     1       3.734   7.715  17.533  0.00  0.00    +0.000 A 
ATOM     10  C   UNL     1       4.162   6.571  18.216  0.00  0.00    +0.000 A 
ATOM     11  C   UNL     1       3.433   6.192  19.354  0.00  0.00    +0.000 A 
ATOM     12  C   UNL     1       2.307   6.920  19.780  0.00  0.00    +0.000 A 
BRANCH   7  14
ATOM     13  C   UNL     1       0.781   9.350  20.685  0.00  0.00    +0.000 C 
ATOM     14  O   UNL     1       0.800   8.812  19.367  0.00  0.00    +0.000 OA
ENDBRANCH   7  14
ENDBRANCH   1  10
BRANCH   3  15
ATOM     15  N   UNL     1       6.533   3.909  15.503  0.00  0.00    +0.000 N 
ATOM     16  C   UNL     1       6.445   4.147  14.154  0.00  0.00    +0.000 C 
ATOM     17  O   UNL     1       6.791   5.208  13.653  0.00  0.00    +0.000 OA
ATOM     18  N   UNL     1       5.954   3.071  13.463  0.00  0.00    +0.000 N 
ATOM     19  H   UNL     1       5.875   3.240  15.882  0.00  0.00    +0.000 HD
ATOM     20  H   UNL     1       6.015   2.186  13.946  0.00  0.00    +0.000 HD
BRANCH  18  21
ATOM     21  C   UNL     1       5.910   3.021  11.989  0.00  0.00    +0.000 C 
ATOM     22  C   UNL     1       7.041   3.869  11.379  0.00  0.00    +0.000 C 
ATOM     23  C   UNL     1       6.108   1.562  11.537  0.00  0.00    +0.000 C 
ATOM     24  C   UNL     1       4.547   3.498  11.460  0.00  0.00    +0.000 C 
ENDBRANCH  18  21
ENDBRANCH   3  15
TORSDOF 4
ENDMDL
MODEL 4
REMARK VINA RESULT:      -7.0      0.146      1.380
REMARK  Name = 
REMARK  8 active torsions:
REMARK  status: ('A' for Active; 'I' for Inactive)
REMARK    1  A    between atoms: C_1  and  O_2
REMARK    2  A    between atoms: O_2  and  C_3
REMARK    3  A    between atoms: C_6  and  N_7
REMARK    4  A    between atoms: C_9  and  N_10
REMARK    5  A    between atoms: N_13  and  C_14
REMARK    6  A    between atoms: C_14  and  C_15
REMARK    7  A    between atoms: C_14  and  C_16
REMARK    8  A    between atoms: C_14  and  C_17
REMARK                            x       y       z     vdW  Elec       q    Type
REMARK                         _______ _______ _______ _____ _____    ______ ____
ROOT
ATOM      1  N   UNL     1       5.254   5.811  17.751  0.00  0.00    +0.000 N 
ATOM      2  C   UNL     1       5.952   6.120  16.518  0.00  0.00    +0.000 C 
ATOM      3  C   UNL     1       6.976   4.996  16.354  0.00  0.00    +0.000 C 
ATOM      4  C   UNL     1       7.239   4.530  17.772  0.00  0.00    +0.000 C 
ATOM      5  C   UNL     1       5.965   4.866  18.499  0.00  0.00    +0.000 C 
ATOM      6  O   UNL     1       5.695   4.371  19.586  0.00  0.00    +0.000 OA
ENDROOT
BRANCH   1  10
ATOM      7  C   UNL     1       1.868   8.041  19.069  0.00  0.00    +0.000 A 
ATOM      8  C   UNL     1       2.586   8.440  17.949  0.00  0.00    +0.000 A 
ATOM      9  C   UNL     1       3.710   7.719  17.526  0.00  0.00    +0.000 A 
ATOM     10  C   UNL     1       4.147   6.580  18.213  0.00  0.00    +0.000 A 
ATOM     11  C   UNL     1       3.427   6.206  19.360  0.00  0.00    +0.000 A 
ATOM     12  C   UNL     1       2.303   6.934  19.790  0.00  0.00    +0.000 A 
BRANCH   7  14
ATOM     13  C   UNL     1       0.903  10.196  19.034  0.00  0.00    +0.000 C 
ATOM     14  O   UNL     1       0.789   8.820  19.378  0.00  0.00    +0.000 OA
ENDBRANCH   7  14
ENDBRANCH   1  10
BRANCH   3  15
ATOM     15  N   UNL     1       6.502   3.909  15.495  0.00  0.00    +0.000 N 
ATOM     16  C   UNL     1       6.447   4.127  14.141  0.00  0.00    +0.000 C 
ATOM     17  O   UNL     1       6.824   5.172  13.630  0.00  0.00    +0.000 OA
ATOM     18  N   UNL     1       5.948   3.049  13.458  0.00  0.00    +0.000 N 
ATOM     19  H   UNL     1       5.824   3.260  15.871  0.00  0.00    +0.000 HD
ATOM     20  H   UNL     1       5.981   2.171  13.956  0.00  0.00    +0.000 HD
BRANCH  18  21
ATOM     21  C   UNL     1       5.932   2.976  11.985  0.00  0.00    +0.000 C 
ATOM     22  C   UNL     1       6.099   1.522  11.507  0.00  0.00    +0.000 C 
ATOM     23  C   UNL     1       4.574   3.494  11.477  0.00  0.00    +0.000 C 
ATOM     24  C   UNL     1       7.032   3.862  11.375  0.00  0.00    +0.000 C 
ENDBRANCH  18  21
ENDBRANCH   3  15
TORSDOF 4
ENDMDL
MODEL 5
REMARK VINA RESULT:      -6.9      3.587      6.433
REMARK  Name = 
REMARK  8 active torsions:
REMARK  status: ('A' for Active; 'I' for Inactive)
REMARK    1  A    between atoms: C_1  and  O_2
REMARK    2  A    between atoms: O_2  and  C_3
REMARK    3  A    between atoms: C_6  and  N_7
REMARK    4  A    between atoms: C_9  and  N_10
REMARK    5  A    between atoms: N_13  and  C_14
REMARK    6  A    between atoms: C_14  and  C_15
REMARK    7  A    between atoms: C_14  and  C_16
REMARK    8  A    between atoms: C_14  and  C_17
REMARK                            x       y       z     vdW  Elec       q    Type
REMARK                         _______ _______ _______ _____ _____    ______ ____
ROOT
ATOM      1  N   UNL     1       6.467   5.747  17.194  0.00  0.00    +0.000 N 
ATOM      2  C   UNL     1       5.029   5.805  17.014  0.00  0.00    +0.000 C 
ATOM      3  C   UNL     1       4.626   4.382  16.623  0.00  0.00    +0.000 C 
ATOM      4  C   UNL     1       5.873   3.811  15.979  0.00  0.00    +0.000 C 
ATOM      5  C   UNL     1       6.993   4.583  16.624  0.00  0.00    +0.000 C 
ATOM      6  O   UNL     1       8.152   4.196  16.573  0.00  0.00    +0.000 OA
ENDROOT
BRANCH   1  10
ATOM      7  C   UNL     1       8.637   9.115  18.654  0.00  0.00    +0.000 A 
ATOM      8  C   UNL     1       7.807   9.233  17.546  0.00  0.00    +0.000 A 
ATOM      9  C   UNL     1       7.109   8.123  17.054  0.00  0.00    +0.000 A 
ATOM     10  C   UNL     1       7.222   6.864  17.657  0.00  0.00    +0.000 A 
ATOM     11  C   UNL     1       8.086   6.755  18.758  0.00  0.00    +0.000 A 
ATOM     12  C   UNL     1       8.795   7.867  19.248  0.00  0.00    +0.000 A 
BRANCH   7  14
ATOM     13  C   UNL     1       9.278  11.313  18.078  0.00  0.00    +0.000 C 
ATOM     14  O   UNL     1       9.260  10.267  19.043  0.00  0.00    +0.000 OA
ENDBRANCH   7  14
ENDBRANCH   1  10
BRANCH   3  15
ATOM     15  N   UNL     1       4.177   3.580  17.763  0.00  0.00    +0.000 N 
ATOM     16  C   UNL     1       3.022   3.952  18.405  0.00  0.00    +0.000 C 
ATOM     17  O   UNL     1       2.337   4.892  18.029  0.00  0.00    +0.000 OA
ATOM     18  N   UNL     1       2.738   3.146  19.477  0.00  0.00    +0.000 N 
ATOM     19  H   UNL     1       4.876   3.119  18.330  0.00  0.00    +0.000 HD
ATOM     20  H   UNL     1       3.198   2.247  19.473  0.00  0.00    +0.000 HD
BRANCH  18  21
ATOM     21  C   UNL     1       1.475   3.242  20.234  0.00  0.00    +0.000 C 
ATOM     22  C   UNL     1       1.121   4.711  20.524  0.00  0.00    +0.000 C 
ATOM     23  C   UNL     1       0.342   2.635  19.385  0.00  0.00    +0.000 C 
ATOM     24  C   UNL     1       1.557   2.448  21.549  0.00  0.00    +0.000 C 
ENDBRANCH  18  21
ENDBRANCH   3  15
TORSDOF 4
ENDMDL
MODEL 6
REMARK VINA RESULT:      -6.9      3.563      6.352
REMARK  Name = 
REMARK  8 active torsions:
REMARK  status: ('A' for Active; 'I' for Inactive)
REMARK    1  A    between atoms: C_1  and  O_2
REMARK    2  A    between atoms: O_2  and  C_3
REMARK    3  A    between atoms: C_6  and  N_7
REMARK    4  A    between atoms: C_9  and  N_10
REMARK    5  A    between atoms: N_13  and  C_14
REMARK    6  A    between atoms: C_14  and  C_15
REMARK    7  A    between atoms: C_14  and  C_16
REMARK    8  A    between atoms: C_14  and  C_17
REMARK                            x       y       z     vdW  Elec       q    Type
REMARK                         _______ _______ _______ _____ _____    ______ ____
ROOT
ATOM      1  N   UNL     1       6.412   5.720  17.174  0.00  0.00    +0.000 N 
ATOM      2  C   UNL     1       4.980   5.737  16.939  0.00  0.00    +0.000 C 
ATOM      3  C   UNL     1       4.631   4.302  16.541  0.00  0.00    +0.000 C 
ATOM      4  C   UNL     1       5.916   3.763  15.949  0.00  0.00    +0.000 C 
ATOM      5  C   UNL     1       6.990   4.567  16.631  0.00  0.00    +0.000 C 
ATOM      6  O   UNL     1       8.160   4.212  16.627  0.00  0.00    +0.000 OA
ENDROOT
BRANCH   1  10
ATOM      7  C   UNL     1       8.612   9.106  18.543  0.00  0.00    +0.000 A 
ATOM      8  C   UNL     1       8.752   7.872  19.165  0.00  0.00    +0.000 A 
ATOM      9  C   UNL     1       8.015   6.763  18.729  0.00  0.00    +0.000 A 
ATOM     10  C   UNL     1       7.118   6.860  17.658  0.00  0.00    +0.000 A 
ATOM     11  C   UNL     1       6.966   8.120  17.058  0.00  0.00    +0.000 A 
ATOM     12  C   UNL     1       7.699   9.235  17.501  0.00  0.00    +0.000 A 
BRANCH   7  14
ATOM     13  C   UNL     1       9.482  11.282  18.256  0.00  0.00    +0.000 C 
ATOM     14  O   UNL     1       9.387  10.108  19.055  0.00  0.00    +0.000 OA
ENDBRANCH   7  14
ENDBRANCH   1  10
BRANCH   3  15
ATOM     15  N   UNL     1       4.160   3.494  17.668  0.00  0.00    +0.000 N 
ATOM     16  C   UNL     1       3.070   3.935  18.376  0.00  0.00    +0.000 C 
ATOM     17  O   UNL     1       2.455   4.947  18.067  0.00  0.00    +0.000 OA
ATOM     18  N   UNL     1       2.761   3.112  19.427  0.00  0.00    +0.000 N 
ATOM     19  H   UNL     1       4.839   2.950  18.185  0.00  0.00    +0.000 HD
ATOM     20  H   UNL     1       3.140   2.178  19.367  0.00  0.00    +0.000 HD
BRANCH  18  21
ATOM     21  C   UNL     1       1.544   3.284  20.242  0.00  0.00    +0.000 C 
ATOM     22  C   UNL     1       1.311   4.769  20.573  0.00  0.00    +0.000 C 
ATOM     23  C   UNL     1       0.332   2.777  19.437  0.00  0.00    +0.000 C 
ATOM     24  C   UNL     1       1.625   2.460  21.539  0.00  0.00    +0.000 C 
ENDBRANCH  18  21
ENDBRANCH   3  15
TORSDOF 4
ENDMDL
MODEL 7
REMARK VINA RESULT:      -6.8      3.676      6.478
REMARK  Name = 
REMARK  8 active torsions:
REMARK  status: ('A' for Active; 'I' for Inactive)
REMARK    1  A    between atoms: C_1  and  O_2
REMARK    2  A    between atoms: O_2  and  C_3
REMARK    3  A    between atoms: C_6  and  N_7
REMARK    4  A    between atoms: C_9  and  N_10
REMARK    5  A    between atoms: N_13  and  C_14
REMARK    6  A    between atoms: C_14  and  C_15
REMARK    7  A    between atoms: C_14  and  C_16
REMARK    8  A    between atoms: C_14  and  C_17
REMARK                            x       y       z     vdW  Elec       q    Type
REMARK                         _______ _______ _______ _____ _____    ______ ____
ROOT
ATOM      1  N   UNL     1       6.481   5.814  17.252  0.00  0.00    +0.000 N 
ATOM      2  C   UNL     1       5.040   5.852  17.090  0.00  0.00    +0.000 C 
ATOM      3  C   UNL     1       4.644   4.413  16.757  0.00  0.00    +0.000 C 
ATOM      4  C   UNL     1       5.886   3.829  16.117  0.00  0.00    +0.000 C 
ATOM      5  C   UNL     1       7.008   4.633  16.717  0.00  0.00    +0.000 C 
ATOM      6  O   UNL     1       8.171   4.255  16.664  0.00  0.00    +0.000 OA
ENDROOT
BRANCH   1  10
ATOM      7  C   UNL     1       8.642   9.248  18.559  0.00  0.00    +0.000 A 
ATOM      8  C   UNL     1       7.765   9.330  17.485  0.00  0.00    +0.000 A 
ATOM      9  C   UNL     1       7.069   8.198  17.042  0.00  0.00    +0.000 A 
ATOM     10  C   UNL     1       7.232   6.953  17.662  0.00  0.00    +0.000 A 
ATOM     11  C   UNL     1       8.144   6.880  18.727  0.00  0.00    +0.000 A 
ATOM     12  C   UNL     1       8.850   8.015  19.167  0.00  0.00    +0.000 A 
BRANCH   7  14
ATOM     13  C   UNL     1       9.311  10.705  20.293  0.00  0.00    +0.000 C 
ATOM     14  O   UNL     1       9.258  10.420  18.900  0.00  0.00    +0.000 OA
ENDBRANCH   7  14
ENDBRANCH   1  10
BRANCH   3  15
ATOM     15  N   UNL     1       4.218   3.650  17.932  0.00  0.00    +0.000 N 
ATOM     16  C   UNL     1       2.989   3.927  18.478  0.00  0.00    +0.000 C 
ATOM     17  O   UNL     1       2.226   4.749  17.990  0.00  0.00    +0.000 OA
ATOM     18  N   UNL     1       2.731   3.175  19.594  0.00  0.00    +0.000 N 
ATOM     19  H   UNL     1       4.927   3.319  18.573  0.00  0.00    +0.000 HD
ATOM     20  H   UNL     1       3.291   2.340  19.689  0.00  0.00    +0.000 HD
BRANCH  18  21
ATOM     21  C   UNL     1       1.420   3.175  20.271  0.00  0.00    +0.000 C 
ATOM     22  C   UNL     1       1.505   2.458  21.630  0.00  0.00    +0.000 C 
ATOM     23  C   UNL     1       0.994   4.634  20.523  0.00  0.00    +0.000 C 
ATOM     24  C   UNL     1       0.344   2.516  19.391  0.00  0.00    +0.000 C 
ENDBRANCH  18  21
ENDBRANCH   3  15
TORSDOF 4
ENDMDL
MODEL 8
REMARK VINA RESULT:      -6.8      2.143      2.970
REMARK  Name = 
REMARK  8 active torsions:
REMARK  status: ('A' for Active; 'I' for Inactive)
REMARK    1  A    between atoms: C_1  and  O_2
REMARK    2  A    between atoms: O_2  and  C_3
REMARK    3  A    between atoms: C_6  and  N_7
REMARK    4  A    between atoms: C_9  and  N_10
REMARK    5  A    between atoms: N_13  and  C_14
REMARK    6  A    between atoms: C_14  and  C_15
REMARK    7  A    between atoms: C_14  and  C_16
REMARK    8  A    between atoms: C_14  and  C_17
REMARK                            x       y       z     vdW  Elec       q    Type
REMARK                         _______ _______ _______ _____ _____    ______ ____
ROOT
ATOM      1  N   UNL     1       5.405   5.327  18.310  0.00  0.00    +0.000 N 
ATOM      2  C   UNL     1       5.275   5.970  17.015  0.00  0.00    +0.000 C 
ATOM      3  C   UNL     1       6.712   6.155  16.523  0.00  0.00    +0.000 C 
ATOM      4  C   UNL     1       7.529   6.225  17.797  0.00  0.00    +0.000 C 
ATOM      5  C   UNL     1       6.717   5.435  18.787  0.00  0.00    +0.000 C 
ATOM      6  O   UNL     1       7.199   5.025  19.834  0.00  0.00    +0.000 OA
ENDROOT
BRANCH   1  10
ATOM      7  C   UNL     1       2.087   4.058  20.666  0.00  0.00    +0.000 A 
ATOM      8  C   UNL     1       3.000   3.134  20.173  0.00  0.00    +0.000 A 
ATOM      9  C   UNL     1       4.079   3.548  19.382  0.00  0.00    +0.000 A 
ATOM     10  C   UNL     1       4.275   4.897  19.064  0.00  0.00    +0.000 A 
ATOM     11  C   UNL     1       3.329   5.815  19.545  0.00  0.00    +0.000 A 
ATOM     12  C   UNL     1       2.239   5.400  20.332  0.00  0.00    +0.000 A 
BRANCH   7  14
ATOM     13  C   UNL     1       1.376   2.302  22.077  0.00  0.00    +0.000 C 
ATOM     14  O   UNL     1       1.081   3.534  21.428  0.00  0.00    +0.000 OA
ENDBRANCH   7  14
ENDBRANCH   1  10
BRANCH   3  15
ATOM     15  N   UNL     1       7.158   5.077  15.639  0.00  0.00    +0.000 N 
ATOM     16  C   UNL     1       6.563   4.956  14.408  0.00  0.00    +0.000 C 
ATOM     17  O   UNL     1       5.716   5.744  14.010  0.00  0.00    +0.000 OA
ATOM     18  N   UNL     1       7.041   3.886  13.699  0.00  0.00    +0.000 N 
ATOM     19  H   UNL     1       7.495   4.220  16.058  0.00  0.00    +0.000 HD
ATOM     20  H   UNL     1       7.935   3.530  14.006  0.00  0.00    +0.000 HD
BRANCH  18  21
ATOM     21  C   UNL     1       6.675   3.633  12.292  0.00  0.00    +0.000 C 
ATOM     22  C   UNL     1       7.293   2.315  11.794  0.00  0.00    +0.000 C 
ATOM     23  C   UNL     1       5.143   3.513  12.193  0.00  0.00    +0.000 C 
ATOM     24  C   UNL     1       7.115   4.798  11.388  0.00  0.00    +0.000 C 
ENDBRANCH  18  21
ENDBRANCH   3  15
TORSDOF 4
ENDMDL
MODEL 9
REMARK VINA RESULT:      -6.8      2.219      3.053
REMARK  Name = 
REMARK  8 active torsions:
REMARK  status: ('A' for Active; 'I' for Inactive)
REMARK    1  A    between atoms: C_1  and  O_2
REMARK    2  A    between atoms: O_2  and  C_3
REMARK    3  A    between atoms: C_6  and  N_7
REMARK    4  A    between atoms: C_9  and  N_10
REMARK    5  A    between atoms: N_13  and  C_14
REMARK    6  A    between atoms: C_14  and  C_15
REMARK    7  A    between atoms: C_14  and  C_16
REMARK    8  A    between atoms: C_14  and  C_17
REMARK                            x       y       z     vdW  Elec       q    Type
REMARK                         _______ _______ _______ _____ _____    ______ ____
ROOT
ATOM      1  N   UNL     1       5.504   5.264  18.386  0.00  0.00    +0.000 N 
ATOM      2  C   UNL     1       5.281   5.886  17.095  0.00  0.00    +0.000 C 
ATOM      3  C   UNL     1       6.680   6.132  16.530  0.00  0.00    +0.000 C 
ATOM      4  C   UNL     1       7.556   6.253  17.760  0.00  0.00    +0.000 C 
ATOM      5  C   UNL     1       6.831   5.437  18.797  0.00  0.00    +0.000 C 
ATOM      6  O   UNL     1       7.383   5.061  19.821  0.00  0.00    +0.000 OA
ENDROOT
BRANCH   1  10
ATOM      7  C   UNL     1       2.239   3.825  20.719  0.00  0.00    +0.000 A 
ATOM      8  C   UNL     1       2.350   5.176  20.415  0.00  0.00    +0.000 A 
ATOM      9  C   UNL     1       3.433   5.653  19.665  0.00  0.00    +0.000 A 
ATOM     10  C   UNL     1       4.434   4.791  19.200  0.00  0.00    +0.000 A 
ATOM     11  C   UNL     1       4.322   3.434  19.540  0.00  0.00    +0.000 A 
ATOM     12  C   UNL     1       3.240   2.955  20.300  0.00  0.00    +0.000 A 
BRANCH   7  14
ATOM     13  C   UNL     1       1.217   2.236  22.137  0.00  0.00    +0.000 C 
ATOM     14  O   UNL     1       1.138   3.481  21.452  0.00  0.00    +0.000 OA
ENDBRANCH   7  14
ENDBRANCH   1  10
BRANCH   3  15
ATOM     15  N   UNL     1       7.132   5.066  15.634  0.00  0.00    +0.000 N 
ATOM     16  C   UNL     1       6.522   4.942  14.410  0.00  0.00    +0.000 C 
ATOM     17  O   UNL     1       5.656   5.717  14.029  0.00  0.00    +0.000 OA
ATOM     18  N   UNL     1       7.007   3.883  13.689  0.00  0.00    +0.000 N 
ATOM     19  H   UNL     1       7.489   4.213  16.044  0.00  0.00    +0.000 HD
ATOM     20  H   UNL     1       7.911   3.541  13.982  0.00  0.00    +0.000 HD
BRANCH  18  21
ATOM     21  C   UNL     1       6.625   3.632  12.286  0.00  0.00    +0.000 C 
ATOM     22  C   UNL     1       7.095   4.781  11.377  0.00  0.00    +0.000 C 
ATOM     23  C   UNL     1       7.309   2.336  11.812  0.00  0.00    +0.000 C 
ATOM     24  C   UNL     1       5.105   3.439  12.152  0.00  0.00    +0.000 C 
ENDBRANCH  18  21
ENDBRANCH   3  15
TORSDOF 4
ENDMDL
