MODEL 1
REMARK VINA RESULT:      -6.7      0.000      0.000
REMARK  Name = 
REMARK  5 active torsions:
REMARK  status: ('A' for Active; 'I' for Inactive)
REMARK    1  A    between atoms: C_4  and  C_5
REMARK    2  A    between atoms: C_7  and  C_8
REMARK    3  A    between atoms: C_8  and  N_9
REMARK    4  A    between atoms: N_9  and  C_10
REMARK    5  A    between atoms: C_10  and  C_11
REMARK                            x       y       z     vdW  Elec       q    Type
REMARK                         _______ _______ _______ _____ _____    ______ ____
ROOT
ATOM      1  C   UNL     1       6.638   4.398  15.765  0.00  0.00    +0.000 A 
ATOM      2  N   UNL     1       5.569   4.249  16.535  0.00  0.00    +0.000 NA
ATOM      3  C   UNL     1       6.028   4.490  17.817  0.00  0.00    +0.000 A 
ATOM      4  C   UNL     1       7.369   4.783  17.769  0.00  0.00    +0.000 A 
ATOM      5  O   UNL     1       7.772   4.727  16.475  0.00  0.00    +0.000 OA
ENDROOT
BRANCH   1   9
ATOM      6  C   UNL     1       5.990   3.570  12.187  0.00  0.00    +0.000 A 
ATOM      7  C   UNL     1       7.075   4.369  11.911  0.00  0.00    +0.000 A 
ATOM      8  S   UNL     1       7.771   5.018  13.332  0.00  0.00    +0.000 S 
ATOM      9  C   UNL     1       6.618   4.240  14.335  0.00  0.00    +0.000 A 
ATOM     10  C   UNL     1       5.730   3.490  13.588  0.00  0.00    +0.000 A 
ENDBRANCH   1   9
BRANCH   3  11
ATOM     11  C   UNL     1       5.145   4.368  19.012  0.00  0.00    +0.000 C 
BRANCH  11  12
ATOM     12  N   UNL     1       5.012   2.966  19.434  0.00  0.00    +0.000 NA
ATOM     13  H   UNL     1       4.867   2.973  20.445  0.00  0.00    +0.000 HD
BRANCH  12  14
ATOM     14  C   UNL     1       3.867   2.305  18.796  0.00  0.00    +0.000 C 
BRANCH  14  15
ATOM     15  C   UNL     1       2.589   2.382  19.642  0.00  0.00    +0.000 C 
ATOM     16  C   UNL     1       1.630   3.489  19.226  0.00  0.00    +0.000 C 
ATOM     17  C   UNL     1       0.952   3.819  20.533  0.00  0.00    +0.000 C 
ATOM     18  C   UNL     1       2.089   3.678  21.518  0.00  0.00    +0.000 C 
ATOM     19  O   UNL     1       2.942   2.642  21.018  0.00  0.00    +0.000 OA
ENDBRANCH  14  15
ENDBRANCH  12  14
ENDBRANCH  11  12
ENDBRANCH   3  11
TORSDOF 5
ENDMDL
MODEL 2
REMARK VINA RESULT:      -6.6      1.422      1.769
REMARK  Name = 
REMARK  5 active torsions:
REMARK  status: ('A' for Active; 'I' for Inactive)
REMARK    1  A    between atoms: C_4  and  C_5
REMARK    2  A    between atoms: C_7  and  C_8
REMARK    3  A    between atoms: C_8  and  N_9
REMARK    4  A    between atoms: N_9  and  C_10
REMARK    5  A    between atoms: C_10  and  C_11
REMARK                            x       y       z     vdW  Elec       q    Type
REMARK                         _______ _______ _______ _____ _____    ______ ____
ROOT
ATOM      1  C   UNL     1       6.805   5.235  15.748  0.00  0.00    +0.000 A 
ATOM      2  N   UNL     1       6.202   4.694  16.798  0.00  0.00    +0.000 NA
ATOM      3  C   UNL     1       6.530   5.526  17.853  0.00  0.00    +0.000 A 
ATOM      4  C   UNL     1       7.321   6.549  17.393  0.00  0.00    +0.000 A 
ATOM      5  O   UNL     1       7.507   6.378  16.059  0.00  0.00    +0.000 OA
ENDROOT
BRANCH   1   9
ATOM      6  C   UNL     1       6.008   3.481  12.554  0.00  0.00    +0.000 A 
ATOM      7  C   UNL     1       7.108   4.129  12.042  0.00  0.00    +0.000 A 
ATOM      8  S   UNL     1       7.873   5.115  13.211  0.00  0.00    +0.000 S 
ATOM      9  C   UNL     1       6.731   4.690  14.418  0.00  0.00    +0.000 A 
ATOM     10  C   UNL     1       5.794   3.800  13.929  0.00  0.00    +0.000 A 
ENDBRANCH   1   9
BRANCH   3  11
ATOM     11  C   UNL     1       6.095   5.242  19.250  0.00  0.00    +0.000 C 
BRANCH  11  12
ATOM     12  N   UNL     1       4.732   4.691  19.281  0.00  0.00    +0.000 NA
ATOM     13  H   UNL     1       4.610   4.252  20.196  0.00  0.00    +0.000 HD
BRANCH  12  14
ATOM     14  C   UNL     1       3.712   5.734  19.117  0.00  0.00    +0.000 C 
BRANCH  14  15
ATOM     15  C   UNL     1       2.322   5.285  19.586  0.00  0.00    +0.000 C 
ATOM     16  C   UNL     1       2.330   4.452  20.860  0.00  0.00    +0.000 C 
ATOM     17  C   UNL     1       1.110   3.584  20.672  0.00  0.00    +0.000 C 
ATOM     18  C   UNL     1       1.154   3.304  19.187  0.00  0.00    +0.000 C 
ATOM     19  O   UNL     1       1.715   4.465  18.564  0.00  0.00    +0.000 OA
ENDBRANCH  14  15
ENDBRANCH  12  14
ENDBRANCH  11  12
ENDBRANCH   3  11
TORSDOF 5
ENDMDL
MODEL 3
REMARK VINA RESULT:      -6.5      3.523      5.316
REMARK  Name = 
REMARK  5 active torsions:
REMARK  status: ('A' for Active; 'I' for Inactive)
REMARK    1  A    between atoms: C_4  and  C_5
REMARK    2  A    between atoms: C_7  and  C_8
REMARK    3  A    between atoms: C_8  and  N_9
REMARK    4  A    between atoms: N_9  and  C_10
REMARK    5  A    between atoms: C_10  and  C_11
REMARK                            x       y       z     vdW  Elec       q    Type
REMARK                         _______ _______ _______ _____ _____    ______ ____
ROOT
ATOM      1  C   UNL     1       3.316   6.843  18.006  0.00  0.00    +0.000 A 
ATOM      2  N   UNL     1       3.176   5.525  17.963  0.00  0.00    +0.000 NA
ATOM      3  C   UNL     1       4.224   5.090  17.172  0.00  0.00    +0.000 A 
ATOM      4  C   UNL     1       4.965   6.173  16.769  0.00  0.00    +0.000 A 
ATOM      5  O   UNL     1       4.401   7.293  17.287  0.00  0.00    +0.000 OA
ENDROOT
BRANCH   1   9
ATOM      6  C   UNL     1       1.130   8.628  20.445  0.00  0.00    +0.000 A 
ATOM      7  C   UNL     1       0.937   9.549  19.442  0.00  0.00    +0.000 A 
ATOM      8  S   UNL     1       1.786   9.133  18.017  0.00  0.00    +0.000 S 
ATOM      9  C   UNL     1       2.431   7.714  18.732  0.00  0.00    +0.000 A 
ATOM     10  C   UNL     1       1.988   7.564  20.033  0.00  0.00    +0.000 A 
ENDBRANCH   1   9
BRANCH   3  11
ATOM     11  C   UNL     1       4.405   3.654  16.816  0.00  0.00    +0.000 C 
BRANCH  11  12
ATOM     12  N   UNL     1       4.365   2.801  18.013  0.00  0.00    +0.000 NA
ATOM     13  H   UNL     1       4.342   3.425  18.822  0.00  0.00    +0.000 HD
BRANCH  12  14
ATOM     14  C   UNL     1       3.171   1.947  18.041  0.00  0.00    +0.000 C 
BRANCH  14  15
ATOM     15  C   UNL     1       2.358   2.103  19.333  0.00  0.00    +0.000 C 
ATOM     16  C   UNL     1       1.088   2.928  19.177  0.00  0.00    +0.000 C 
ATOM     17  C   UNL     1       0.935   3.525  20.554  0.00  0.00    +0.000 C 
ATOM     18  C   UNL     1       2.371   3.800  20.936  0.00  0.00    +0.000 C 
ATOM     19  O   UNL     1       3.164   2.775  20.326  0.00  0.00    +0.000 OA
ENDBRANCH  14  15
ENDBRANCH  12  14
ENDBRANCH  11  12
ENDBRANCH   3  11
TORSDOF 5
ENDMDL
MODEL 4
REMARK VINA RESULT:      -6.5      2.740      6.979
REMARK  Name = 
REMARK  5 active torsions:
REMARK  status: ('A' for Active; 'I' for Inactive)
REMARK    1  A    between atoms: C_4  and  C_5
REMARK    2  A    between atoms: C_7  and  C_8
REMARK    3  A    between atoms: C_8  and  N_9
REMARK    4  A    between atoms: N_9  and  C_10
REMARK    5  A    between atoms: C_10  and  C_11
REMARK                            x       y       z     vdW  Elec       q    Type
REMARK                         _______ _______ _______ _____ _____    ______ ____
ROOT
ATOM      1  C   UNL     1       3.709   5.267  18.593  0.00  0.00    +0.000 A 
ATOM      2  N   UNL     1       5.016   5.169  18.790  0.00  0.00    +0.000 NA
ATOM      3  C   UNL     1       5.566   6.124  17.955  0.00  0.00    +0.000 A 
ATOM      4  C   UNL     1       4.559   6.770  17.282  0.00  0.00    +0.000 A 
ATOM      5  O   UNL     1       3.374   6.237  17.673  0.00  0.00    +0.000 OA
ENDROOT
BRANCH   1   9
ATOM      6  C   UNL     1       1.543   3.367  20.961  0.00  0.00    +0.000 A 
ATOM      7  C   UNL     1       0.841   2.974  19.845  0.00  0.00    +0.000 A 
ATOM      8  S   UNL     1       1.504   3.626  18.409  0.00  0.00    +0.000 S 
ATOM      9  C   UNL     1       2.737   4.451  19.269  0.00  0.00    +0.000 A 
ATOM     10  C   UNL     1       2.642   4.214  20.628  0.00  0.00    +0.000 A 
ENDBRANCH   1   9
BRANCH   3  11
ATOM     11  C   UNL     1       7.040   6.310  17.826  0.00  0.00    +0.000 C 
BRANCH  11  12
ATOM     12  N   UNL     1       7.471   6.185  16.426  0.00  0.00    +0.000 NA
ATOM     13  H   UNL     1       8.487   6.295  16.417  0.00  0.00    +0.000 HD
BRANCH  12  14
ATOM     14  C   UNL     1       7.131   4.874  15.860  0.00  0.00    +0.000 C 
BRANCH  14  15
ATOM     15  C   UNL     1       6.537   4.971  14.448  0.00  0.00    +0.000 C 
ATOM     16  C   UNL     1       5.981   3.659  13.911  0.00  0.00    +0.000 C 
ATOM     17  C   UNL     1       6.178   3.824  12.425  0.00  0.00    +0.000 C 
ATOM     18  C   UNL     1       7.503   4.550  12.365  0.00  0.00    +0.000 C 
ATOM     19  O   UNL     1       7.566   5.389  13.525  0.00  0.00    +0.000 OA
ENDBRANCH  14  15
ENDBRANCH  12  14
ENDBRANCH  11  12
ENDBRANCH   3  11
TORSDOF 5
ENDMDL
MODEL 5
REMARK VINA RESULT:      -6.5      1.300      1.512
REMARK  Name = 
REMARK  5 active torsions:
REMARK  status: ('A' for Active; 'I' for Inactive)
REMARK    1  A    between atoms: C_4  and  C_5
REMARK    2  A    between atoms: C_7  and  C_8
REMARK    3  A    between atoms: C_8  and  N_9
REMARK    4  A    between atoms: N_9  and  C_10
REMARK    5  A    between atoms: C_10  and  C_11
REMARK                            x       y       z     vdW  Elec       q    Type
REMARK                         _______ _______ _______ _____ _____    ______ ____
ROOT
ATOM      1  C   UNL     1       5.777   5.158  15.488  0.00  0.00    +0.000 A 
ATOM      2  N   UNL     1       5.667   4.452  16.605  0.00  0.00    +0.000 NA
ATOM      3  C   UNL     1       5.369   5.388  17.579  0.00  0.00    +0.000 A 
ATOM      4  C   UNL     1       5.306   6.634  17.006  0.00  0.00    +0.000 A 
ATOM      5  O   UNL     1       5.565   6.506  15.679  0.00  0.00    +0.000 OA
ENDROOT
BRANCH   1   9
ATOM      6  C   UNL     1       5.906   3.334  12.238  0.00  0.00    +0.000 A 
ATOM      7  C   UNL     1       7.122   3.951  12.056  0.00  0.00    +0.000 A 
ATOM      8  S   UNL     1       7.535   4.955  13.377  0.00  0.00    +0.000 S 
ATOM      9  C   UNL     1       6.082   4.580  14.207  0.00  0.00    +0.000 A 
ATOM     10  C   UNL     1       5.308   3.692  13.483  0.00  0.00    +0.000 A 
ENDBRANCH   1   9
BRANCH   3  11
ATOM     11  C   UNL     1       5.217   5.016  19.015  0.00  0.00    +0.000 C 
BRANCH  11  12
ATOM     12  N   UNL     1       5.569   3.606  19.239  0.00  0.00    +0.000 NA
ATOM     13  H   UNL     1       6.054   3.560  20.137  0.00  0.00    +0.000 HD
BRANCH  12  14
ATOM     14  C   UNL     1       4.382   2.744  19.297  0.00  0.00    +0.000 C 
BRANCH  14  15
ATOM     15  C   UNL     1       3.191   3.418  19.993  0.00  0.00    +0.000 C 
ATOM     16  C   UNL     1       2.712   2.699  21.247  0.00  0.00    +0.000 C 
ATOM     17  C   UNL     1       1.246   3.053  21.266  0.00  0.00    +0.000 C 
ATOM     18  C   UNL     1       0.899   3.024  19.795  0.00  0.00    +0.000 C 
ATOM     19  O   UNL     1       2.067   3.455  19.087  0.00  0.00    +0.000 OA
ENDBRANCH  14  15
ENDBRANCH  12  14
ENDBRANCH  11  12
ENDBRANCH   3  11
TORSDOF 5
ENDMDL
MODEL 6
REMARK VINA RESULT:      -6.4      3.767      5.187
REMARK  Name = 
REMARK  5 active torsions:
REMARK  status: ('A' for Active; 'I' for Inactive)
REMARK    1  A    between atoms: C_4  and  C_5
REMARK    2  A    between atoms: C_7  and  C_8
REMARK    3  A    between atoms: C_8  and  N_9
REMARK    4  A    between atoms: N_9  and  C_10
REMARK    5  A    between atoms: C_10  and  C_11
REMARK                            x       y       z     vdW  Elec       q    Type
REMARK                         _______ _______ _______ _____ _____    ______ ____
ROOT
ATOM      1  C   UNL     1       3.452   6.888  17.784  0.00  0.00    +0.000 A 
ATOM      2  N   UNL     1       3.255   5.577  17.815  0.00  0.00    +0.000 NA
ATOM      3  C   UNL     1       4.341   5.046  17.142  0.00  0.00    +0.000 A 
ATOM      4  C   UNL     1       5.161   6.067  16.731  0.00  0.00    +0.000 A 
ATOM      5  O   UNL     1       4.611   7.243  17.128  0.00  0.00    +0.000 OA
ENDROOT
BRANCH   1   9
ATOM      6  C   UNL     1       1.181   9.710  18.668  0.00  0.00    +0.000 A 
ATOM      7  C   UNL     1       1.029   9.075  19.879  0.00  0.00    +0.000 A 
ATOM      8  S   UNL     1       1.949   7.636  19.967  0.00  0.00    +0.000 S 
ATOM      9  C   UNL     1       2.555   7.843  18.376  0.00  0.00    +0.000 A 
ATOM     10  C   UNL     1       2.067   9.002  17.803  0.00  0.00    +0.000 A 
ENDBRANCH   1   9
BRANCH   3  11
ATOM     11  C   UNL     1       4.483   3.583  16.897  0.00  0.00    +0.000 C 
BRANCH  11  12
ATOM     12  N   UNL     1       4.409   2.823  18.153  0.00  0.00    +0.000 NA
ATOM     13  H   UNL     1       4.332   3.507  18.909  0.00  0.00    +0.000 HD
BRANCH  12  14
ATOM     14  C   UNL     1       3.238   1.939  18.194  0.00  0.00    +0.000 C 
BRANCH  14  15
ATOM     15  C   UNL     1       2.350   2.185  19.422  0.00  0.00    +0.000 C 
ATOM     16  C   UNL     1       1.121   3.038  19.143  0.00  0.00    +0.000 C 
ATOM     17  C   UNL     1       0.899   3.709  20.476  0.00  0.00    +0.000 C 
ATOM     18  C   UNL     1       2.317   3.960  20.937  0.00  0.00    +0.000 C 
ATOM     19  O   UNL     1       3.112   2.882  20.431  0.00  0.00    +0.000 OA
ENDBRANCH  14  15
ENDBRANCH  12  14
ENDBRANCH  11  12
ENDBRANCH   3  11
TORSDOF 5
ENDMDL
MODEL 7
REMARK VINA RESULT:      -6.4      2.698      3.817
REMARK  Name = 
REMARK  5 active torsions:
REMARK  status: ('A' for Active; 'I' for Inactive)
REMARK    1  A    between atoms: C_4  and  C_5
REMARK    2  A    between atoms: C_7  and  C_8
REMARK    3  A    between atoms: C_8  and  N_9
REMARK    4  A    between atoms: N_9  and  C_10
REMARK    5  A    between atoms: C_10  and  C_11
REMARK                            x       y       z     vdW  Elec       q    Type
REMARK                         _______ _______ _______ _____ _____    ______ ____
ROOT
ATOM      1  C   UNL     1       4.186   6.109  17.838  0.00  0.00    +0.000 A 
ATOM      2  N   UNL     1       3.726   5.526  18.936  0.00  0.00    +0.000 NA
ATOM      3  C   UNL     1       2.696   6.345  19.360  0.00  0.00    +0.000 A 
ATOM      4  C   UNL     1       2.569   7.399  18.489  0.00  0.00    +0.000 A 
ATOM      5  O   UNL     1       3.509   7.266  17.519  0.00  0.00    +0.000 OA
ENDROOT
BRANCH   1   9
ATOM      6  C   UNL     1       6.627   5.030  15.234  0.00  0.00    +0.000 A 
ATOM      7  C   UNL     1       7.376   4.545  16.281  0.00  0.00    +0.000 A 
ATOM      8  S   UNL     1       6.615   4.811  17.790  0.00  0.00    +0.000 S 
ATOM      9  C   UNL     1       5.274   5.588  17.055  0.00  0.00    +0.000 A 
ATOM     10  C   UNL     1       5.410   5.626  15.680  0.00  0.00    +0.000 A 
ENDBRANCH   1   9
BRANCH   3  11
ATOM     11  C   UNL     1       1.935   6.078  20.614  0.00  0.00    +0.000 C 
BRANCH  11  12
ATOM     12  N   UNL     1       1.923   4.643  20.933  0.00  0.00    +0.000 NA
ATOM     13  H   UNL     1       1.773   4.564  21.941  0.00  0.00    +0.000 HD
BRANCH  12  14
ATOM     14  C   UNL     1       0.844   3.932  20.237  0.00  0.00    +0.000 C 
BRANCH  14  15
ATOM     15  C   UNL     1       1.349   2.729  19.430  0.00  0.00    +0.000 C 
ATOM     16  C   UNL     1       2.785   2.327  19.738  0.00  0.00    +0.000 C 
ATOM     17  C   UNL     1       3.231   1.736  18.424  0.00  0.00    +0.000 C 
ATOM     18  C   UNL     1       2.544   2.640  17.426  0.00  0.00    +0.000 C 
ATOM     19  O   UNL     1       1.306   3.046  18.021  0.00  0.00    +0.000 OA
ENDBRANCH  14  15
ENDBRANCH  12  14
ENDBRANCH  11  12
ENDBRANCH   3  11
TORSDOF 5
ENDMDL
MODEL 8
REMARK VINA RESULT:      -6.3      1.559      2.192
REMARK  Name = 
REMARK  5 active torsions:
REMARK  status: ('A' for Active; 'I' for Inactive)
REMARK    1  A    between atoms: C_4  and  C_5
REMARK    2  A    between atoms: C_7  and  C_8
REMARK    3  A    between atoms: C_8  and  N_9
REMARK    4  A    between atoms: N_9  and  C_10
REMARK    5  A    between atoms: C_10  and  C_11
REMARK                            x       y       z     vdW  Elec       q    Type
REMARK                         _______ _______ _______ _____ _____    ______ ____
ROOT
ATOM      1  C   UNL     1       6.567   5.442  15.417  0.00  0.00    +0.000 A 
ATOM      2  N   UNL     1       7.242   5.042  16.485  0.00  0.00    +0.000 NA
ATOM      3  C   UNL     1       6.923   5.966  17.464  0.00  0.00    +0.000 A 
ATOM      4  C   UNL     1       6.055   6.894  16.944  0.00  0.00    +0.000 A 
ATOM      5  O   UNL     1       5.820   6.577  15.645  0.00  0.00    +0.000 OA
ENDROOT
BRANCH   1   9
ATOM      6  C   UNL     1       6.040   3.351  12.374  0.00  0.00    +0.000 A 
ATOM      7  C   UNL     1       7.171   3.962  11.883  0.00  0.00    +0.000 A 
ATOM      8  S   UNL     1       7.832   5.078  12.997  0.00  0.00    +0.000 S 
ATOM      9  C   UNL     1       6.603   4.761  14.151  0.00  0.00    +0.000 A 
ATOM     10  C   UNL     1       5.716   3.808  13.687  0.00  0.00    +0.000 A 
ENDBRANCH   1   9
BRANCH   3  11
ATOM     11  C   UNL     1       7.524   5.916  18.827  0.00  0.00    +0.000 C 
BRANCH  11  12
ATOM     12  N   UNL     1       6.772   5.011  19.707  0.00  0.00    +0.000 NA
ATOM     13  H   UNL     1       6.902   5.349  20.663  0.00  0.00    +0.000 HD
BRANCH  12  14
ATOM     14  C   UNL     1       5.337   5.008  19.398  0.00  0.00    +0.000 C 
BRANCH  14  15
ATOM     15  C   UNL     1       4.809   3.612  19.038  0.00  0.00    +0.000 C 
ATOM     16  C   UNL     1       4.155   3.525  17.666  0.00  0.00    +0.000 C 
ATOM     17  C   UNL     1       3.147   2.422  17.872  0.00  0.00    +0.000 C 
ATOM     18  C   UNL     1       2.680   2.687  19.286  0.00  0.00    +0.000 C 
ATOM     19  O   UNL     1       3.803   3.221  19.997  0.00  0.00    +0.000 OA
ENDBRANCH  14  15
ENDBRANCH  12  14
ENDBRANCH  11  12
ENDBRANCH   3  11
TORSDOF 5
ENDMDL
MODEL 9
REMARK VINA RESULT:      -6.3      2.746      6.807
REMARK  Name = 
REMARK  5 active torsions:
REMARK  status: ('A' for Active; 'I' for Inactive)
REMARK    1  A    between atoms: C_4  and  C_5
REMARK    2  A    between atoms: C_7  and  C_8
REMARK    3  A    between atoms: C_8  and  N_9
REMARK    4  A    between atoms: N_9  and  C_10
REMARK    5  A    between atoms: C_10  and  C_11
REMARK                            x       y       z     vdW  Elec       q    Type
REMARK                         _______ _______ _______ _____ _____    ______ ____
ROOT
ATOM      1  C   UNL     1       4.311   4.531  18.947  0.00  0.00    +0.000 A 
ATOM      2  N   UNL     1       4.405   5.392  17.944  0.00  0.00    +0.000 NA
ATOM      3  C   UNL     1       5.735   5.774  17.937  0.00  0.00    +0.000 A 
ATOM      4  C   UNL     1       6.399   5.117  18.943  0.00  0.00    +0.000 A 
ATOM      5  O   UNL     1       5.510   4.326  19.595  0.00  0.00    +0.000 OA
ENDROOT
BRANCH   1   9
ATOM      6  C   UNL     1       1.348   2.316  19.417  0.00  0.00    +0.000 A 
ATOM      7  C   UNL     1       0.950   3.221  20.373  0.00  0.00    +0.000 A 
ATOM      8  S   UNL     1       2.056   4.516  20.528  0.00  0.00    +0.000 S 
ATOM      9  C   UNL     1       3.089   3.872  19.320  0.00  0.00    +0.000 A 
ATOM     10  C   UNL     1       2.580   2.695  18.804  0.00  0.00    +0.000 A 
ENDBRANCH   1   9
BRANCH   3  11
ATOM     11  C   UNL     1       6.262   6.792  16.984  0.00  0.00    +0.000 C 
BRANCH  11  12
ATOM     12  N   UNL     1       7.467   6.304  16.297  0.00  0.00    +0.000 NA
ATOM     13  H   UNL     1       8.217   6.285  16.991  0.00  0.00    +0.000 HD
BRANCH  12  14
ATOM     14  C   UNL     1       7.284   4.950  15.760  0.00  0.00    +0.000 C 
BRANCH  14  15
ATOM     15  C   UNL     1       6.536   4.938  14.420  0.00  0.00    +0.000 C 
ATOM     16  C   UNL     1       5.947   3.584  14.046  0.00  0.00    +0.000 C 
ATOM     17  C   UNL     1       5.975   3.640  12.538  0.00  0.00    +0.000 C 
ATOM     18  C   UNL     1       7.271   4.374  12.278  0.00  0.00    +0.000 C 
ATOM     19  O   UNL     1       7.448   5.296  13.360  0.00  0.00    +0.000 OA
ENDBRANCH  14  15
ENDBRANCH  12  14
ENDBRANCH  11  12
ENDBRANCH   3  11
TORSDOF 5
ENDMDL
