MODEL 1
REMARK VINA RESULT:      -6.7      0.000      0.000
REMARK  Name = 
REMARK  11 active torsions:
REMARK  status: ('A' for Active; 'I' for Inactive)
REMARK    1  A    between atoms: C_1  and  O_2
REMARK    2  A    between atoms: O_2  and  C_3
REMARK    3  A    between atoms: C_3  and  C_5
REMARK    4  A    between atoms: C_6  and  N_7
REMARK    5  A    between atoms: C_8  and  C_10
REMARK    6  A    between atoms: C_10  and  C_11
REMARK    7  A    between atoms: C_11  and  C_12
REMARK    8  A    between atoms: C_12  and  C_13
REMARK    9  A    between atoms: C_13  and  O_15
REMARK   10  A    between atoms: C_17  and  C_18
REMARK   11  A    between atoms: C_19  and  C_20
REMARK                            x       y       z     vdW  Elec       q    Type
REMARK                         _______ _______ _______ _____ _____    ______ ____
ROOT
ATOM      1  C   UNL     1       3.584   4.620  18.636  0.00  0.00    +0.000 A 
ATOM      2  C   UNL     1       4.078   5.425  17.609  0.00  0.00    +0.000 A 
ATOM      3  S   UNL     1       3.559   7.038  17.799  0.00  0.00    +0.000 S 
ATOM      4  C   UNL     1       2.654   6.722  19.195  0.00  0.00    +0.000 A 
ATOM      5  C   UNL     1       1.898   7.836  19.850  0.00  0.00    +0.000 C 
ATOM      6  C   UNL     1       2.741   5.392  19.563  0.00  0.00    +0.000 A 
ATOM      7  C   UNL     1       2.052   4.811  20.764  0.00  0.00    +0.000 C 
ENDROOT
BRANCH   2   8
ATOM      8  N   UNL     1       4.880   5.075  16.511  0.00  0.00    +0.000 N 
ATOM      9  C   UNL     1       6.224   4.735  16.570  0.00  0.00    +0.000 C 
ATOM     10  O   UNL     1       6.914   4.679  17.589  0.00  0.00    +0.000 OA
ATOM     11  H   UNL     1       4.420   5.088  15.601  0.00  0.00    +0.000 HD
BRANCH   9  12
ATOM     12  C   UNL     1       6.876   4.387  15.237  0.00  0.00    +0.000 C 
BRANCH  12  13
ATOM     13  C   UNL     1       5.798   4.046  14.185  0.00  0.00    +0.000 C 
BRANCH  13  14
ATOM     14  C   UNL     1       6.355   3.797  12.775  0.00  0.00    +0.000 C 
BRANCH  14  15
ATOM     15  C   UNL     1       5.419   2.948  11.952  0.00  0.00    +0.000 C 
ATOM     16  O   UNL     1       4.307   3.308  11.574  0.00  0.00    +0.000 OA
BRANCH  15  17
ATOM     17  O   UNL     1       5.901   1.724  11.664  0.00  0.00    +0.000 OA
ATOM     18  H   UNL     1       5.296   0.983  11.866  0.00  0.00    +0.000 HD
ENDBRANCH  15  17
ENDBRANCH  14  15
ENDBRANCH  13  14
ENDBRANCH  12  13
ENDBRANCH   9  12
ENDBRANCH   2   8
BRANCH   1  19
ATOM     19  C   UNL     1       3.838   3.183  18.796  0.00  0.00    +0.000 C 
ATOM     20  O   UNL     1       3.168   2.318  18.244  0.00  0.00    +0.000 OA
BRANCH  19  22
ATOM     21  C   UNL     1       4.596   1.899  20.605  0.00  0.00    +0.000 C 
ATOM     22  O   UNL     1       4.890   2.899  19.625  0.00  0.00    +0.000 OA
ENDBRANCH  19  22
ENDBRANCH   1  19
TORSDOF 8
ENDMDL
MODEL 2
REMARK VINA RESULT:      -6.6      0.597      1.090
REMARK  Name = 
REMARK  11 active torsions:
REMARK  status: ('A' for Active; 'I' for Inactive)
REMARK    1  A    between atoms: C_1  and  O_2
REMARK    2  A    between atoms: O_2  and  C_3
REMARK    3  A    between atoms: C_3  and  C_5
REMARK    4  A    between atoms: C_6  and  N_7
REMARK    5  A    between atoms: C_8  and  C_10
REMARK    6  A    between atoms: C_10  and  C_11
REMARK    7  A    between atoms: C_11  and  C_12
REMARK    8  A    between atoms: C_12  and  C_13
REMARK    9  A    between atoms: C_13  and  O_15
REMARK   10  A    between atoms: C_17  and  C_18
REMARK   11  A    between atoms: C_19  and  C_20
REMARK                            x       y       z     vdW  Elec       q    Type
REMARK                         _______ _______ _______ _____ _____    ______ ____
ROOT
ATOM      1  C   UNL     1       3.874   4.656  18.656  0.00  0.00    +0.000 A 
ATOM      2  C   UNL     1       4.278   5.482  17.607  0.00  0.00    +0.000 A 
ATOM      3  S   UNL     1       3.628   7.048  17.782  0.00  0.00    +0.000 S 
ATOM      4  C   UNL     1       2.779   6.681  19.200  0.00  0.00    +0.000 A 
ATOM      5  C   UNL     1       1.943   7.738  19.852  0.00  0.00    +0.000 C 
ATOM      6  C   UNL     1       2.985   5.370  19.587  0.00  0.00    +0.000 A 
ATOM      7  C   UNL     1       2.370   4.754  20.811  0.00  0.00    +0.000 C 
ENDROOT
BRANCH   2   8
ATOM      8  N   UNL     1       5.086   5.182  16.498  0.00  0.00    +0.000 N 
ATOM      9  C   UNL     1       6.446   4.911  16.542  0.00  0.00    +0.000 C 
ATOM     10  O   UNL     1       7.148   4.882  17.554  0.00  0.00    +0.000 OA
ATOM     11  H   UNL     1       4.617   5.179  15.593  0.00  0.00    +0.000 HD
BRANCH   9  12
ATOM     12  C   UNL     1       7.103   4.608  15.200  0.00  0.00    +0.000 C 
BRANCH  12  13
ATOM     13  C   UNL     1       6.160   3.753  14.324  0.00  0.00    +0.000 C 
BRANCH  13  14
ATOM     14  C   UNL     1       6.258   4.056  12.821  0.00  0.00    +0.000 C 
BRANCH  14  15
ATOM     15  C   UNL     1       5.470   3.064  12.003  0.00  0.00    +0.000 C 
ATOM     16  O   UNL     1       4.417   3.322  11.424  0.00  0.00    +0.000 OA
BRANCH  15  17
ATOM     17  O   UNL     1       6.013   1.832  11.965  0.00  0.00    +0.000 OA
ATOM     18  H   UNL     1       5.753   1.290  11.194  0.00  0.00    +0.000 HD
ENDBRANCH  15  17
ENDBRANCH  14  15
ENDBRANCH  13  14
ENDBRANCH  12  13
ENDBRANCH   9  12
ENDBRANCH   2   8
BRANCH   1  19
ATOM     19  C   UNL     1       4.251   3.248  18.833  0.00  0.00    +0.000 C 
ATOM     20  O   UNL     1       4.861   2.835  19.812  0.00  0.00    +0.000 OA
BRANCH  19  22
ATOM     21  C   UNL     1       2.476   2.091  17.831  0.00  0.00    +0.000 C 
ATOM     22  O   UNL     1       3.863   2.442  17.797  0.00  0.00    +0.000 OA
ENDBRANCH  19  22
ENDBRANCH   1  19
TORSDOF 8
ENDMDL
MODEL 3
REMARK VINA RESULT:      -6.6      3.016      6.428
REMARK  Name = 
REMARK  11 active torsions:
REMARK  status: ('A' for Active; 'I' for Inactive)
REMARK    1  A    between atoms: C_1  and  O_2
REMARK    2  A    between atoms: O_2  and  C_3
REMARK    3  A    between atoms: C_3  and  C_5
REMARK    4  A    between atoms: C_6  and  N_7
REMARK    5  A    between atoms: C_8  and  C_10
REMARK    6  A    between atoms: C_10  and  C_11
REMARK    7  A    between atoms: C_11  and  C_12
REMARK    8  A    between atoms: C_12  and  C_13
REMARK    9  A    between atoms: C_13  and  O_15
REMARK   10  A    between atoms: C_17  and  C_18
REMARK   11  A    between atoms: C_19  and  C_20
REMARK                            x       y       z     vdW  Elec       q    Type
REMARK                         _______ _______ _______ _____ _____    ______ ____
ROOT
ATOM      1  C   UNL     1       5.658   4.823  17.622  0.00  0.00    +0.000 A 
ATOM      2  C   UNL     1       5.013   3.739  17.027  0.00  0.00    +0.000 A 
ATOM      3  S   UNL     1       5.516   3.546  15.409  0.00  0.00    +0.000 S 
ATOM      4  C   UNL     1       6.552   4.885  15.433  0.00  0.00    +0.000 A 
ATOM      5  C   UNL     1       7.308   5.253  14.194  0.00  0.00    +0.000 C 
ATOM      6  C   UNL     1       6.559   5.497  16.673  0.00  0.00    +0.000 A 
ATOM      7  C   UNL     1       7.386   6.705  17.004  0.00  0.00    +0.000 C 
ENDROOT
BRANCH   2   8
ATOM      8  N   UNL     1       4.055   2.866  17.568  0.00  0.00    +0.000 N 
ATOM      9  C   UNL     1       2.679   3.020  17.474  0.00  0.00    +0.000 C 
ATOM     10  O   UNL     1       2.089   3.935  16.897  0.00  0.00    +0.000 OA
ATOM     11  H   UNL     1       4.421   2.063  18.078  0.00  0.00    +0.000 HD
BRANCH   9  12
ATOM     12  C   UNL     1       1.845   1.933  18.141  0.00  0.00    +0.000 C 
BRANCH  12  13
ATOM     13  C   UNL     1       1.960   2.036  19.678  0.00  0.00    +0.000 C 
BRANCH  13  14
ATOM     14  C   UNL     1       1.255   3.263  20.277  0.00  0.00    +0.000 C 
BRANCH  14  15
ATOM     15  C   UNL     1       2.028   3.833  21.440  0.00  0.00    +0.000 C 
ATOM     16  O   UNL     1       2.355   3.193  22.436  0.00  0.00    +0.000 OA
BRANCH  15  17
ATOM     17  O   UNL     1       2.331   5.138  21.309  0.00  0.00    +0.000 OA
ATOM     18  H   UNL     1       2.868   5.362  20.523  0.00  0.00    +0.000 HD
ENDBRANCH  15  17
ENDBRANCH  14  15
ENDBRANCH  13  14
ENDBRANCH  12  13
ENDBRANCH   9  12
ENDBRANCH   2   8
BRANCH   1  19
ATOM     19  C   UNL     1       5.474   5.275  19.007  0.00  0.00    +0.000 C 
ATOM     20  O   UNL     1       6.384   5.310  19.828  0.00  0.00    +0.000 OA
BRANCH  19  22
ATOM     21  C   UNL     1       3.683   6.679  18.448  0.00  0.00    +0.000 C 
ATOM     22  O   UNL     1       4.189   5.646  19.298  0.00  0.00    +0.000 OA
ENDBRANCH  19  22
ENDBRANCH   1  19
TORSDOF 8
ENDMDL
MODEL 4
REMARK VINA RESULT:      -6.6      1.688      2.357
REMARK  Name = 
REMARK  11 active torsions:
REMARK  status: ('A' for Active; 'I' for Inactive)
REMARK    1  A    between atoms: C_1  and  O_2
REMARK    2  A    between atoms: O_2  and  C_3
REMARK    3  A    between atoms: C_3  and  C_5
REMARK    4  A    between atoms: C_6  and  N_7
REMARK    5  A    between atoms: C_8  and  C_10
REMARK    6  A    between atoms: C_10  and  C_11
REMARK    7  A    between atoms: C_11  and  C_12
REMARK    8  A    between atoms: C_12  and  C_13
REMARK    9  A    between atoms: C_13  and  O_15
REMARK   10  A    between atoms: C_17  and  C_18
REMARK   11  A    between atoms: C_19  and  C_20
REMARK                            x       y       z     vdW  Elec       q    Type
REMARK                         _______ _______ _______ _____ _____    ______ ____
ROOT
ATOM      1  C   UNL     1       3.489   3.789  19.767  0.00  0.00    +0.000 A 
ATOM      2  C   UNL     1       4.100   4.844  19.088  0.00  0.00    +0.000 A 
ATOM      3  S   UNL     1       3.263   6.305  19.357  0.00  0.00    +0.000 S 
ATOM      4  C   UNL     1       2.071   5.597  20.329  0.00  0.00    +0.000 A 
ATOM      5  C   UNL     1       0.970   6.448  20.881  0.00  0.00    +0.000 C 
ATOM      6  C   UNL     1       2.290   4.241  20.491  0.00  0.00    +0.000 A 
ATOM      7  C   UNL     1       1.406   3.344  21.307  0.00  0.00    +0.000 C 
ENDROOT
BRANCH   2   8
ATOM      8  N   UNL     1       5.231   4.831  18.256  0.00  0.00    +0.000 N 
ATOM      9  C   UNL     1       6.541   5.024  18.673  0.00  0.00    +0.000 C 
ATOM     10  O   UNL     1       6.911   5.225  19.831  0.00  0.00    +0.000 OA
ATOM     11  H   UNL     1       5.054   4.676  17.264  0.00  0.00    +0.000 HD
BRANCH   9  12
ATOM     12  C   UNL     1       7.599   4.959  17.579  0.00  0.00    +0.000 C 
BRANCH  12  13
ATOM     13  C   UNL     1       7.094   5.668  16.302  0.00  0.00    +0.000 C 
BRANCH  13  14
ATOM     14  C   UNL     1       7.287   4.851  15.015  0.00  0.00    +0.000 C 
BRANCH  14  15
ATOM     15  C   UNL     1       6.047   4.066  14.667  0.00  0.00    +0.000 C 
ATOM     16  O   UNL     1       5.015   4.067  15.333  0.00  0.00    +0.000 OA
BRANCH  15  17
ATOM     17  O   UNL     1       6.162   3.331  13.544  0.00  0.00    +0.000 OA
ATOM     18  H   UNL     1       7.048   2.948  13.390  0.00  0.00    +0.000 HD
ENDBRANCH  15  17
ENDBRANCH  14  15
ENDBRANCH  13  14
ENDBRANCH  12  13
ENDBRANCH   9  12
ENDBRANCH   2   8
BRANCH   1  19
ATOM     19  C   UNL     1       3.944   2.393  19.769  0.00  0.00    +0.000 C 
ATOM     20  O   UNL     1       4.936   2.012  20.378  0.00  0.00    +0.000 OA
BRANCH  19  22
ATOM     21  C   UNL     1       2.866   2.064  17.714  0.00  0.00    +0.000 C 
ATOM     22  O   UNL     1       3.159   1.559  19.019  0.00  0.00    +0.000 OA
ENDBRANCH  19  22
ENDBRANCH   1  19
TORSDOF 8
ENDMDL
MODEL 5
REMARK VINA RESULT:      -6.5      1.946      3.097
REMARK  Name = 
REMARK  11 active torsions:
REMARK  status: ('A' for Active; 'I' for Inactive)
REMARK    1  A    between atoms: C_1  and  O_2
REMARK    2  A    between atoms: O_2  and  C_3
REMARK    3  A    between atoms: C_3  and  C_5
REMARK    4  A    between atoms: C_6  and  N_7
REMARK    5  A    between atoms: C_8  and  C_10
REMARK    6  A    between atoms: C_10  and  C_11
REMARK    7  A    between atoms: C_11  and  C_12
REMARK    8  A    between atoms: C_12  and  C_13
REMARK    9  A    between atoms: C_13  and  O_15
REMARK   10  A    between atoms: C_17  and  C_18
REMARK   11  A    between atoms: C_19  and  C_20
REMARK                            x       y       z     vdW  Elec       q    Type
REMARK                         _______ _______ _______ _____ _____    ______ ____
ROOT
ATOM      1  C   UNL     1       3.361   5.406  18.474  0.00  0.00    +0.000 A 
ATOM      2  C   UNL     1       4.019   4.335  17.869  0.00  0.00    +0.000 A 
ATOM      3  S   UNL     1       3.776   2.897  18.751  0.00  0.00    +0.000 S 
ATOM      4  C   UNL     1       2.844   3.637  19.956  0.00  0.00    +0.000 A 
ATOM      5  C   UNL     1       2.327   2.815  21.096  0.00  0.00    +0.000 C 
ATOM      6  C   UNL     1       2.676   4.986  19.707  0.00  0.00    +0.000 A 
ATOM      7  C   UNL     1       1.890   5.907  20.594  0.00  0.00    +0.000 C 
ENDROOT
BRANCH   2   8
ATOM      8  N   UNL     1       4.813   4.318  16.711  0.00  0.00    +0.000 N 
ATOM      9  C   UNL     1       6.195   4.441  16.679  0.00  0.00    +0.000 C 
ATOM     10  O   UNL     1       6.935   4.575  17.656  0.00  0.00    +0.000 OA
ATOM     11  H   UNL     1       4.313   4.215  15.829  0.00  0.00    +0.000 HD
BRANCH   9  12
ATOM     12  C   UNL     1       6.832   4.386  15.296  0.00  0.00    +0.000 C 
BRANCH  12  13
ATOM     13  C   UNL     1       5.818   3.848  14.261  0.00  0.00    +0.000 C 
BRANCH  13  14
ATOM     14  C   UNL     1       6.364   3.783  12.827  0.00  0.00    +0.000 C 
BRANCH  14  15
ATOM     15  C   UNL     1       5.488   2.935  11.939  0.00  0.00    +0.000 C 
ATOM     16  O   UNL     1       4.428   3.313  11.444  0.00  0.00    +0.000 OA
BRANCH  15  17
ATOM     17  O   UNL     1       5.958   1.690  11.733  0.00  0.00    +0.000 OA
ATOM     18  H   UNL     1       5.289   0.980  11.792  0.00  0.00    +0.000 HD
ENDBRANCH  15  17
ENDBRANCH  14  15
ENDBRANCH  13  14
ENDBRANCH  12  13
ENDBRANCH   9  12
ENDBRANCH   2   8
BRANCH   1  19
ATOM     19  C   UNL     1       3.345   6.790  17.984  0.00  0.00    +0.000 C 
ATOM     20  O   UNL     1       4.352   7.382  17.611  0.00  0.00    +0.000 OA
BRANCH  19  22
ATOM     21  C   UNL     1       2.123   8.789  17.929  0.00  0.00    +0.000 C 
ATOM     22  O   UNL     1       2.101   7.360  17.989  0.00  0.00    +0.000 OA
ENDBRANCH  19  22
ENDBRANCH   1  19
TORSDOF 8
ENDMDL
MODEL 6
REMARK VINA RESULT:      -6.4      1.737      2.210
REMARK  Name = 
REMARK  11 active torsions:
REMARK  status: ('A' for Active; 'I' for Inactive)
REMARK    1  A    between atoms: C_1  and  O_2
REMARK    2  A    between atoms: O_2  and  C_3
REMARK    3  A    between atoms: C_3  and  C_5
REMARK    4  A    between atoms: C_6  and  N_7
REMARK    5  A    between atoms: C_8  and  C_10
REMARK    6  A    between atoms: C_10  and  C_11
REMARK    7  A    between atoms: C_11  and  C_12
REMARK    8  A    between atoms: C_12  and  C_13
REMARK    9  A    between atoms: C_13  and  O_15
REMARK   10  A    between atoms: C_17  and  C_18
REMARK   11  A    between atoms: C_19  and  C_20
REMARK                            x       y       z     vdW  Elec       q    Type
REMARK                         _______ _______ _______ _____ _____    ______ ____
ROOT
ATOM      1  C   UNL     1       3.704   3.749  19.647  0.00  0.00    +0.000 A 
ATOM      2  C   UNL     1       4.160   4.732  18.769  0.00  0.00    +0.000 A 
ATOM      3  S   UNL     1       3.335   6.202  19.024  0.00  0.00    +0.000 S 
ATOM      4  C   UNL     1       2.344   5.587  20.250  0.00  0.00    +0.000 A 
ATOM      5  C   UNL     1       1.323   6.477  20.889  0.00  0.00    +0.000 C 
ATOM      6  C   UNL     1       2.629   4.259  20.512  0.00  0.00    +0.000 A 
ATOM      7  C   UNL     1       1.921   3.443  21.554  0.00  0.00    +0.000 C 
ENDROOT
BRANCH   2   8
ATOM      8  N   UNL     1       5.138   4.646  17.765  0.00  0.00    +0.000 N 
ATOM      9  C   UNL     1       6.509   4.716  17.966  0.00  0.00    +0.000 C 
ATOM     10  O   UNL     1       7.077   4.855  19.051  0.00  0.00    +0.000 OA
ATOM     11  H   UNL     1       4.790   4.533  16.813  0.00  0.00    +0.000 HD
BRANCH   9  12
ATOM     12  C   UNL     1       7.368   4.591  16.714  0.00  0.00    +0.000 C 
BRANCH  12  13
ATOM     13  C   UNL     1       6.668   5.268  15.514  0.00  0.00    +0.000 C 
BRANCH  13  14
ATOM     14  C   UNL     1       6.548   4.372  14.272  0.00  0.00    +0.000 C 
BRANCH  14  15
ATOM     15  C   UNL     1       7.455   4.841  13.162  0.00  0.00    +0.000 C 
ATOM     16  O   UNL     1       8.294   5.730  13.280  0.00  0.00    +0.000 OA
BRANCH  15  17
ATOM     17  O   UNL     1       7.262   4.203  11.991  0.00  0.00    +0.000 OA
ATOM     18  H   UNL     1       6.537   3.547  11.992  0.00  0.00    +0.000 HD
ENDBRANCH  15  17
ENDBRANCH  14  15
ENDBRANCH  13  14
ENDBRANCH  12  13
ENDBRANCH   9  12
ENDBRANCH   2   8
BRANCH   1  19
ATOM     19  C   UNL     1       4.197   2.367  19.717  0.00  0.00    +0.000 C 
ATOM     20  O   UNL     1       4.802   1.918  20.683  0.00  0.00    +0.000 OA
BRANCH  19  22
ATOM     21  C   UNL     1       2.574   1.765  18.136  0.00  0.00    +0.000 C 
ATOM     22  O   UNL     1       3.921   1.629  18.597  0.00  0.00    +0.000 OA
ENDBRANCH  19  22
ENDBRANCH   1  19
TORSDOF 8
ENDMDL
MODEL 7
REMARK VINA RESULT:      -6.4      4.546      7.141
REMARK  Name = 
REMARK  11 active torsions:
REMARK  status: ('A' for Active; 'I' for Inactive)
REMARK    1  A    between atoms: C_1  and  O_2
REMARK    2  A    between atoms: O_2  and  C_3
REMARK    3  A    between atoms: C_3  and  C_5
REMARK    4  A    between atoms: C_6  and  N_7
REMARK    5  A    between atoms: C_8  and  C_10
REMARK    6  A    between atoms: C_10  and  C_11
REMARK    7  A    between atoms: C_11  and  C_12
REMARK    8  A    between atoms: C_12  and  C_13
REMARK    9  A    between atoms: C_13  and  O_15
REMARK   10  A    between atoms: C_17  and  C_18
REMARK   11  A    between atoms: C_19  and  C_20
REMARK                            x       y       z     vdW  Elec       q    Type
REMARK                         _______ _______ _______ _____ _____    ______ ____
ROOT
ATOM      1  C   UNL     1       5.919   5.428  16.799  0.00  0.00    +0.000 A 
ATOM      2  C   UNL     1       5.688   6.738  17.218  0.00  0.00    +0.000 A 
ATOM      3  S   UNL     1       4.100   6.913  17.813  0.00  0.00    +0.000 S 
ATOM      4  C   UNL     1       3.666   5.305  17.507  0.00  0.00    +0.000 A 
ATOM      5  C   UNL     1       2.278   4.844  17.827  0.00  0.00    +0.000 C 
ATOM      6  C   UNL     1       4.720   4.592  16.967  0.00  0.00    +0.000 A 
ATOM      7  C   UNL     1       4.642   3.139  16.597  0.00  0.00    +0.000 C 
ENDROOT
BRANCH   2   8
ATOM      8  N   UNL     1       6.548   7.848  17.190  0.00  0.00    +0.000 N 
ATOM      9  C   UNL     1       7.723   7.976  17.916  0.00  0.00    +0.000 C 
ATOM     10  O   UNL     1       8.195   7.137  18.686  0.00  0.00    +0.000 OA
ATOM     11  H   UNL     1       6.262   8.618  16.586  0.00  0.00    +0.000 HD
BRANCH   9  12
ATOM     12  C   UNL     1       8.489   9.277  17.710  0.00  0.00    +0.000 C 
BRANCH  12  13
ATOM     13  C   UNL     1       9.034   9.797  19.059  0.00  0.00    +0.000 C 
BRANCH  13  14
ATOM     14  C   UNL     1       9.920  11.046  18.935  0.00  0.00    +0.000 C 
BRANCH  14  15
ATOM     15  C   UNL     1      10.215  11.651  20.285  0.00  0.00    +0.000 C 
ATOM     16  O   UNL     1      10.973  12.600  20.470  0.00  0.00    +0.000 OA
BRANCH  15  17
ATOM     17  O   UNL     1       9.579  11.046  21.307  0.00  0.00    +0.000 OA
ATOM     18  H   UNL     1       8.728  10.626  21.073  0.00  0.00    +0.000 HD
ENDBRANCH  15  17
ENDBRANCH  14  15
ENDBRANCH  13  14
ENDBRANCH  12  13
ENDBRANCH   9  12
ENDBRANCH   2   8
BRANCH   1  19
ATOM     19  C   UNL     1       7.178   4.916  16.241  0.00  0.00    +0.000 C 
ATOM     20  O   UNL     1       7.931   4.171  16.857  0.00  0.00    +0.000 OA
BRANCH  19  22
ATOM     21  C   UNL     1       6.852   4.540  13.951  0.00  0.00    +0.000 C 
ATOM     22  O   UNL     1       7.434   5.357  14.971  0.00  0.00    +0.000 OA
ENDBRANCH  19  22
ENDBRANCH   1  19
TORSDOF 8
ENDMDL
MODEL 8
REMARK VINA RESULT:      -6.2      1.040      1.175
REMARK  Name = 
REMARK  11 active torsions:
REMARK  status: ('A' for Active; 'I' for Inactive)
REMARK    1  A    between atoms: C_1  and  O_2
REMARK    2  A    between atoms: O_2  and  C_3
REMARK    3  A    between atoms: C_3  and  C_5
REMARK    4  A    between atoms: C_6  and  N_7
REMARK    5  A    between atoms: C_8  and  C_10
REMARK    6  A    between atoms: C_10  and  C_11
REMARK    7  A    between atoms: C_11  and  C_12
REMARK    8  A    between atoms: C_12  and  C_13
REMARK    9  A    between atoms: C_13  and  O_15
REMARK   10  A    between atoms: C_17  and  C_18
REMARK   11  A    between atoms: C_19  and  C_20
REMARK                            x       y       z     vdW  Elec       q    Type
REMARK                         _______ _______ _______ _____ _____    ______ ____
ROOT
ATOM      1  C   UNL     1       2.805   4.336  18.607  0.00  0.00    +0.000 A 
ATOM      2  C   UNL     1       3.650   5.213  17.925  0.00  0.00    +0.000 A 
ATOM      3  S   UNL     1       3.479   6.803  18.516  0.00  0.00    +0.000 S 
ATOM      4  C   UNL     1       2.281   6.397  19.642  0.00  0.00    +0.000 A 
ATOM      5  C   UNL     1       1.684   7.468  20.501  0.00  0.00    +0.000 C 
ATOM      6  C   UNL     1       1.998   5.043  19.613  0.00  0.00    +0.000 A 
ATOM      7  C   UNL     1       0.984   4.383  20.502  0.00  0.00    +0.000 C 
ENDROOT
BRANCH   2   8
ATOM      8  N   UNL     1       4.544   4.952  16.874  0.00  0.00    +0.000 N 
ATOM      9  C   UNL     1       5.914   4.774  17.007  0.00  0.00    +0.000 C 
ATOM     10  O   UNL     1       6.552   4.809  18.061  0.00  0.00    +0.000 OA
ATOM     11  H   UNL     1       4.135   4.903  15.942  0.00  0.00    +0.000 HD
BRANCH   9  12
ATOM     12  C   UNL     1       6.672   4.496  15.715  0.00  0.00    +0.000 C 
BRANCH  12  13
ATOM     13  C   UNL     1       5.867   3.529  14.819  0.00  0.00    +0.000 C 
BRANCH  13  14
ATOM     14  C   UNL     1       5.502   4.107  13.443  0.00  0.00    +0.000 C 
BRANCH  14  15
ATOM     15  C   UNL     1       6.406   3.573  12.360  0.00  0.00    +0.000 C 
ATOM     16  O   UNL     1       7.266   4.235  11.784  0.00  0.00    +0.000 OA
BRANCH  15  17
ATOM     17  O   UNL     1       6.185   2.281  12.052  0.00  0.00    +0.000 OA
ATOM     18  H   UNL     1       5.245   2.033  11.953  0.00  0.00    +0.000 HD
ENDBRANCH  15  17
ENDBRANCH  14  15
ENDBRANCH  13  14
ENDBRANCH  12  13
ENDBRANCH   9  12
ENDBRANCH   2   8
BRANCH   1  19
ATOM     19  C   UNL     1       2.697   2.891  18.367  0.00  0.00    +0.000 C 
ATOM     20  O   UNL     1       2.329   2.413  17.300  0.00  0.00    +0.000 OA
BRANCH  19  22
ATOM     21  C   UNL     1       4.427   2.196  19.788  0.00  0.00    +0.000 C 
ATOM     22  O   UNL     1       3.038   2.128  19.451  0.00  0.00    +0.000 OA
ENDBRANCH  19  22
ENDBRANCH   1  19
TORSDOF 8
ENDMDL
MODEL 9
REMARK VINA RESULT:      -6.2      2.384      3.539
REMARK  Name = 
REMARK  11 active torsions:
REMARK  status: ('A' for Active; 'I' for Inactive)
REMARK    1  A    between atoms: C_1  and  O_2
REMARK    2  A    between atoms: O_2  and  C_3
REMARK    3  A    between atoms: C_3  and  C_5
REMARK    4  A    between atoms: C_6  and  N_7
REMARK    5  A    between atoms: C_8  and  C_10
REMARK    6  A    between atoms: C_10  and  C_11
REMARK    7  A    between atoms: C_11  and  C_12
REMARK    8  A    between atoms: C_12  and  C_13
REMARK    9  A    between atoms: C_13  and  O_15
REMARK   10  A    between atoms: C_17  and  C_18
REMARK   11  A    between atoms: C_19  and  C_20
REMARK                            x       y       z     vdW  Elec       q    Type
REMARK                         _______ _______ _______ _____ _____    ______ ____
ROOT
ATOM      1  C   UNL     1       3.216   4.861  19.320  0.00  0.00    +0.000 A 
ATOM      2  C   UNL     1       4.241   3.932  19.137  0.00  0.00    +0.000 A 
ATOM      3  S   UNL     1       3.970   2.538  20.080  0.00  0.00    +0.000 S 
ATOM      4  C   UNL     1       2.540   3.123  20.773  0.00  0.00    +0.000 A 
ATOM      5  C   UNL     1       1.810   2.282  21.774  0.00  0.00    +0.000 C 
ATOM      6  C   UNL     1       2.222   4.379  20.290  0.00  0.00    +0.000 A 
ATOM      7  C   UNL     1       1.006   5.152  20.713  0.00  0.00    +0.000 C 
ENDROOT
BRANCH   2   8
ATOM      8  N   UNL     1       5.391   4.020  18.337  0.00  0.00    +0.000 N 
ATOM      9  C   UNL     1       6.552   4.704  18.665  0.00  0.00    +0.000 C 
ATOM     10  O   UNL     1       6.756   5.329  19.708  0.00  0.00    +0.000 OA
ATOM     11  H   UNL     1       5.345   3.542  17.437  0.00  0.00    +0.000 HD
BRANCH   9  12
ATOM     12  C   UNL     1       7.669   4.647  17.630  0.00  0.00    +0.000 C 
BRANCH  12  13
ATOM     13  C   UNL     1       7.229   5.354  16.328  0.00  0.00    +0.000 C 
BRANCH  13  14
ATOM     14  C   UNL     1       7.197   4.436  15.097  0.00  0.00    +0.000 C 
BRANCH  14  15
ATOM     15  C   UNL     1       5.786   4.199  14.619  0.00  0.00    +0.000 C 
ATOM     16  O   UNL     1       5.477   3.976  13.451  0.00  0.00    +0.000 OA
BRANCH  15  17
ATOM     17  O   UNL     1       4.859   4.267  15.594  0.00  0.00    +0.000 OA
ATOM     18  H   UNL     1       4.886   5.081  16.134  0.00  0.00    +0.000 HD
ENDBRANCH  15  17
ENDBRANCH  14  15
ENDBRANCH  13  14
ENDBRANCH  12  13
ENDBRANCH   9  12
ENDBRANCH   2   8
BRANCH   1  19
ATOM     19  C   UNL     1       3.118   6.169  18.659  0.00  0.00    +0.000 C 
ATOM     20  O   UNL     1       2.635   7.158  19.197  0.00  0.00    +0.000 OA
BRANCH  19  22
ATOM     21  C   UNL     1       4.344   7.363  17.057  0.00  0.00    +0.000 C 
ATOM     22  O   UNL     1       3.613   6.178  17.382  0.00  0.00    +0.000 OA
ENDBRANCH  19  22
ENDBRANCH   1  19
TORSDOF 8
ENDMDL
