MODEL 1
REMARK VINA RESULT:      -7.4      0.000      0.000
REMARK  Name = 
REMARK  5 active torsions:
REMARK  status: ('A' for Active; 'I' for Inactive)
REMARK    1  A    between atoms: C_1  and  C_2
REMARK    2  A    between atoms: C_4  and  C_5
REMARK    3  A    between atoms: C_6  and  C_7
REMARK    4  A    between atoms: N_8  and  N_9
REMARK    5  A    between atoms: C_14  and  C_15
REMARK                            x       y       z     vdW  Elec       q    Type
REMARK                         _______ _______ _______ _____ _____    ______ ____
ROOT
ATOM      1  C   UNL     1       1.498   2.581  21.769  0.00  0.00    +0.000 C 
ATOM      2  C   UNL     1       1.745   3.536  20.631  0.00  0.00    +0.000 C 
ATOM      3  C   UNL     1       1.363   3.240  19.384  0.00  0.00    +0.000 C 
ATOM      4  C   UNL     1       1.589   4.099  18.178  0.00  0.00    +0.000 C 
ATOM      5  C   UNL     1       2.230   3.228  17.083  0.00  0.00    +0.000 C 
ATOM      6  C   UNL     1       2.300   5.454  18.429  0.00  0.00    +0.000 C 
ATOM      7  C   UNL     1       2.577   5.883  19.895  0.00  0.00    +0.000 C 
ATOM      8  C   UNL     1       1.748   7.125  20.252  0.00  0.00    +0.000 C 
ATOM      9  C   UNL     1       2.447   4.807  20.989  0.00  0.00    +0.000 C 
ENDROOT
BRANCH   6  10
ATOM     10  C   UNL     1       3.615   5.584  17.676  0.00  0.00    +0.000 C 
ATOM     11  N   UNL     1       4.734   5.468  18.309  0.00  0.00    +0.000 NA
BRANCH  11  12
ATOM     12  N   UNL     1       5.862   5.634  17.564  0.00  0.00    +0.000 N 
ATOM     13  C   UNL     1       6.548   6.768  17.209  0.00  0.00    +0.000 A 
ATOM     14  N   UNL     1       7.587   6.461  16.465  0.00  0.00    +0.000 NA
ATOM     15  N   UNL     1       7.627   5.093  16.358  0.00  0.00    +0.000 NA
ATOM     16  C   UNL     1       6.613   4.615  17.043  0.00  0.00    +0.000 A 
ENDBRANCH  11  12
ENDBRANCH   6  10
TORSDOF 2
ENDMDL
MODEL 2
REMARK VINA RESULT:      -7.1      1.014      1.220
REMARK  Name = 
REMARK  5 active torsions:
REMARK  status: ('A' for Active; 'I' for Inactive)
REMARK    1  A    between atoms: C_1  and  C_2
REMARK    2  A    between atoms: C_4  and  C_5
REMARK    3  A    between atoms: C_6  and  C_7
REMARK    4  A    between atoms: N_8  and  N_9
REMARK    5  A    between atoms: C_14  and  C_15
REMARK                            x       y       z     vdW  Elec       q    Type
REMARK                         _______ _______ _______ _____ _____    ______ ____
ROOT
ATOM      1  C   UNL     1       1.187   2.662  21.963  0.00  0.00    +0.000 C 
ATOM      2  C   UNL     1       1.648   3.358  20.710  0.00  0.00    +0.000 C 
ATOM      3  C   UNL     1       1.320   2.893  19.499  0.00  0.00    +0.000 C 
ATOM      4  C   UNL     1       1.752   3.486  18.193  0.00  0.00    +0.000 C 
ATOM      5  C   UNL     1       2.342   2.359  17.328  0.00  0.00    +0.000 C 
ATOM      6  C   UNL     1       2.628   4.763  18.280  0.00  0.00    +0.000 C 
ATOM      7  C   UNL     1       2.854   5.411  19.673  0.00  0.00    +0.000 C 
ATOM      8  C   UNL     1       2.185   6.790  19.734  0.00  0.00    +0.000 C 
ATOM      9  C   UNL     1       2.495   4.574  20.914  0.00  0.00    +0.000 C 
ENDROOT
BRANCH   6  10
ATOM     10  C   UNL     1       3.998   4.588  17.646  0.00  0.00    +0.000 C 
ATOM     11  N   UNL     1       4.477   5.513  16.884  0.00  0.00    +0.000 NA
BRANCH  11  12
ATOM     12  N   UNL     1       5.695   5.259  16.328  0.00  0.00    +0.000 N 
ATOM     13  C   UNL     1       6.836   4.718  16.867  0.00  0.00    +0.000 A 
ATOM     14  N   UNL     1       7.788   4.664  15.963  0.00  0.00    +0.000 NA
ATOM     15  N   UNL     1       7.264   5.134  14.784  0.00  0.00    +0.000 NA
ATOM     16  C   UNL     1       6.010   5.453  15.011  0.00  0.00    +0.000 A 
ENDBRANCH  11  12
ENDBRANCH   6  10
TORSDOF 2
ENDMDL
MODEL 3
REMARK VINA RESULT:      -7.1      0.879      1.077
REMARK  Name = 
REMARK  5 active torsions:
REMARK  status: ('A' for Active; 'I' for Inactive)
REMARK    1  A    between atoms: C_1  and  C_2
REMARK    2  A    between atoms: C_4  and  C_5
REMARK    3  A    between atoms: C_6  and  C_7
REMARK    4  A    between atoms: N_8  and  N_9
REMARK    5  A    between atoms: C_14  and  C_15
REMARK                            x       y       z     vdW  Elec       q    Type
REMARK                         _______ _______ _______ _____ _____    ______ ____
ROOT
ATOM      1  C   UNL     1       1.358   2.772  22.011  0.00  0.00    +0.000 C 
ATOM      2  C   UNL     1       1.717   3.579  20.791  0.00  0.00    +0.000 C 
ATOM      3  C   UNL     1       1.343   3.188  19.567  0.00  0.00    +0.000 C 
ATOM      4  C   UNL     1       1.675   3.894  18.288  0.00  0.00    +0.000 C 
ATOM      5  C   UNL     1       2.266   2.864  17.311  0.00  0.00    +0.000 C 
ATOM      6  C   UNL     1       2.495   5.204  18.426  0.00  0.00    +0.000 C 
ATOM      7  C   UNL     1       2.768   5.759  19.849  0.00  0.00    +0.000 C 
ATOM      8  C   UNL     1       2.041   7.095  20.049  0.00  0.00    +0.000 C 
ATOM      9  C   UNL     1       2.517   4.817  21.042  0.00  0.00    +0.000 C 
ENDROOT
BRANCH   6  10
ATOM     10  C   UNL     1       3.834   5.144  17.710  0.00  0.00    +0.000 C 
ATOM     11  N   UNL     1       4.288   6.190  17.104  0.00  0.00    +0.000 NA
BRANCH  11  12
ATOM     12  N   UNL     1       5.478   6.037  16.458  0.00  0.00    +0.000 N 
ATOM     13  C   UNL     1       5.770   5.531  15.216  0.00  0.00    +0.000 A 
ATOM     14  N   UNL     1       7.066   5.565  15.001  0.00  0.00    +0.000 NA
ATOM     15  N   UNL     1       7.650   6.147  16.099  0.00  0.00    +0.000 NA
ATOM     16  C   UNL     1       6.689   6.450  16.942  0.00  0.00    +0.000 A 
ENDBRANCH  11  12
ENDBRANCH   6  10
TORSDOF 2
ENDMDL
MODEL 4
REMARK VINA RESULT:      -6.5      2.323      3.801
REMARK  Name = 
REMARK  5 active torsions:
REMARK  status: ('A' for Active; 'I' for Inactive)
REMARK    1  A    between atoms: C_1  and  C_2
REMARK    2  A    between atoms: C_4  and  C_5
REMARK    3  A    between atoms: C_6  and  C_7
REMARK    4  A    between atoms: N_8  and  N_9
REMARK    5  A    between atoms: C_14  and  C_15
REMARK                            x       y       z     vdW  Elec       q    Type
REMARK                         _______ _______ _______ _____ _____    ______ ____
ROOT
ATOM      1  C   UNL     1       1.893   6.361  20.165  0.00  0.00    +0.000 C 
ATOM      2  C   UNL     1       2.824   5.523  19.329  0.00  0.00    +0.000 C 
ATOM      3  C   UNL     1       4.121   5.413  19.637  0.00  0.00    +0.000 C 
ATOM      4  C   UNL     1       5.137   4.636  18.857  0.00  0.00    +0.000 C 
ATOM      5  C   UNL     1       6.340   5.556  18.589  0.00  0.00    +0.000 C 
ATOM      6  C   UNL     1       4.608   3.879  17.611  0.00  0.00    +0.000 C 
ATOM      7  C   UNL     1       3.077   3.850  17.359  0.00  0.00    +0.000 C 
ATOM      8  C   UNL     1       2.539   2.420  17.508  0.00  0.00    +0.000 C 
ATOM      9  C   UNL     1       2.206   4.846  18.147  0.00  0.00    +0.000 C 
ENDROOT
BRANCH   6  10
ATOM     10  C   UNL     1       5.261   4.336  16.316  0.00  0.00    +0.000 C 
ATOM     11  N   UNL     1       5.769   3.466  15.510  0.00  0.00    +0.000 NA
BRANCH  11  12
ATOM     12  N   UNL     1       6.366   3.965  14.391  0.00  0.00    +0.000 N 
ATOM     13  C   UNL     1       6.254   3.602  13.072  0.00  0.00    +0.000 A 
ATOM     14  N   UNL     1       7.027   4.355  12.323  0.00  0.00    +0.000 NA
ATOM     15  N   UNL     1       7.633   5.271  13.147  0.00  0.00    +0.000 NA
ATOM     16  C   UNL     1       7.205   5.046  14.369  0.00  0.00    +0.000 A 
ENDBRANCH  11  12
ENDBRANCH   6  10
TORSDOF 2
ENDMDL
MODEL 5
REMARK VINA RESULT:      -6.5      1.721      2.817
REMARK  Name = 
REMARK  5 active torsions:
REMARK  status: ('A' for Active; 'I' for Inactive)
REMARK    1  A    between atoms: C_1  and  C_2
REMARK    2  A    between atoms: C_4  and  C_5
REMARK    3  A    between atoms: C_6  and  C_7
REMARK    4  A    between atoms: N_8  and  N_9
REMARK    5  A    between atoms: C_14  and  C_15
REMARK                            x       y       z     vdW  Elec       q    Type
REMARK                         _______ _______ _______ _____ _____    ______ ____
ROOT
ATOM      1  C   UNL     1       0.368   2.244  18.889  0.00  0.00    +0.000 C 
ATOM      2  C   UNL     1       1.678   2.899  19.235  0.00  0.00    +0.000 C 
ATOM      3  C   UNL     1       1.726   4.161  19.676  0.00  0.00    +0.000 C 
ATOM      4  C   UNL     1       2.974   4.918  20.016  0.00  0.00    +0.000 C 
ATOM      5  C   UNL     1       2.929   6.268  19.280  0.00  0.00    +0.000 C 
ATOM      6  C   UNL     1       4.306   4.139  19.864  0.00  0.00    +0.000 C 
ATOM      7  C   UNL     1       4.243   2.623  19.533  0.00  0.00    +0.000 C 
ATOM      8  C   UNL     1       4.782   1.799  20.710  0.00  0.00    +0.000 C 
ATOM      9  C   UNL     1       2.898   2.057  19.040  0.00  0.00    +0.000 C 
ENDROOT
BRANCH   6  10
ATOM     10  C   UNL     1       5.252   4.772  18.855  0.00  0.00    +0.000 C 
ATOM     11  N   UNL     1       5.391   4.246  17.685  0.00  0.00    +0.000 NA
BRANCH  11  12
ATOM     12  N   UNL     1       6.286   4.856  16.858  0.00  0.00    +0.000 N 
ATOM     13  C   UNL     1       6.727   4.520  15.603  0.00  0.00    +0.000 A 
ATOM     14  N   UNL     1       7.610   5.395  15.178  0.00  0.00    +0.000 NA
ATOM     15  N   UNL     1       7.729   6.362  16.145  0.00  0.00    +0.000 NA
ATOM     16  C   UNL     1       6.912   6.043  17.123  0.00  0.00    +0.000 A 
ENDBRANCH  11  12
ENDBRANCH   6  10
TORSDOF 2
ENDMDL
MODEL 6
REMARK VINA RESULT:      -6.4      2.485      5.883
REMARK  Name = 
REMARK  5 active torsions:
REMARK  status: ('A' for Active; 'I' for Inactive)
REMARK    1  A    between atoms: C_1  and  C_2
REMARK    2  A    between atoms: C_4  and  C_5
REMARK    3  A    between atoms: C_6  and  C_7
REMARK    4  A    between atoms: N_8  and  N_9
REMARK    5  A    between atoms: C_14  and  C_15
REMARK                            x       y       z     vdW  Elec       q    Type
REMARK                         _______ _______ _______ _____ _____    ______ ____
ROOT
ATOM      1  C   UNL     1       7.853   7.551  17.653  0.00  0.00    +0.000 C 
ATOM      2  C   UNL     1       6.581   6.767  17.467  0.00  0.00    +0.000 C 
ATOM      3  C   UNL     1       5.420   7.380  17.212  0.00  0.00    +0.000 C 
ATOM      4  C   UNL     1       4.095   6.701  17.044  0.00  0.00    +0.000 C 
ATOM      5  C   UNL     1       3.078   7.403  17.960  0.00  0.00    +0.000 C 
ATOM      6  C   UNL     1       4.104   5.154  17.148  0.00  0.00    +0.000 C 
ATOM      7  C   UNL     1       5.472   4.428  17.257  0.00  0.00    +0.000 C 
ATOM      8  C   UNL     1       5.726   3.581  16.003  0.00  0.00    +0.000 C 
ATOM      9  C   UNL     1       6.706   5.282  17.599  0.00  0.00    +0.000 C 
ENDROOT
BRANCH   6  10
ATOM     10  C   UNL     1       3.234   4.630  18.280  0.00  0.00    +0.000 C 
ATOM     11  N   UNL     1       3.704   3.747  19.097  0.00  0.00    +0.000 NA
BRANCH  11  12
ATOM     12  N   UNL     1       2.845   3.306  20.059  0.00  0.00    +0.000 N 
ATOM     13  C   UNL     1       3.080   2.680  21.257  0.00  0.00    +0.000 A 
ATOM     14  N   UNL     1       1.946   2.422  21.869  0.00  0.00    +0.000 NA
ATOM     15  N   UNL     1       0.934   2.927  21.090  0.00  0.00    +0.000 NA
ATOM     16  C   UNL     1       1.488   3.477  20.033  0.00  0.00    +0.000 A 
ENDBRANCH  11  12
ENDBRANCH   6  10
TORSDOF 2
ENDMDL
MODEL 7
REMARK VINA RESULT:      -6.4      1.961      2.857
REMARK  Name = 
REMARK  5 active torsions:
REMARK  status: ('A' for Active; 'I' for Inactive)
REMARK    1  A    between atoms: C_1  and  C_2
REMARK    2  A    between atoms: C_4  and  C_5
REMARK    3  A    between atoms: C_6  and  C_7
REMARK    4  A    between atoms: N_8  and  N_9
REMARK    5  A    between atoms: C_14  and  C_15
REMARK                            x       y       z     vdW  Elec       q    Type
REMARK                         _______ _______ _______ _____ _____    ______ ____
ROOT
ATOM      1  C   UNL     1       0.261   2.552  19.097  0.00  0.00    +0.000 C 
ATOM      2  C   UNL     1       1.647   3.131  19.196  0.00  0.00    +0.000 C 
ATOM      3  C   UNL     1       1.839   4.429  19.459  0.00  0.00    +0.000 C 
ATOM      4  C   UNL     1       3.169   5.112  19.546  0.00  0.00    +0.000 C 
ATOM      5  C   UNL     1       3.125   6.361  18.649  0.00  0.00    +0.000 C 
ATOM      6  C   UNL     1       4.414   4.209  19.342  0.00  0.00    +0.000 C 
ATOM      7  C   UNL     1       4.204   2.676  19.225  0.00  0.00    +0.000 C 
ATOM      8  C   UNL     1       4.830   1.958  20.428  0.00  0.00    +0.000 C 
ATOM      9  C   UNL     1       2.771   2.170  18.973  0.00  0.00    +0.000 C 
ENDROOT
BRANCH   6  10
ATOM     10  C   UNL     1       5.265   4.631  18.155  0.00  0.00    +0.000 C 
ATOM     11  N   UNL     1       5.165   3.998  17.034  0.00  0.00    +0.000 NA
BRANCH  11  12
ATOM     12  N   UNL     1       5.991   4.419  16.035  0.00  0.00    +0.000 N 
ATOM     13  C   UNL     1       7.088   5.243  16.060  0.00  0.00    +0.000 A 
ATOM     14  N   UNL     1       7.580   5.387  14.850  0.00  0.00    +0.000 NA
ATOM     15  N   UNL     1       6.829   4.608  14.004  0.00  0.00    +0.000 NA
ATOM     16  C   UNL     1       5.908   4.015  14.730  0.00  0.00    +0.000 A 
ENDBRANCH  11  12
ENDBRANCH   6  10
TORSDOF 2
ENDMDL
MODEL 8
REMARK VINA RESULT:      -6.3      2.420      5.881
REMARK  Name = 
REMARK  5 active torsions:
REMARK  status: ('A' for Active; 'I' for Inactive)
REMARK    1  A    between atoms: C_1  and  C_2
REMARK    2  A    between atoms: C_4  and  C_5
REMARK    3  A    between atoms: C_6  and  C_7
REMARK    4  A    between atoms: N_8  and  N_9
REMARK    5  A    between atoms: C_14  and  C_15
REMARK                            x       y       z     vdW  Elec       q    Type
REMARK                         _______ _______ _______ _____ _____    ______ ____
ROOT
ATOM      1  C   UNL     1       8.253   7.457  18.337  0.00  0.00    +0.000 C 
ATOM      2  C   UNL     1       7.088   6.745  17.700  0.00  0.00    +0.000 C 
ATOM      3  C   UNL     1       5.983   7.408  17.342  0.00  0.00    +0.000 C 
ATOM      4  C   UNL     1       4.759   6.794  16.735  0.00  0.00    +0.000 C 
ATOM      5  C   UNL     1       3.536   7.268  17.539  0.00  0.00    +0.000 C 
ATOM      6  C   UNL     1       4.816   5.265  16.482  0.00  0.00    +0.000 C 
ATOM      7  C   UNL     1       6.161   4.526  16.721  0.00  0.00    +0.000 C 
ATOM      8  C   UNL     1       6.719   3.993  15.395  0.00  0.00    +0.000 C 
ATOM      9  C   UNL     1       7.251   5.270  17.514  0.00  0.00    +0.000 C 
ENDROOT
BRANCH   6  10
ATOM     10  C   UNL     1       3.748   4.496  17.243  0.00  0.00    +0.000 C 
ATOM     11  N   UNL     1       4.062   3.850  18.316  0.00  0.00    +0.000 NA
BRANCH  11  12
ATOM     12  N   UNL     1       3.051   3.160  18.914  0.00  0.00    +0.000 N 
ATOM     13  C   UNL     1       2.073   2.355  18.385  0.00  0.00    +0.000 A 
ATOM     14  N   UNL     1       1.293   1.896  19.338  0.00  0.00    +0.000 NA
ATOM     15  N   UNL     1       1.783   2.362  20.533  0.00  0.00    +0.000 NA
ATOM     16  C   UNL     1       2.847   3.085  20.266  0.00  0.00    +0.000 A 
ENDBRANCH  11  12
ENDBRANCH   6  10
TORSDOF 2
ENDMDL
MODEL 9
REMARK VINA RESULT:      -6.0      2.747      5.374
REMARK  Name = 
REMARK  5 active torsions:
REMARK  status: ('A' for Active; 'I' for Inactive)
REMARK    1  A    between atoms: C_1  and  C_2
REMARK    2  A    between atoms: C_4  and  C_5
REMARK    3  A    between atoms: C_6  and  C_7
REMARK    4  A    between atoms: N_8  and  N_9
REMARK    5  A    between atoms: C_14  and  C_15
REMARK                            x       y       z     vdW  Elec       q    Type
REMARK                         _______ _______ _______ _____ _____    ______ ____
ROOT
ATOM      1  C   UNL     1       6.111   4.215  14.397  0.00  0.00    +0.000 C 
ATOM      2  C   UNL     1       5.592   4.482  15.785  0.00  0.00    +0.000 C 
ATOM      3  C   UNL     1       4.662   3.697  16.340  0.00  0.00    +0.000 C 
ATOM      4  C   UNL     1       4.054   3.892  17.695  0.00  0.00    +0.000 C 
ATOM      5  C   UNL     1       2.524   3.845  17.545  0.00  0.00    +0.000 C 
ATOM      6  C   UNL     1       4.590   5.094  18.516  0.00  0.00    +0.000 C 
ATOM      7  C   UNL     1       5.798   5.892  17.956  0.00  0.00    +0.000 C 
ATOM      8  C   UNL     1       7.023   5.711  18.862  0.00  0.00    +0.000 C 
ATOM      9  C   UNL     1       6.173   5.673  16.479  0.00  0.00    +0.000 C 
ENDROOT
BRANCH   6  10
ATOM     10  C   UNL     1       3.510   6.108  18.858  0.00  0.00    +0.000 C 
ATOM     11  N   UNL     1       3.408   7.196  18.171  0.00  0.00    +0.000 NA
BRANCH  11  12
ATOM     12  N   UNL     1       2.436   8.064  18.568  0.00  0.00    +0.000 N 
ATOM     13  C   UNL     1       1.824   8.236  19.785  0.00  0.00    +0.000 A 
ATOM     14  N   UNL     1       0.926   9.193  19.714  0.00  0.00    +0.000 NA
ATOM     15  N   UNL     1       0.970   9.706  18.442  0.00  0.00    +0.000 NA
ATOM     16  C   UNL     1       1.895   9.045  17.782  0.00  0.00    +0.000 A 
ENDBRANCH  11  12
ENDBRANCH   6  10
TORSDOF 2
ENDMDL
