MODEL 1
REMARK VINA RESULT:      -5.3      0.000      0.000
REMARK  Name = 
REMARK  29 active torsions:
REMARK  status: ('A' for Active; 'I' for Inactive)
REMARK    1  A    between atoms: C_1  and  C_2
REMARK    2  A    between atoms: C_2  and  C_3
REMARK    3  A    between atoms: C_3  and  C_4
REMARK    4  A    between atoms: C_4  and  C_5
REMARK    5  A    between atoms: C_5  and  C_6
REMARK    6  A    between atoms: C_6  and  C_7
REMARK    7  A    between atoms: C_7  and  C_8
REMARK    8  A    between atoms: C_8  and  C_9
REMARK    9  A    between atoms: C_9  and  C_10
REMARK   10  A    between atoms: C_10  and  C_11
REMARK   11  A    between atoms: C_11  and  C_12
REMARK   12  A    between atoms: C_12  and  C_13
REMARK   13  A    between atoms: C_13  and  C_14
REMARK   14  A    between atoms: C_14  and  C_15
REMARK   15  A    between atoms: C_15  and  C_16
REMARK   16  A    between atoms: C_16  and  O_17
REMARK   17  A    between atoms: O_17  and  C_18
REMARK   18  A    between atoms: C_18  and  C_19
REMARK   19  A    between atoms: C_19  and  O_20
REMARK   20  A    between atoms: C_19  and  C_21
REMARK   21  A    between atoms: C_21  and  O_22
REMARK   22  A    between atoms: O_22  and  P_23
REMARK   23  A    between atoms: P_23  and  C_26
REMARK   24  A    between atoms: C_26  and  C_27
REMARK   25  A    between atoms: C_27  and  C_28
REMARK   26  A    between atoms: C_28  and  N_29
REMARK   27  A    between atoms: N_29  and  C_30
REMARK   28  A    between atoms: N_29  and  C_31
REMARK   29  A    between atoms: N_29  and  C_32
REMARK                            x       y       z     vdW  Elec       q    Type
REMARK                         _______ _______ _______ _____ _____    ______ ____
ROOT
ATOM      1  O   UNL     1       0.974   9.491  17.850  0.00  0.00    +0.000 OA
ENDROOT
BRANCH   1   2
ATOM      2  C   UNL     1       0.570  10.025  19.111  0.00  0.00    +0.000 C 
BRANCH   2   3
ATOM      3  C   UNL     1       1.150  11.438  19.288  0.00  0.00    +0.000 C 
BRANCH   3   4
ATOM      4  O   UNL     1       1.645  11.937  18.029  0.00  0.00    +0.000 OA
ATOM      5  H   UNL     1       1.721  12.907  18.097  0.00  0.00    +0.000 HD
ENDBRANCH   3   4
BRANCH   3   6
ATOM      6  C   UNL     1       0.133  12.406  19.893  0.00  0.00    +0.000 C 
BRANCH   6   7
ATOM      7  O   UNL     1       0.454  12.688  21.251  0.00  0.00    +0.000 OA
BRANCH   7   8
ATOM      8  P   UNL     1      -0.860  12.310  22.310  0.00  0.00    +0.000 P 
ATOM      9  O   UNL     1      -1.821  12.405  21.119  0.00  0.00    +0.000 OA
ATOM     10  O   UNL     1      -0.202  10.998  22.755  0.00  0.00    +0.000 OA
BRANCH   8  11
ATOM     11  C   UNL     1      -2.249  11.910  23.431  0.00  0.00    +0.000 C 
BRANCH  11  12
ATOM     12  C   UNL     1      -3.574  12.465  22.915  0.00  0.00    +0.000 C 
BRANCH  12  13
ATOM     13  C   UNL     1      -4.151  13.552  23.793  0.00  0.00    +0.000 C 
BRANCH  13  14
ATOM     14  N   UNL     1      -4.240  14.903  23.039  0.00  0.00    +0.000 N 
ATOM     15  C   UNL     1      -2.889  15.607  22.978  0.00  0.00    +0.000 C 
ATOM     16  C   UNL     1      -4.757  14.678  21.618  0.00  0.00    +0.000 C 
ATOM     17  C   UNL     1      -5.217  15.790  23.792  0.00  0.00    +0.000 C 
ENDBRANCH  13  14
ENDBRANCH  12  13
ENDBRANCH  11  12
ENDBRANCH   8  11
ENDBRANCH   7   8
ENDBRANCH   6   7
ENDBRANCH   3   6
ENDBRANCH   2   3
ENDBRANCH   1   2
BRANCH   1  18
ATOM     18  C   UNL     1       2.233   8.855  17.927  0.00  0.00    +0.000 C 
BRANCH  18  19
ATOM     19  C   UNL     1       2.134   7.786  18.999  0.00  0.00    +0.000 C 
BRANCH  19  20
ATOM     20  C   UNL     1       3.011   6.607  18.636  0.00  0.00    +0.000 C 
BRANCH  20  21
ATOM     21  C   UNL     1       3.175   5.660  19.811  0.00  0.00    +0.000 C 
BRANCH  21  22
ATOM     22  C   UNL     1       1.875   5.598  20.597  0.00  0.00    +0.000 C 
BRANCH  22  23
ATOM     23  C   UNL     1       1.434   4.157  20.781  0.00  0.00    +0.000 C 
BRANCH  23  24
ATOM     24  C   UNL     1       0.825   3.631  19.492  0.00  0.00    +0.000 C 
BRANCH  24  25
ATOM     25  C   UNL     1       1.468   2.307  19.113  0.00  0.00    +0.000 C 
BRANCH  25  26
ATOM     26  C   UNL     1       2.238   2.451  17.811  0.00  0.00    +0.000 C 
BRANCH  26  27
ATOM     27  C   UNL     1       3.689   2.041  18.011  0.00  0.00    +0.000 C 
BRANCH  27  28
ATOM     28  C   UNL     1       4.596   3.262  17.955  0.00  0.00    +0.000 C 
BRANCH  28  29
ATOM     29  C   UNL     1       4.408   4.001  16.637  0.00  0.00    +0.000 C 
BRANCH  29  30
ATOM     30  C   UNL     1       5.726   4.085  15.877  0.00  0.00    +0.000 C 
BRANCH  30  31
ATOM     31  C   UNL     1       6.862   4.466  16.820  0.00  0.00    +0.000 C 
BRANCH  31  33
ATOM     32  C   UNL     1       7.517   6.417  18.250  0.00  0.00    +0.000 C 
ATOM     33  C   UNL     1       7.042   5.979  16.876  0.00  0.00    +0.000 C 
ENDBRANCH  31  33
ENDBRANCH  30  31
ENDBRANCH  29  30
ENDBRANCH  28  29
ENDBRANCH  27  28
ENDBRANCH  26  27
ENDBRANCH  25  26
ENDBRANCH  24  25
ENDBRANCH  23  24
ENDBRANCH  22  23
ENDBRANCH  21  22
ENDBRANCH  20  21
ENDBRANCH  19  20
ENDBRANCH  18  19
ENDBRANCH   1  18
TORSDOF 25
ENDMDL
MODEL 2
REMARK VINA RESULT:      -5.1      1.667      2.637
REMARK  Name = 
REMARK  29 active torsions:
REMARK  status: ('A' for Active; 'I' for Inactive)
REMARK    1  A    between atoms: C_1  and  C_2
REMARK    2  A    between atoms: C_2  and  C_3
REMARK    3  A    between atoms: C_3  and  C_4
REMARK    4  A    between atoms: C_4  and  C_5
REMARK    5  A    between atoms: C_5  and  C_6
REMARK    6  A    between atoms: C_6  and  C_7
REMARK    7  A    between atoms: C_7  and  C_8
REMARK    8  A    between atoms: C_8  and  C_9
REMARK    9  A    between atoms: C_9  and  C_10
REMARK   10  A    between atoms: C_10  and  C_11
REMARK   11  A    between atoms: C_11  and  C_12
REMARK   12  A    between atoms: C_12  and  C_13
REMARK   13  A    between atoms: C_13  and  C_14
REMARK   14  A    between atoms: C_14  and  C_15
REMARK   15  A    between atoms: C_15  and  C_16
REMARK   16  A    between atoms: C_16  and  O_17
REMARK   17  A    between atoms: O_17  and  C_18
REMARK   18  A    between atoms: C_18  and  C_19
REMARK   19  A    between atoms: C_19  and  O_20
REMARK   20  A    between atoms: C_19  and  C_21
REMARK   21  A    between atoms: C_21  and  O_22
REMARK   22  A    between atoms: O_22  and  P_23
REMARK   23  A    between atoms: P_23  and  C_26
REMARK   24  A    between atoms: C_26  and  C_27
REMARK   25  A    between atoms: C_27  and  C_28
REMARK   26  A    between atoms: C_28  and  N_29
REMARK   27  A    between atoms: N_29  and  C_30
REMARK   28  A    between atoms: N_29  and  C_31
REMARK   29  A    between atoms: N_29  and  C_32
REMARK                            x       y       z     vdW  Elec       q    Type
REMARK                         _______ _______ _______ _____ _____    ______ ____
ROOT
ATOM      1  O   UNL     1       0.887   8.610  20.434  0.00  0.00    +0.000 OA
ENDROOT
BRANCH   1   2
ATOM      2  C   UNL     1       0.222   8.335  21.667  0.00  0.00    +0.000 C 
BRANCH   2   3
ATOM      3  C   UNL     1      -0.340   9.639  22.257  0.00  0.00    +0.000 C 
BRANCH   3   4
ATOM      4  O   UNL     1       0.365   9.987  23.466  0.00  0.00    +0.000 OA
ATOM      5  H   UNL     1       0.802  10.846  23.324  0.00  0.00    +0.000 HD
ENDBRANCH   3   4
BRANCH   3   6
ATOM      6  C   UNL     1      -0.294  10.791  21.253  0.00  0.00    +0.000 C 
BRANCH   6   7
ATOM      7  O   UNL     1       0.086  12.003  21.895  0.00  0.00    +0.000 OA
BRANCH   7   8
ATOM      8  P   UNL     1      -1.277  13.031  22.177  0.00  0.00    +0.000 P 
ATOM      9  O   UNL     1      -1.127  12.782  23.682  0.00  0.00    +0.000 OA
ATOM     10  O   UNL     1      -0.613  14.209  21.452  0.00  0.00    +0.000 OA
BRANCH   8  11
ATOM     11  C   UNL     1      -2.717  14.119  22.474  0.00  0.00    +0.000 C 
BRANCH  11  12
ATOM     12  C   UNL     1      -3.297  13.923  23.872  0.00  0.00    +0.000 C 
BRANCH  12  13
ATOM     13  C   UNL     1      -4.504  13.014  23.899  0.00  0.00    +0.000 C 
BRANCH  13  14
ATOM     14  N   UNL     1      -5.773  13.739  23.383  0.00  0.00    +0.000 N 
ATOM     15  C   UNL     1      -5.762  15.221  23.740  0.00  0.00    +0.000 C 
ATOM     16  C   UNL     1      -5.884  13.585  21.866  0.00  0.00    +0.000 C 
ATOM     17  C   UNL     1      -6.978  13.089  24.042  0.00  0.00    +0.000 C 
ENDBRANCH  13  14
ENDBRANCH  12  13
ENDBRANCH  11  12
ENDBRANCH   8  11
ENDBRANCH   7   8
ENDBRANCH   6   7
ENDBRANCH   3   6
ENDBRANCH   2   3
ENDBRANCH   1   2
BRANCH   1  18
ATOM     18  C   UNL     1       1.968   7.729  20.211  0.00  0.00    +0.000 C 
BRANCH  18  19
ATOM     19  C   UNL     1       1.494   6.333  20.567  0.00  0.00    +0.000 C 
BRANCH  19  20
ATOM     20  C   UNL     1       2.630   5.345  20.408  0.00  0.00    +0.000 C 
BRANCH  20  21
ATOM     21  C   UNL     1       2.177   3.930  20.720  0.00  0.00    +0.000 C 
BRANCH  21  22
ATOM     22  C   UNL     1       0.765   3.723  20.198  0.00  0.00    +0.000 C 
BRANCH  22  23
ATOM     23  C   UNL     1       0.776   2.829  18.972  0.00  0.00    +0.000 C 
BRANCH  23  24
ATOM     24  C   UNL     1       2.164   2.245  18.766  0.00  0.00    +0.000 C 
BRANCH  24  25
ATOM     25  C   UNL     1       2.787   2.811  17.500  0.00  0.00    +0.000 C 
BRANCH  25  26
ATOM     26  C   UNL     1       4.254   3.129  17.734  0.00  0.00    +0.000 C 
BRANCH  26  27
ATOM     27  C   UNL     1       4.554   4.560  17.315  0.00  0.00    +0.000 C 
BRANCH  27  28
ATOM     28  C   UNL     1       5.745   4.596  16.369  0.00  0.00    +0.000 C 
BRANCH  28  29
ATOM     29  C   UNL     1       7.045   4.674  17.158  0.00  0.00    +0.000 C 
BRANCH  29  30
ATOM     30  C   UNL     1       6.847   5.465  18.444  0.00  0.00    +0.000 C 
BRANCH  30  31
ATOM     31  C   UNL     1       7.892   6.570  18.558  0.00  0.00    +0.000 C 
BRANCH  31  33
ATOM     32  C   UNL     1       8.274   8.989  18.024  0.00  0.00    +0.000 C 
ATOM     33  C   UNL     1       7.598   7.703  17.582  0.00  0.00    +0.000 C 
ENDBRANCH  31  33
ENDBRANCH  30  31
ENDBRANCH  29  30
ENDBRANCH  28  29
ENDBRANCH  27  28
ENDBRANCH  26  27
ENDBRANCH  25  26
ENDBRANCH  24  25
ENDBRANCH  23  24
ENDBRANCH  22  23
ENDBRANCH  21  22
ENDBRANCH  20  21
ENDBRANCH  19  20
ENDBRANCH  18  19
ENDBRANCH   1  18
TORSDOF 25
ENDMDL
MODEL 3
REMARK VINA RESULT:      -5.1      2.350      4.543
REMARK  Name = 
REMARK  29 active torsions:
REMARK  status: ('A' for Active; 'I' for Inactive)
REMARK    1  A    between atoms: C_1  and  C_2
REMARK    2  A    between atoms: C_2  and  C_3
REMARK    3  A    between atoms: C_3  and  C_4
REMARK    4  A    between atoms: C_4  and  C_5
REMARK    5  A    between atoms: C_5  and  C_6
REMARK    6  A    between atoms: C_6  and  C_7
REMARK    7  A    between atoms: C_7  and  C_8
REMARK    8  A    between atoms: C_8  and  C_9
REMARK    9  A    between atoms: C_9  and  C_10
REMARK   10  A    between atoms: C_10  and  C_11
REMARK   11  A    between atoms: C_11  and  C_12
REMARK   12  A    between atoms: C_12  and  C_13
REMARK   13  A    between atoms: C_13  and  C_14
REMARK   14  A    between atoms: C_14  and  C_15
REMARK   15  A    between atoms: C_15  and  C_16
REMARK   16  A    between atoms: C_16  and  O_17
REMARK   17  A    between atoms: O_17  and  C_18
REMARK   18  A    between atoms: C_18  and  C_19
REMARK   19  A    between atoms: C_19  and  O_20
REMARK   20  A    between atoms: C_19  and  C_21
REMARK   21  A    between atoms: C_21  and  O_22
REMARK   22  A    between atoms: O_22  and  P_23
REMARK   23  A    between atoms: P_23  and  C_26
REMARK   24  A    between atoms: C_26  and  C_27
REMARK   25  A    between atoms: C_27  and  C_28
REMARK   26  A    between atoms: C_28  and  N_29
REMARK   27  A    between atoms: N_29  and  C_30
REMARK   28  A    between atoms: N_29  and  C_31
REMARK   29  A    between atoms: N_29  and  C_32
REMARK                            x       y       z     vdW  Elec       q    Type
REMARK                         _______ _______ _______ _____ _____    ______ ____
ROOT
ATOM      1  O   UNL     1       2.800   6.896  19.418  0.00  0.00    +0.000 OA
ENDROOT
BRANCH   1   2
ATOM      2  C   UNL     1       2.201   7.554  18.302  0.00  0.00    +0.000 C 
BRANCH   2   3
ATOM      3  C   UNL     1       2.002   9.045  18.623  0.00  0.00    +0.000 C 
BRANCH   3   4
ATOM      4  O   UNL     1       1.370   9.716  17.515  0.00  0.00    +0.000 OA
ATOM      5  H   UNL     1       0.545   9.241  17.305  0.00  0.00    +0.000 HD
ENDBRANCH   3   4
BRANCH   3   6
ATOM      6  C   UNL     1       1.204   9.254  19.910  0.00  0.00    +0.000 C 
BRANCH   6   7
ATOM      7  O   UNL     1       0.080  10.094  19.674  0.00  0.00    +0.000 OA
BRANCH   7   8
ATOM      8  P   UNL     1      -0.392  10.948  21.103  0.00  0.00    +0.000 P 
ATOM      9  O   UNL     1       1.071  11.351  21.320  0.00  0.00    +0.000 OA
ATOM     10  O   UNL     1      -1.394  11.812  20.327  0.00  0.00    +0.000 OA
BRANCH   8  11
ATOM     11  C   UNL     1      -0.892  11.851  22.613  0.00  0.00    +0.000 C 
BRANCH  11  12
ATOM     12  C   UNL     1      -2.353  12.288  22.555  0.00  0.00    +0.000 C 
BRANCH  12  13
ATOM     13  C   UNL     1      -2.558  13.744  22.904  0.00  0.00    +0.000 C 
BRANCH  13  14
ATOM     14  N   UNL     1      -3.598  13.915  24.040  0.00  0.00    +0.000 N 
ATOM     15  C   UNL     1      -4.115  12.571  24.540  0.00  0.00    +0.000 C 
ATOM     16  C   UNL     1      -2.980  14.685  25.206  0.00  0.00    +0.000 C 
ATOM     17  C   UNL     1      -4.768  14.708  23.481  0.00  0.00    +0.000 C 
ENDBRANCH  13  14
ENDBRANCH  12  13
ENDBRANCH  11  12
ENDBRANCH   8  11
ENDBRANCH   7   8
ENDBRANCH   6   7
ENDBRANCH   3   6
ENDBRANCH   2   3
ENDBRANCH   1   2
BRANCH   1  18
ATOM     18  C   UNL     1       2.093   5.729  19.784  0.00  0.00    +0.000 C 
BRANCH  18  19
ATOM     19  C   UNL     1       2.193   4.758  18.624  0.00  0.00    +0.000 C 
BRANCH  19  20
ATOM     20  C   UNL     1       3.628   4.307  18.449  0.00  0.00    +0.000 C 
BRANCH  20  21
ATOM     21  C   UNL     1       3.798   3.492  17.179  0.00  0.00    +0.000 C 
BRANCH  21  22
ATOM     22  C   UNL     1       4.642   4.273  16.185  0.00  0.00    +0.000 C 
BRANCH  22  23
ATOM     23  C   UNL     1       6.013   3.639  16.038  0.00  0.00    +0.000 C 
BRANCH  23  24
ATOM     24  C   UNL     1       7.096   4.684  16.248  0.00  0.00    +0.000 C 
BRANCH  24  25
ATOM     25  C   UNL     1       7.688   4.550  17.641  0.00  0.00    +0.000 C 
BRANCH  25  26
ATOM     26  C   UNL     1       7.419   5.807  18.450  0.00  0.00    +0.000 C 
BRANCH  26  27
ATOM     27  C   UNL     1       6.751   6.859  17.577  0.00  0.00    +0.000 C 
BRANCH  27  28
ATOM     28  C   UNL     1       7.732   7.974  17.247  0.00  0.00    +0.000 C 
BRANCH  28  29
ATOM     29  C   UNL     1       8.385   8.498  18.519  0.00  0.00    +0.000 C 
BRANCH  29  30
ATOM     30  C   UNL     1       8.821   9.947  18.341  0.00  0.00    +0.000 C 
BRANCH  30  31
ATOM     31  C   UNL     1       9.494  10.462  19.609  0.00  0.00    +0.000 C 
BRANCH  31  33
ATOM     32  C   UNL     1       9.229  12.541  18.235  0.00  0.00    +0.000 C 
ATOM     33  C   UNL     1       9.581  11.984  19.603  0.00  0.00    +0.000 C 
ENDBRANCH  31  33
ENDBRANCH  30  31
ENDBRANCH  29  30
ENDBRANCH  28  29
ENDBRANCH  27  28
ENDBRANCH  26  27
ENDBRANCH  25  26
ENDBRANCH  24  25
ENDBRANCH  23  24
ENDBRANCH  22  23
ENDBRANCH  21  22
ENDBRANCH  20  21
ENDBRANCH  19  20
ENDBRANCH  18  19
ENDBRANCH   1  18
TORSDOF 25
ENDMDL
MODEL 4
REMARK VINA RESULT:      -5.0      1.351      1.955
REMARK  Name = 
REMARK  29 active torsions:
REMARK  status: ('A' for Active; 'I' for Inactive)
REMARK    1  A    between atoms: C_1  and  C_2
REMARK    2  A    between atoms: C_2  and  C_3
REMARK    3  A    between atoms: C_3  and  C_4
REMARK    4  A    between atoms: C_4  and  C_5
REMARK    5  A    between atoms: C_5  and  C_6
REMARK    6  A    between atoms: C_6  and  C_7
REMARK    7  A    between atoms: C_7  and  C_8
REMARK    8  A    between atoms: C_8  and  C_9
REMARK    9  A    between atoms: C_9  and  C_10
REMARK   10  A    between atoms: C_10  and  C_11
REMARK   11  A    between atoms: C_11  and  C_12
REMARK   12  A    between atoms: C_12  and  C_13
REMARK   13  A    between atoms: C_13  and  C_14
REMARK   14  A    between atoms: C_14  and  C_15
REMARK   15  A    between atoms: C_15  and  C_16
REMARK   16  A    between atoms: C_16  and  O_17
REMARK   17  A    between atoms: O_17  and  C_18
REMARK   18  A    between atoms: C_18  and  C_19
REMARK   19  A    between atoms: C_19  and  O_20
REMARK   20  A    between atoms: C_19  and  C_21
REMARK   21  A    between atoms: C_21  and  O_22
REMARK   22  A    between atoms: O_22  and  P_23
REMARK   23  A    between atoms: P_23  and  C_26
REMARK   24  A    between atoms: C_26  and  C_27
REMARK   25  A    between atoms: C_27  and  C_28
REMARK   26  A    between atoms: C_28  and  N_29
REMARK   27  A    between atoms: N_29  and  C_30
REMARK   28  A    between atoms: N_29  and  C_31
REMARK   29  A    between atoms: N_29  and  C_32
REMARK                            x       y       z     vdW  Elec       q    Type
REMARK                         _______ _______ _______ _____ _____    ______ ____
ROOT
ATOM      1  O   UNL     1       2.029   9.059  18.916  0.00  0.00    +0.000 OA
ENDROOT
BRANCH   1   2
ATOM      2  C   UNL     1       1.747  10.218  18.131  0.00  0.00    +0.000 C 
BRANCH   2   3
ATOM      3  C   UNL     1       0.374  10.789  18.521  0.00  0.00    +0.000 C 
BRANCH   3   4
ATOM      4  O   UNL     1      -0.654  10.255  17.662  0.00  0.00    +0.000 OA
ATOM      5  H   UNL     1      -0.717   9.296  17.825  0.00  0.00    +0.000 HD
ENDBRANCH   3   4
BRANCH   3   6
ATOM      6  C   UNL     1       0.040  10.529  19.990  0.00  0.00    +0.000 C 
BRANCH   6   7
ATOM      7  O   UNL     1      -0.063  11.756  20.707  0.00  0.00    +0.000 OA
BRANCH   7   8
ATOM      8  P   UNL     1      -1.708  12.259  20.881  0.00  0.00    +0.000 P 
ATOM      9  O   UNL     1      -1.679  11.780  22.337  0.00  0.00    +0.000 OA
ATOM     10  O   UNL     1      -1.375  13.697  20.463  0.00  0.00    +0.000 OA
BRANCH   8  11
ATOM     11  C   UNL     1      -3.449  12.792  21.064  0.00  0.00    +0.000 C 
BRANCH  11  12
ATOM     12  C   UNL     1      -3.554  14.181  21.688  0.00  0.00    +0.000 C 
BRANCH  12  13
ATOM     13  C   UNL     1      -4.258  14.187  23.024  0.00  0.00    +0.000 C 
BRANCH  13  14
ATOM     14  N   UNL     1      -3.884  15.439  23.858  0.00  0.00    +0.000 N 
ATOM     15  C   UNL     1      -5.119  16.216  24.297  0.00  0.00    +0.000 C 
ATOM     16  C   UNL     1      -3.080  15.026  25.091  0.00  0.00    +0.000 C 
ATOM     17  C   UNL     1      -3.029  16.339  22.982  0.00  0.00    +0.000 C 
ENDBRANCH  13  14
ENDBRANCH  12  13
ENDBRANCH  11  12
ENDBRANCH   8  11
ENDBRANCH   7   8
ENDBRANCH   6   7
ENDBRANCH   3   6
ENDBRANCH   2   3
ENDBRANCH   1   2
BRANCH   1  18
ATOM     18  C   UNL     1       2.214   7.911  18.113  0.00  0.00    +0.000 C 
BRANCH  18  19
ATOM     19  C   UNL     1       2.854   6.848  18.986  0.00  0.00    +0.000 C 
BRANCH  19  20
ATOM     20  C   UNL     1       1.922   5.664  19.125  0.00  0.00    +0.000 C 
BRANCH  20  21
ATOM     21  C   UNL     1       1.700   5.307  20.584  0.00  0.00    +0.000 C 
BRANCH  21  22
ATOM     22  C   UNL     1       1.195   3.876  20.685  0.00  0.00    +0.000 C 
BRANCH  22  23
ATOM     23  C   UNL     1       2.227   2.996  21.368  0.00  0.00    +0.000 C 
BRANCH  23  24
ATOM     24  C   UNL     1       3.292   2.572  20.370  0.00  0.00    +0.000 C 
BRANCH  24  25
ATOM     25  C   UNL     1       2.642   1.946  19.147  0.00  0.00    +0.000 C 
BRANCH  25  26
ATOM     26  C   UNL     1       3.429   2.299  17.896  0.00  0.00    +0.000 C 
BRANCH  26  27
ATOM     27  C   UNL     1       4.421   3.413  18.196  0.00  0.00    +0.000 C 
BRANCH  27  28
ATOM     28  C   UNL     1       5.211   3.769  16.946  0.00  0.00    +0.000 C 
BRANCH  28  29
ATOM     29  C   UNL     1       4.593   4.978  16.256  0.00  0.00    +0.000 C 
BRANCH  29  30
ATOM     30  C   UNL     1       5.654   6.033  15.969  0.00  0.00    +0.000 C 
BRANCH  30  31
ATOM     31  C   UNL     1       5.931   6.864  17.217  0.00  0.00    +0.000 C 
BRANCH  31  33
ATOM     32  C   UNL     1       7.673   6.025  18.812  0.00  0.00    +0.000 C 
ATOM     33  C   UNL     1       7.415   6.852  17.565  0.00  0.00    +0.000 C 
ENDBRANCH  31  33
ENDBRANCH  30  31
ENDBRANCH  29  30
ENDBRANCH  28  29
ENDBRANCH  27  28
ENDBRANCH  26  27
ENDBRANCH  25  26
ENDBRANCH  24  25
ENDBRANCH  23  24
ENDBRANCH  22  23
ENDBRANCH  21  22
ENDBRANCH  20  21
ENDBRANCH  19  20
ENDBRANCH  18  19
ENDBRANCH   1  18
TORSDOF 25
ENDMDL
MODEL 5
REMARK VINA RESULT:      -4.9      6.253      7.894
REMARK  Name = 
REMARK  29 active torsions:
REMARK  status: ('A' for Active; 'I' for Inactive)
REMARK    1  A    between atoms: C_1  and  C_2
REMARK    2  A    between atoms: C_2  and  C_3
REMARK    3  A    between atoms: C_3  and  C_4
REMARK    4  A    between atoms: C_4  and  C_5
REMARK    5  A    between atoms: C_5  and  C_6
REMARK    6  A    between atoms: C_6  and  C_7
REMARK    7  A    between atoms: C_7  and  C_8
REMARK    8  A    between atoms: C_8  and  C_9
REMARK    9  A    between atoms: C_9  and  C_10
REMARK   10  A    between atoms: C_10  and  C_11
REMARK   11  A    between atoms: C_11  and  C_12
REMARK   12  A    between atoms: C_12  and  C_13
REMARK   13  A    between atoms: C_13  and  C_14
REMARK   14  A    between atoms: C_14  and  C_15
REMARK   15  A    between atoms: C_15  and  C_16
REMARK   16  A    between atoms: C_16  and  O_17
REMARK   17  A    between atoms: O_17  and  C_18
REMARK   18  A    between atoms: C_18  and  C_19
REMARK   19  A    between atoms: C_19  and  O_20
REMARK   20  A    between atoms: C_19  and  C_21
REMARK   21  A    between atoms: C_21  and  O_22
REMARK   22  A    between atoms: O_22  and  P_23
REMARK   23  A    between atoms: P_23  and  C_26
REMARK   24  A    between atoms: C_26  and  C_27
REMARK   25  A    between atoms: C_27  and  C_28
REMARK   26  A    between atoms: C_28  and  N_29
REMARK   27  A    between atoms: N_29  and  C_30
REMARK   28  A    between atoms: N_29  and  C_31
REMARK   29  A    between atoms: N_29  and  C_32
REMARK                            x       y       z     vdW  Elec       q    Type
REMARK                         _______ _______ _______ _____ _____    ______ ____
ROOT
ATOM      1  O   UNL     1       8.249   8.701  17.223  0.00  0.00    +0.000 OA
ENDROOT
BRANCH   1   2
ATOM      2  C   UNL     1       8.051   9.859  18.035  0.00  0.00    +0.000 C 
BRANCH   2   3
ATOM      3  C   UNL     1       9.408  10.375  18.543  0.00  0.00    +0.000 C 
BRANCH   3   4
ATOM      4  O   UNL     1       9.828  11.520  17.775  0.00  0.00    +0.000 OA
ATOM      5  H   UNL     1       9.375  12.306  18.132  0.00  0.00    +0.000 HD
ENDBRANCH   3   4
BRANCH   3   6
ATOM      6  C   UNL     1       9.375  10.705  20.035  0.00  0.00    +0.000 C 
BRANCH   6   7
ATOM      7  O   UNL     1       9.809  12.042  20.264  0.00  0.00    +0.000 OA
BRANCH   7   8
ATOM      8  P   UNL     1       9.180  12.673  21.747  0.00  0.00    +0.000 P 
ATOM      9  O   UNL     1       8.736  13.935  20.997  0.00  0.00    +0.000 OA
ATOM     10  O   UNL     1       8.271  11.454  21.949  0.00  0.00    +0.000 OA
BRANCH   8  11
ATOM     11  C   UNL     1       8.514  13.339  23.315  0.00  0.00    +0.000 C 
BRANCH  11  12
ATOM     12  C   UNL     1       8.487  12.282  24.415  0.00  0.00    +0.000 C 
BRANCH  12  13
ATOM     13  C   UNL     1       8.043  12.821  25.755  0.00  0.00    +0.000 C 
BRANCH  13  14
ATOM     14  N   UNL     1       6.676  12.227  26.180  0.00  0.00    +0.000 N 
ATOM     15  C   UNL     1       5.628  13.314  26.390  0.00  0.00    +0.000 C 
ATOM     16  C   UNL     1       6.179  11.243  25.121  0.00  0.00    +0.000 C 
ATOM     17  C   UNL     1       6.880  11.489  27.493  0.00  0.00    +0.000 C 
ENDBRANCH  13  14
ENDBRANCH  12  13
ENDBRANCH  11  12
ENDBRANCH   8  11
ENDBRANCH   7   8
ENDBRANCH   6   7
ENDBRANCH   3   6
ENDBRANCH   2   3
ENDBRANCH   1   2
BRANCH   1  18
ATOM     18  C   UNL     1       7.766   7.531  17.849  0.00  0.00    +0.000 C 
BRANCH  18  19
ATOM     19  C   UNL     1       6.378   7.264  17.299  0.00  0.00    +0.000 C 
BRANCH  19  20
ATOM     20  C   UNL     1       6.332   5.896  16.651  0.00  0.00    +0.000 C 
BRANCH  20  21
ATOM     21  C   UNL     1       5.694   4.872  17.572  0.00  0.00    +0.000 C 
BRANCH  21  22
ATOM     22  C   UNL     1       4.653   4.076  16.802  0.00  0.00    +0.000 C 
BRANCH  22  23
ATOM     23  C   UNL     1       4.109   2.946  17.657  0.00  0.00    +0.000 C 
BRANCH  23  24
ATOM     24  C   UNL     1       2.761   2.490  17.123  0.00  0.00    +0.000 C 
BRANCH  24  25
ATOM     25  C   UNL     1       1.649   3.333  17.725  0.00  0.00    +0.000 C 
BRANCH  25  26
ATOM     26  C   UNL     1       0.802   2.490  18.664  0.00  0.00    +0.000 C 
BRANCH  26  27
ATOM     27  C   UNL     1       1.598   2.131  19.909  0.00  0.00    +0.000 C 
BRANCH  27  28
ATOM     28  C   UNL     1       1.156   2.988  21.086  0.00  0.00    +0.000 C 
BRANCH  28  29
ATOM     29  C   UNL     1       1.119   4.457  20.685  0.00  0.00    +0.000 C 
BRANCH  29  30
ATOM     30  C   UNL     1       2.401   5.162  21.111  0.00  0.00    +0.000 C 
BRANCH  30  31
ATOM     31  C   UNL     1       3.127   5.728  19.896  0.00  0.00    +0.000 C 
BRANCH  31  33
ATOM     32  C   UNL     1       2.683   7.168  17.893  0.00  0.00    +0.000 C 
ATOM     33  C   UNL     1       2.433   6.983  19.379  0.00  0.00    +0.000 C 
ENDBRANCH  31  33
ENDBRANCH  30  31
ENDBRANCH  29  30
ENDBRANCH  28  29
ENDBRANCH  27  28
ENDBRANCH  26  27
ENDBRANCH  25  26
ENDBRANCH  24  25
ENDBRANCH  23  24
ENDBRANCH  22  23
ENDBRANCH  21  22
ENDBRANCH  20  21
ENDBRANCH  19  20
ENDBRANCH  18  19
ENDBRANCH   1  18
TORSDOF 25
ENDMDL
MODEL 6
REMARK VINA RESULT:      -4.9      2.998      4.115
REMARK  Name = 
REMARK  29 active torsions:
REMARK  status: ('A' for Active; 'I' for Inactive)
REMARK    1  A    between atoms: C_1  and  C_2
REMARK    2  A    between atoms: C_2  and  C_3
REMARK    3  A    between atoms: C_3  and  C_4
REMARK    4  A    between atoms: C_4  and  C_5
REMARK    5  A    between atoms: C_5  and  C_6
REMARK    6  A    between atoms: C_6  and  C_7
REMARK    7  A    between atoms: C_7  and  C_8
REMARK    8  A    between atoms: C_8  and  C_9
REMARK    9  A    between atoms: C_9  and  C_10
REMARK   10  A    between atoms: C_10  and  C_11
REMARK   11  A    between atoms: C_11  and  C_12
REMARK   12  A    between atoms: C_12  and  C_13
REMARK   13  A    between atoms: C_13  and  C_14
REMARK   14  A    between atoms: C_14  and  C_15
REMARK   15  A    between atoms: C_15  and  C_16
REMARK   16  A    between atoms: C_16  and  O_17
REMARK   17  A    between atoms: O_17  and  C_18
REMARK   18  A    between atoms: C_18  and  C_19
REMARK   19  A    between atoms: C_19  and  O_20
REMARK   20  A    between atoms: C_19  and  C_21
REMARK   21  A    between atoms: C_21  and  O_22
REMARK   22  A    between atoms: O_22  and  P_23
REMARK   23  A    between atoms: P_23  and  C_26
REMARK   24  A    between atoms: C_26  and  C_27
REMARK   25  A    between atoms: C_27  and  C_28
REMARK   26  A    between atoms: C_28  and  N_29
REMARK   27  A    between atoms: N_29  and  C_30
REMARK   28  A    between atoms: N_29  and  C_31
REMARK   29  A    between atoms: N_29  and  C_32
REMARK                            x       y       z     vdW  Elec       q    Type
REMARK                         _______ _______ _______ _____ _____    ______ ____
ROOT
ATOM      1  O   UNL     1      -1.006  10.745  18.402  0.00  0.00    +0.000 OA
ENDROOT
BRANCH   1   2
ATOM      2  C   UNL     1      -2.220  11.450  18.664  0.00  0.00    +0.000 C 
BRANCH   2   3
ATOM      3  C   UNL     1      -3.026  11.598  17.362  0.00  0.00    +0.000 C 
BRANCH   3   4
ATOM      4  O   UNL     1      -2.172  11.394  16.218  0.00  0.00    +0.000 OA
ATOM      5  H   UNL     1      -1.326  11.028  16.534  0.00  0.00    +0.000 HD
ENDBRANCH   3   4
BRANCH   3   6
ATOM      6  C   UNL     1      -4.226  10.652  17.318  0.00  0.00    +0.000 C 
BRANCH   6   7
ATOM      7  O   UNL     1      -5.391  11.337  16.870  0.00  0.00    +0.000 OA
BRANCH   7   8
ATOM      8  P   UNL     1      -6.453  11.716  18.182  0.00  0.00    +0.000 P 
ATOM      9  O   UNL     1      -6.137  10.352  18.806  0.00  0.00    +0.000 OA
ATOM     10  O   UNL     1      -5.675  12.994  18.520  0.00  0.00    +0.000 OA
BRANCH   8  11
ATOM     11  C   UNL     1      -7.576  12.119  19.568  0.00  0.00    +0.000 C 
BRANCH  11  12
ATOM     12  C   UNL     1      -7.082  13.322  20.367  0.00  0.00    +0.000 C 
BRANCH  12  13
ATOM     13  C   UNL     1      -6.451  12.947  21.688  0.00  0.00    +0.000 C 
BRANCH  13  14
ATOM     14  N   UNL     1      -7.019  13.798  22.851  0.00  0.00    +0.000 N 
ATOM     15  C   UNL     1      -7.887  14.943  22.342  0.00  0.00    +0.000 C 
ATOM     16  C   UNL     1      -7.842  12.919  23.792  0.00  0.00    +0.000 C 
ATOM     17  C   UNL     1      -5.842  14.383  23.614  0.00  0.00    +0.000 C 
ENDBRANCH  13  14
ENDBRANCH  12  13
ENDBRANCH  11  12
ENDBRANCH   8  11
ENDBRANCH   7   8
ENDBRANCH   6   7
ENDBRANCH   3   6
ENDBRANCH   2   3
ENDBRANCH   1   2
BRANCH   1  18
ATOM     18  C   UNL     1       0.070  11.248  19.167  0.00  0.00    +0.000 C 
BRANCH  18  19
ATOM     19  C   UNL     1       1.139  10.173  19.204  0.00  0.00    +0.000 C 
BRANCH  19  20
ATOM     20  C   UNL     1       1.472   9.726  17.797  0.00  0.00    +0.000 C 
BRANCH  20  21
ATOM     21  C   UNL     1       2.504   8.612  17.803  0.00  0.00    +0.000 C 
BRANCH  21  22
ATOM     22  C   UNL     1       1.868   7.335  18.327  0.00  0.00    +0.000 C 
BRANCH  22  23
ATOM     23  C   UNL     1       2.234   7.118  19.784  0.00  0.00    +0.000 C 
BRANCH  23  24
ATOM     24  C   UNL     1       2.828   5.732  19.972  0.00  0.00    +0.000 C 
BRANCH  24  25
ATOM     25  C   UNL     1       2.007   4.945  20.980  0.00  0.00    +0.000 C 
BRANCH  25  26
ATOM     26  C   UNL     1       1.014   4.046  20.262  0.00  0.00    +0.000 C 
BRANCH  26  27
ATOM     27  C   UNL     1       1.715   2.802  19.739  0.00  0.00    +0.000 C 
BRANCH  27  28
ATOM     28  C   UNL     1       1.461   2.640  18.248  0.00  0.00    +0.000 C 
BRANCH  28  29
ATOM     29  C   UNL     1       2.546   3.347  17.446  0.00  0.00    +0.000 C 
BRANCH  29  30
ATOM     30  C   UNL     1       3.926   3.014  17.999  0.00  0.00    +0.000 C 
BRANCH  30  31
ATOM     31  C   UNL     1       4.918   4.122  17.659  0.00  0.00    +0.000 C 
BRANCH  31  33
ATOM     32  C   UNL     1       5.201   5.989  16.012  0.00  0.00    +0.000 C 
ATOM     33  C   UNL     1       4.793   4.539  16.198  0.00  0.00    +0.000 C 
ENDBRANCH  31  33
ENDBRANCH  30  31
ENDBRANCH  29  30
ENDBRANCH  28  29
ENDBRANCH  27  28
ENDBRANCH  26  27
ENDBRANCH  25  26
ENDBRANCH  24  25
ENDBRANCH  23  24
ENDBRANCH  22  23
ENDBRANCH  21  22
ENDBRANCH  20  21
ENDBRANCH  19  20
ENDBRANCH  18  19
ENDBRANCH   1  18
TORSDOF 25
ENDMDL
MODEL 7
REMARK VINA RESULT:      -4.8      2.235      3.179
REMARK  Name = 
REMARK  29 active torsions:
REMARK  status: ('A' for Active; 'I' for Inactive)
REMARK    1  A    between atoms: C_1  and  C_2
REMARK    2  A    between atoms: C_2  and  C_3
REMARK    3  A    between atoms: C_3  and  C_4
REMARK    4  A    between atoms: C_4  and  C_5
REMARK    5  A    between atoms: C_5  and  C_6
REMARK    6  A    between atoms: C_6  and  C_7
REMARK    7  A    between atoms: C_7  and  C_8
REMARK    8  A    between atoms: C_8  and  C_9
REMARK    9  A    between atoms: C_9  and  C_10
REMARK   10  A    between atoms: C_10  and  C_11
REMARK   11  A    between atoms: C_11  and  C_12
REMARK   12  A    between atoms: C_12  and  C_13
REMARK   13  A    between atoms: C_13  and  C_14
REMARK   14  A    between atoms: C_14  and  C_15
REMARK   15  A    between atoms: C_15  and  C_16
REMARK   16  A    between atoms: C_16  and  O_17
REMARK   17  A    between atoms: O_17  and  C_18
REMARK   18  A    between atoms: C_18  and  C_19
REMARK   19  A    between atoms: C_19  and  O_20
REMARK   20  A    between atoms: C_19  and  C_21
REMARK   21  A    between atoms: C_21  and  O_22
REMARK   22  A    between atoms: O_22  and  P_23
REMARK   23  A    between atoms: P_23  and  C_26
REMARK   24  A    between atoms: C_26  and  C_27
REMARK   25  A    between atoms: C_27  and  C_28
REMARK   26  A    between atoms: C_28  and  N_29
REMARK   27  A    between atoms: N_29  and  C_30
REMARK   28  A    between atoms: N_29  and  C_31
REMARK   29  A    between atoms: N_29  and  C_32
REMARK                            x       y       z     vdW  Elec       q    Type
REMARK                         _______ _______ _______ _____ _____    ______ ____
ROOT
ATOM      1  O   UNL     1       1.173   7.858  20.511  0.00  0.00    +0.000 OA
ENDROOT
BRANCH   1   2
ATOM      2  C   UNL     1       1.358   9.020  21.319  0.00  0.00    +0.000 C 
BRANCH   2   3
ATOM      3  C   UNL     1       0.846  10.261  20.569  0.00  0.00    +0.000 C 
BRANCH   3   4
ATOM      4  O   UNL     1       1.402  10.309  19.240  0.00  0.00    +0.000 OA
ATOM      5  H   UNL     1       1.193  11.180  18.856  0.00  0.00    +0.000 HD
ENDBRANCH   3   4
BRANCH   3   6
ATOM      6  C   UNL     1      -0.681  10.314  20.521  0.00  0.00    +0.000 C 
BRANCH   6   7
ATOM      7  O   UNL     1      -1.121  11.262  19.554  0.00  0.00    +0.000 OA
BRANCH   7   8
ATOM      8  P   UNL     1      -1.971  12.577  20.289  0.00  0.00    +0.000 P 
ATOM      9  O   UNL     1      -3.191  12.248  19.420  0.00  0.00    +0.000 OA
ATOM     10  O   UNL     1      -1.764  12.002  21.696  0.00  0.00    +0.000 OA
BRANCH   8  11
ATOM     11  C   UNL     1      -2.870  13.967  21.068  0.00  0.00    +0.000 C 
BRANCH  11  12
ATOM     12  C   UNL     1      -2.205  15.309  20.773  0.00  0.00    +0.000 C 
BRANCH  12  13
ATOM     13  C   UNL     1      -0.876  15.177  20.065  0.00  0.00    +0.000 C 
BRANCH  13  14
ATOM     14  N   UNL     1      -0.277  16.564  19.721  0.00  0.00    +0.000 N 
ATOM     15  C   UNL     1       1.241  16.576  19.863  0.00  0.00    +0.000 C 
ATOM     16  C   UNL     1      -0.654  16.958  18.292  0.00  0.00    +0.000 C 
ATOM     17  C   UNL     1      -0.863  17.576  20.690  0.00  0.00    +0.000 C 
ENDBRANCH  13  14
ENDBRANCH  12  13
ENDBRANCH  11  12
ENDBRANCH   8  11
ENDBRANCH   7   8
ENDBRANCH   6   7
ENDBRANCH   3   6
ENDBRANCH   2   3
ENDBRANCH   1   2
BRANCH   1  18
ATOM     18  C   UNL     1       2.358   7.491  19.836  0.00  0.00    +0.000 C 
BRANCH  18  19
ATOM     19  C   UNL     1       2.224   6.031  19.448  0.00  0.00    +0.000 C 
BRANCH  19  20
ATOM     20  C   UNL     1       1.961   5.190  20.679  0.00  0.00    +0.000 C 
BRANCH  20  21
ATOM     21  C   UNL     1       0.931   4.112  20.399  0.00  0.00    +0.000 C 
BRANCH  21  22
ATOM     22  C   UNL     1       1.577   2.743  20.541  0.00  0.00    +0.000 C 
BRANCH  22  23
ATOM     23  C   UNL     1       1.969   2.196  19.180  0.00  0.00    +0.000 C 
BRANCH  23  24
ATOM     24  C   UNL     1       3.481   2.087  19.078  0.00  0.00    +0.000 C 
BRANCH  24  25
ATOM     25  C   UNL     1       3.924   2.297  17.640  0.00  0.00    +0.000 C 
BRANCH  25  26
ATOM     26  C   UNL     1       3.330   3.584  17.091  0.00  0.00    +0.000 C 
BRANCH  26  27
ATOM     27  C   UNL     1       4.408   4.650  16.972  0.00  0.00    +0.000 C 
BRANCH  27  28
ATOM     28  C   UNL     1       5.508   4.189  16.029  0.00  0.00    +0.000 C 
BRANCH  28  29
ATOM     29  C   UNL     1       6.877   4.509  16.616  0.00  0.00    +0.000 C 
BRANCH  29  30
ATOM     30  C   UNL     1       6.768   4.795  18.108  0.00  0.00    +0.000 C 
BRANCH  30  31
ATOM     31  C   UNL     1       7.563   6.045  18.471  0.00  0.00    +0.000 C 
BRANCH  31  33
ATOM     32  C   UNL     1       8.036   8.421  17.832  0.00  0.00    +0.000 C 
ATOM     33  C   UNL     1       7.471   7.091  17.367  0.00  0.00    +0.000 C 
ENDBRANCH  31  33
ENDBRANCH  30  31
ENDBRANCH  29  30
ENDBRANCH  28  29
ENDBRANCH  27  28
ENDBRANCH  26  27
ENDBRANCH  25  26
ENDBRANCH  24  25
ENDBRANCH  23  24
ENDBRANCH  22  23
ENDBRANCH  21  22
ENDBRANCH  20  21
ENDBRANCH  19  20
ENDBRANCH  18  19
ENDBRANCH   1  18
TORSDOF 25
ENDMDL
MODEL 8
REMARK VINA RESULT:      -4.8      6.173     11.363
REMARK  Name = 
REMARK  29 active torsions:
REMARK  status: ('A' for Active; 'I' for Inactive)
REMARK    1  A    between atoms: C_1  and  C_2
REMARK    2  A    between atoms: C_2  and  C_3
REMARK    3  A    between atoms: C_3  and  C_4
REMARK    4  A    between atoms: C_4  and  C_5
REMARK    5  A    between atoms: C_5  and  C_6
REMARK    6  A    between atoms: C_6  and  C_7
REMARK    7  A    between atoms: C_7  and  C_8
REMARK    8  A    between atoms: C_8  and  C_9
REMARK    9  A    between atoms: C_9  and  C_10
REMARK   10  A    between atoms: C_10  and  C_11
REMARK   11  A    between atoms: C_11  and  C_12
REMARK   12  A    between atoms: C_12  and  C_13
REMARK   13  A    between atoms: C_13  and  C_14
REMARK   14  A    between atoms: C_14  and  C_15
REMARK   15  A    between atoms: C_15  and  C_16
REMARK   16  A    between atoms: C_16  and  O_17
REMARK   17  A    between atoms: O_17  and  C_18
REMARK   18  A    between atoms: C_18  and  C_19
REMARK   19  A    between atoms: C_19  and  O_20
REMARK   20  A    between atoms: C_19  and  C_21
REMARK   21  A    between atoms: C_21  and  O_22
REMARK   22  A    between atoms: O_22  and  P_23
REMARK   23  A    between atoms: P_23  and  C_26
REMARK   24  A    between atoms: C_26  and  C_27
REMARK   25  A    between atoms: C_27  and  C_28
REMARK   26  A    between atoms: C_28  and  N_29
REMARK   27  A    between atoms: N_29  and  C_30
REMARK   28  A    between atoms: N_29  and  C_31
REMARK   29  A    between atoms: N_29  and  C_32
REMARK                            x       y       z     vdW  Elec       q    Type
REMARK                         _______ _______ _______ _____ _____    ______ ____
ROOT
ATOM      1  O   UNL     1       7.785   8.736  17.421  0.00  0.00    +0.000 OA
ENDROOT
BRANCH   1   2
ATOM      2  C   UNL     1       7.467   7.350  17.546  0.00  0.00    +0.000 C 
BRANCH   2   3
ATOM      3  C   UNL     1       6.360   6.979  16.545  0.00  0.00    +0.000 C 
BRANCH   3   4
ATOM      4  O   UNL     1       6.724   5.793  15.811  0.00  0.00    +0.000 OA
ATOM      5  H   UNL     1       7.480   5.377  16.265  0.00  0.00    +0.000 HD
ENDBRANCH   3   4
BRANCH   3   6
ATOM      6  C   UNL     1       5.004   6.799  17.228  0.00  0.00    +0.000 C 
BRANCH   6   7
ATOM      7  O   UNL     1       5.148   6.086  18.452  0.00  0.00    +0.000 OA
BRANCH   7   8
ATOM      8  P   UNL     1       4.815   4.400  18.253  0.00  0.00    +0.000 P 
ATOM      9  O   UNL     1       4.020   4.728  16.984  0.00  0.00    +0.000 OA
ATOM     10  O   UNL     1       6.308   4.047  18.240  0.00  0.00    +0.000 OA
BRANCH   8  11
ATOM     11  C   UNL     1       4.465   2.617  18.044  0.00  0.00    +0.000 C 
BRANCH  11  12
ATOM     12  C   UNL     1       3.226   2.187  18.825  0.00  0.00    +0.000 C 
BRANCH  12  13
ATOM     13  C   UNL     1       3.202   2.706  20.244  0.00  0.00    +0.000 C 
BRANCH  13  14
ATOM     14  N   UNL     1       1.800   3.245  20.627  0.00  0.00    +0.000 N 
ATOM     15  C   UNL     1       0.779   3.001  19.522  0.00  0.00    +0.000 C 
ATOM     16  C   UNL     1       1.317   2.582  21.917  0.00  0.00    +0.000 C 
ATOM     17  C   UNL     1       1.926   4.742  20.851  0.00  0.00    +0.000 C 
ENDBRANCH  13  14
ENDBRANCH  12  13
ENDBRANCH  11  12
ENDBRANCH   8  11
ENDBRANCH   7   8
ENDBRANCH   6   7
ENDBRANCH   3   6
ENDBRANCH   2   3
ENDBRANCH   1   2
BRANCH   1  18
ATOM     18  C   UNL     1       8.560   9.198  18.508  0.00  0.00    +0.000 C 
BRANCH  18  19
ATOM     19  C   UNL     1       8.913  10.647  18.228  0.00  0.00    +0.000 C 
BRANCH  19  20
ATOM     20  C   UNL     1      10.137  11.044  19.025  0.00  0.00    +0.000 C 
BRANCH  20  21
ATOM     21  C   UNL     1      11.181  11.699  18.139  0.00  0.00    +0.000 C 
BRANCH  21  22
ATOM     22  C   UNL     1      10.522  12.768  17.283  0.00  0.00    +0.000 C 
BRANCH  22  23
ATOM     23  C   UNL     1      11.407  13.998  17.192  0.00  0.00    +0.000 C 
BRANCH  23  24
ATOM     24  C   UNL     1      10.723  15.183  17.853  0.00  0.00    +0.000 C 
BRANCH  24  25
ATOM     25  C   UNL     1      10.743  15.021  19.364  0.00  0.00    +0.000 C 
BRANCH  25  26
ATOM     26  C   UNL     1       9.326  15.016  19.911  0.00  0.00    +0.000 C 
BRANCH  26  27
ATOM     27  C   UNL     1       8.347  15.459  18.835  0.00  0.00    +0.000 C 
BRANCH  27  28
ATOM     28  C   UNL     1       7.205  14.461  18.713  0.00  0.00    +0.000 C 
BRANCH  28  29
ATOM     29  C   UNL     1       5.869  15.155  18.941  0.00  0.00    +0.000 C 
BRANCH  29  30
ATOM     30  C   UNL     1       5.022  15.117  17.675  0.00  0.00    +0.000 C 
BRANCH  30  31
ATOM     31  C   UNL     1       3.539  15.065  18.027  0.00  0.00    +0.000 C 
BRANCH  31  33
ATOM     32  C   UNL     1       1.823  13.849  19.390  0.00  0.00    +0.000 C 
ATOM     33  C   UNL     1       3.191  13.762  18.738  0.00  0.00    +0.000 C 
ENDBRANCH  31  33
ENDBRANCH  30  31
ENDBRANCH  29  30
ENDBRANCH  28  29
ENDBRANCH  27  28
ENDBRANCH  26  27
ENDBRANCH  25  26
ENDBRANCH  24  25
ENDBRANCH  23  24
ENDBRANCH  22  23
ENDBRANCH  21  22
ENDBRANCH  20  21
ENDBRANCH  19  20
ENDBRANCH  18  19
ENDBRANCH   1  18
TORSDOF 25
ENDMDL
MODEL 9
REMARK VINA RESULT:      -4.8      2.880      4.430
REMARK  Name = 
REMARK  29 active torsions:
REMARK  status: ('A' for Active; 'I' for Inactive)
REMARK    1  A    between atoms: C_1  and  C_2
REMARK    2  A    between atoms: C_2  and  C_3
REMARK    3  A    between atoms: C_3  and  C_4
REMARK    4  A    between atoms: C_4  and  C_5
REMARK    5  A    between atoms: C_5  and  C_6
REMARK    6  A    between atoms: C_6  and  C_7
REMARK    7  A    between atoms: C_7  and  C_8
REMARK    8  A    between atoms: C_8  and  C_9
REMARK    9  A    between atoms: C_9  and  C_10
REMARK   10  A    between atoms: C_10  and  C_11
REMARK   11  A    between atoms: C_11  and  C_12
REMARK   12  A    between atoms: C_12  and  C_13
REMARK   13  A    between atoms: C_13  and  C_14
REMARK   14  A    between atoms: C_14  and  C_15
REMARK   15  A    between atoms: C_15  and  C_16
REMARK   16  A    between atoms: C_16  and  O_17
REMARK   17  A    between atoms: O_17  and  C_18
REMARK   18  A    between atoms: C_18  and  C_19
REMARK   19  A    between atoms: C_19  and  O_20
REMARK   20  A    between atoms: C_19  and  C_21
REMARK   21  A    between atoms: C_21  and  O_22
REMARK   22  A    between atoms: O_22  and  P_23
REMARK   23  A    between atoms: P_23  and  C_26
REMARK   24  A    between atoms: C_26  and  C_27
REMARK   25  A    between atoms: C_27  and  C_28
REMARK   26  A    between atoms: C_28  and  N_29
REMARK   27  A    between atoms: N_29  and  C_30
REMARK   28  A    between atoms: N_29  and  C_31
REMARK   29  A    between atoms: N_29  and  C_32
REMARK                            x       y       z     vdW  Elec       q    Type
REMARK                         _______ _______ _______ _____ _____    ______ ____
ROOT
ATOM      1  O   UNL     1       1.277   8.592  20.327  0.00  0.00    +0.000 OA
ENDROOT
BRANCH   1   2
ATOM      2  C   UNL     1       0.888   9.964  20.274  0.00  0.00    +0.000 C 
BRANCH   2   3
ATOM      3  C   UNL     1       0.024  10.307  21.499  0.00  0.00    +0.000 C 
BRANCH   3   4
ATOM      4  O   UNL     1       0.686   9.893  22.711  0.00  0.00    +0.000 OA
ATOM      5  H   UNL     1       1.075  10.683  23.128  0.00  0.00    +0.000 HD
ENDBRANCH   3   4
BRANCH   3   6
ATOM      6  C   UNL     1      -0.330  11.793  21.556  0.00  0.00    +0.000 C 
BRANCH   6   7
ATOM      7  O   UNL     1      -1.168  12.153  20.462  0.00  0.00    +0.000 OA
BRANCH   7   8
ATOM      8  P   UNL     1      -0.664  13.638  19.733  0.00  0.00    +0.000 P 
ATOM      9  O   UNL     1      -0.783  12.978  18.354  0.00  0.00    +0.000 OA
ATOM     10  O   UNL     1      -1.809  14.419  20.391  0.00  0.00    +0.000 OA
BRANCH   8  11
ATOM     11  C   UNL     1      -0.133  15.210  18.962  0.00  0.00    +0.000 C 
BRANCH  11  12
ATOM     12  C   UNL     1       1.371  15.234  18.701  0.00  0.00    +0.000 C 
BRANCH  12  13
ATOM     13  C   UNL     1       2.199  14.994  19.942  0.00  0.00    +0.000 C 
BRANCH  13  14
ATOM     14  N   UNL     1       3.436  15.927  19.988  0.00  0.00    +0.000 N 
ATOM     15  C   UNL     1       3.195  17.143  20.875  0.00  0.00    +0.000 C 
ATOM     16  C   UNL     1       4.654  15.159  20.502  0.00  0.00    +0.000 C 
ATOM     17  C   UNL     1       3.708  16.406  18.571  0.00  0.00    +0.000 C 
ENDBRANCH  13  14
ENDBRANCH  12  13
ENDBRANCH  11  12
ENDBRANCH   8  11
ENDBRANCH   7   8
ENDBRANCH   6   7
ENDBRANCH   3   6
ENDBRANCH   2   3
ENDBRANCH   1   2
BRANCH   1  18
ATOM     18  C   UNL     1       2.017   8.210  19.186  0.00  0.00    +0.000 C 
BRANCH  18  19
ATOM     19  C   UNL     1       2.129   6.697  19.205  0.00  0.00    +0.000 C 
BRANCH  19  20
ATOM     20  C   UNL     1       1.901   6.180  20.609  0.00  0.00    +0.000 C 
BRANCH  20  21
ATOM     21  C   UNL     1       2.353   4.737  20.744  0.00  0.00    +0.000 C 
BRANCH  21  22
ATOM     22  C   UNL     1       1.136   3.828  20.813  0.00  0.00    +0.000 C 
BRANCH  22  23
ATOM     23  C   UNL     1       1.140   2.846  19.656  0.00  0.00    +0.000 C 
BRANCH  23  24
ATOM     24  C   UNL     1       2.533   2.752  19.055  0.00  0.00    +0.000 C 
BRANCH  24  25
ATOM     25  C   UNL     1       2.448   2.756  17.538  0.00  0.00    +0.000 C 
BRANCH  25  26
ATOM     26  C   UNL     1       3.528   3.652  16.954  0.00  0.00    +0.000 C 
BRANCH  26  27
ATOM     27  C   UNL     1       4.583   3.956  18.007  0.00  0.00    +0.000 C 
BRANCH  27  28
ATOM     28  C   UNL     1       4.982   5.423  17.947  0.00  0.00    +0.000 C 
BRANCH  28  29
ATOM     29  C   UNL     1       5.318   5.822  16.516  0.00  0.00    +0.000 C 
BRANCH  29  30
ATOM     30  C   UNL     1       6.810   5.662  16.250  0.00  0.00    +0.000 C 
BRANCH  30  31
ATOM     31  C   UNL     1       7.111   4.263  15.723  0.00  0.00    +0.000 C 
BRANCH  31  33
ATOM     32  C   UNL     1       6.658   4.340  13.260  0.00  0.00    +0.000 C 
ATOM     33  C   UNL     1       6.143   3.878  14.611  0.00  0.00    +0.000 C 
ENDBRANCH  31  33
ENDBRANCH  30  31
ENDBRANCH  29  30
ENDBRANCH  28  29
ENDBRANCH  27  28
ENDBRANCH  26  27
ENDBRANCH  25  26
ENDBRANCH  24  25
ENDBRANCH  23  24
ENDBRANCH  22  23
ENDBRANCH  21  22
ENDBRANCH  20  21
ENDBRANCH  19  20
ENDBRANCH  18  19
ENDBRANCH   1  18
TORSDOF 25
ENDMDL
