MODEL 1
REMARK VINA RESULT:      -7.3      0.000      0.000
REMARK  Name = 
REMARK  8 active torsions:
REMARK  status: ('A' for Active; 'I' for Inactive)
REMARK    1  A    between atoms: C_1  and  O_2
REMARK    2  A    between atoms: O_2  and  C_3
REMARK    3  A    between atoms: C_3  and  C_5
REMARK    4  A    between atoms: N_9  and  C_10
REMARK    5  A    between atoms: C_13  and  S_14
REMARK    6  A    between atoms: S_14  and  N_15
REMARK    7  A    between atoms: C_20  and  C_21
REMARK    8  A    between atoms: C_24  and  C_25
REMARK                            x       y       z     vdW  Elec       q    Type
REMARK                         _______ _______ _______ _____ _____    ______ ____
ROOT
ATOM      1  C   UNL     1      -0.676  12.383  21.078  0.00  0.00    +0.000 C 
ATOM      2  C   UNL     1      -1.649  12.144  19.933  0.00  0.00    +0.000 C 
ATOM      3  C   UNL     1      -1.184  10.844  19.326  0.00  0.00    +0.000 C 
ATOM      4  O   UNL     1      -1.880  10.207  18.550  0.00  0.00    +0.000 OA
ATOM      5  N   UNL     1       0.116  10.580  19.776  0.00  0.00    +0.000 N 
ATOM      6  C   UNL     1       0.594  11.650  20.643  0.00  0.00    +0.000 C 
ENDROOT
BRANCH   6   7
ATOM      7  C   UNL     1       1.586  12.582  19.945  0.00  0.00    +0.000 A 
ATOM      8  C   UNL     1       1.704  12.650  18.547  0.00  0.00    +0.000 A 
ATOM      9  C   UNL     1       2.656  13.478  17.945  0.00  0.00    +0.000 A 
ATOM     10  C   UNL     1       3.509  14.262  18.725  0.00  0.00    +0.000 A 
ATOM     11  C   UNL     1       4.536  15.150  18.086  0.00  0.00    +0.000 C 
ATOM     12  C   UNL     1       3.392  14.210  20.118  0.00  0.00    +0.000 A 
ATOM     13  C   UNL     1       2.439  13.382  20.721  0.00  0.00    +0.000 A 
ENDBRANCH   6   7
BRANCH   5  14
ATOM     14  C   UNL     1       0.944   9.489  19.374  0.00  0.00    +0.000 A 
ATOM     15  C   UNL     1       1.431   9.379  18.065  0.00  0.00    +0.000 A 
ATOM     16  C   UNL     1       2.284   8.336  17.688  0.00  0.00    +0.000 A 
ATOM     17  C   UNL     1       2.662   7.380  18.628  0.00  0.00    +0.000 A 
ATOM     18  C   UNL     1       2.171   7.442  19.927  0.00  0.00    +0.000 A 
ATOM     19  C   UNL     1       1.325   8.493  20.295  0.00  0.00    +0.000 A 
BRANCH  17  20
ATOM     20  S   UNL     1       3.777   6.091  18.170  0.00  0.00    +0.000 S 
ATOM     21  O   UNL     1       3.041   5.022  17.540  0.00  0.00    +0.000 OA
ATOM     22  O   UNL     1       4.965   6.669  17.585  0.00  0.00    +0.000 OA
BRANCH  20  23
ATOM     23  N   UNL     1       4.237   5.512  19.677  0.00  0.00    +0.000 NA
ATOM     24  H   UNL     1       5.108   4.989  19.601  0.00  0.00    +0.000 HD
ATOM     25  H   UNL     1       4.259   6.275  20.355  0.00  0.00    +0.000 HD
ENDBRANCH  20  23
ENDBRANCH  17  20
ENDBRANCH   5  14
BRANCH   1  26
ATOM     26  C   UNL     1      -1.222  11.810  22.373  0.00  0.00    +0.000 C 
ATOM     27  O   UNL     1      -2.373  11.927  22.767  0.00  0.00    +0.000 OA
BRANCH  26  29
ATOM     28  C   UNL     1      -0.602   9.723  23.246  0.00  0.00    +0.000 C 
ATOM     29  O   UNL     1      -0.257  11.091  23.014  0.00  0.00    +0.000 OA
ENDBRANCH  26  29
ENDBRANCH   1  26
TORSDOF 6
ENDMDL
MODEL 2
REMARK VINA RESULT:      -7.2      0.720      1.216
REMARK  Name = 
REMARK  8 active torsions:
REMARK  status: ('A' for Active; 'I' for Inactive)
REMARK    1  A    between atoms: C_1  and  O_2
REMARK    2  A    between atoms: O_2  and  C_3
REMARK    3  A    between atoms: C_3  and  C_5
REMARK    4  A    between atoms: N_9  and  C_10
REMARK    5  A    between atoms: C_13  and  S_14
REMARK    6  A    between atoms: S_14  and  N_15
REMARK    7  A    between atoms: C_20  and  C_21
REMARK    8  A    between atoms: C_24  and  C_25
REMARK                            x       y       z     vdW  Elec       q    Type
REMARK                         _______ _______ _______ _____ _____    ______ ____
ROOT
ATOM      1  C   UNL     1      -0.770  12.503  21.009  0.00  0.00    +0.000 C 
ATOM      2  C   UNL     1      -1.705  12.211  19.846  0.00  0.00    +0.000 C 
ATOM      3  C   UNL     1      -1.199  10.903  19.291  0.00  0.00    +0.000 C 
ATOM      4  O   UNL     1      -1.860  10.231  18.515  0.00  0.00    +0.000 OA
ATOM      5  N   UNL     1       0.093  10.679  19.784  0.00  0.00    +0.000 N 
ATOM      6  C   UNL     1       0.526  11.783  20.632  0.00  0.00    +0.000 C 
ENDROOT
BRANCH   6   7
ATOM      7  C   UNL     1       1.519  12.714  19.933  0.00  0.00    +0.000 A 
ATOM      8  C   UNL     1       1.554  12.873  18.538  0.00  0.00    +0.000 A 
ATOM      9  C   UNL     1       2.509  13.695  17.932  0.00  0.00    +0.000 A 
ATOM     10  C   UNL     1       3.447  14.382  18.704  0.00  0.00    +0.000 A 
ATOM     11  C   UNL     1       4.477  15.262  18.061  0.00  0.00    +0.000 C 
ATOM     12  C   UNL     1       3.413  14.239  20.095  0.00  0.00    +0.000 A 
ATOM     13  C   UNL     1       2.459  13.417  20.703  0.00  0.00    +0.000 A 
ENDBRANCH   6   7
BRANCH   5  14
ATOM     14  C   UNL     1       0.953   9.593  19.438  0.00  0.00    +0.000 A 
ATOM     15  C   UNL     1       1.299   8.604  20.369  0.00  0.00    +0.000 A 
ATOM     16  C   UNL     1       2.100   7.514  20.013  0.00  0.00    +0.000 A 
ATOM     17  C   UNL     1       2.569   7.401  18.706  0.00  0.00    +0.000 A 
ATOM     18  C   UNL     1       2.272   8.381  17.767  0.00  0.00    +0.000 A 
ATOM     19  C   UNL     1       1.465   9.463  18.132  0.00  0.00    +0.000 A 
BRANCH  17  20
ATOM     20  S   UNL     1       3.538   6.002  18.239  0.00  0.00    +0.000 S 
ATOM     21  O   UNL     1       4.245   6.295  17.016  0.00  0.00    +0.000 OA
ATOM     22  O   UNL     1       4.196   5.461  19.407  0.00  0.00    +0.000 OA
BRANCH  20  23
ATOM     23  N   UNL     1       2.340   4.901  17.830  0.00  0.00    +0.000 NA
ATOM     24  H   UNL     1       2.419   4.065  18.406  0.00  0.00    +0.000 HD
ATOM     25  H   UNL     1       1.424   5.351  17.860  0.00  0.00    +0.000 HD
ENDBRANCH  20  23
ENDBRANCH  17  20
ENDBRANCH   5  14
BRANCH   1  26
ATOM     26  C   UNL     1      -1.341  11.958  22.305  0.00  0.00    +0.000 C 
ATOM     27  O   UNL     1      -2.500  12.080  22.672  0.00  0.00    +0.000 OA
BRANCH  26  29
ATOM     28  C   UNL     1      -0.750   9.904  23.271  0.00  0.00    +0.000 C 
ATOM     29  O   UNL     1      -0.388  11.256  22.982  0.00  0.00    +0.000 OA
ENDBRANCH  26  29
ENDBRANCH   1  26
TORSDOF 6
ENDMDL
MODEL 3
REMARK VINA RESULT:      -7.2      0.702      1.594
REMARK  Name = 
REMARK  8 active torsions:
REMARK  status: ('A' for Active; 'I' for Inactive)
REMARK    1  A    between atoms: C_1  and  O_2
REMARK    2  A    between atoms: O_2  and  C_3
REMARK    3  A    between atoms: C_3  and  C_5
REMARK    4  A    between atoms: N_9  and  C_10
REMARK    5  A    between atoms: C_13  and  S_14
REMARK    6  A    between atoms: S_14  and  N_15
REMARK    7  A    between atoms: C_20  and  C_21
REMARK    8  A    between atoms: C_24  and  C_25
REMARK                            x       y       z     vdW  Elec       q    Type
REMARK                         _______ _______ _______ _____ _____    ______ ____
ROOT
ATOM      1  C   UNL     1      -0.724  12.417  21.008  0.00  0.00    +0.000 C 
ATOM      2  C   UNL     1      -1.646  12.139  19.830  0.00  0.00    +0.000 C 
ATOM      3  C   UNL     1      -1.147  10.827  19.279  0.00  0.00    +0.000 C 
ATOM      4  O   UNL     1      -1.806  10.164  18.492  0.00  0.00    +0.000 OA
ATOM      5  N   UNL     1       0.134  10.585  19.792  0.00  0.00    +0.000 N 
ATOM      6  C   UNL     1       0.568  11.682  20.648  0.00  0.00    +0.000 C 
ENDROOT
BRANCH   6   7
ATOM      7  C   UNL     1       1.583  12.601  19.967  0.00  0.00    +0.000 A 
ATOM      8  C   UNL     1       2.480  13.406  20.690  0.00  0.00    +0.000 A 
ATOM      9  C   UNL     1       3.360  14.270  20.033  0.00  0.00    +0.000 A 
ATOM     10  C   UNL     1       3.372  14.347  18.640  0.00  0.00    +0.000 A 
ATOM     11  C   UNL     1       4.311  15.276  17.928  0.00  0.00    +0.000 C 
ATOM     12  C   UNL     1       2.491  13.542  17.910  0.00  0.00    +0.000 A 
ATOM     13  C   UNL     1       1.609  12.676  18.565  0.00  0.00    +0.000 A 
ENDBRANCH   6   7
BRANCH   5  14
ATOM     14  C   UNL     1       0.985   9.489  19.456  0.00  0.00    +0.000 A 
ATOM     15  C   UNL     1       1.326   8.508  20.397  0.00  0.00    +0.000 A 
ATOM     16  C   UNL     1       2.119   7.409  20.051  0.00  0.00    +0.000 A 
ATOM     17  C   UNL     1       2.584   7.277  18.745  0.00  0.00    +0.000 A 
ATOM     18  C   UNL     1       2.291   8.249  17.795  0.00  0.00    +0.000 A 
ATOM     19  C   UNL     1       1.493   9.341  18.150  0.00  0.00    +0.000 A 
BRANCH  17  20
ATOM     20  S   UNL     1       3.542   5.866  18.292  0.00  0.00    +0.000 S 
ATOM     21  O   UNL     1       4.430   5.522  19.375  0.00  0.00    +0.000 OA
ATOM     22  O   UNL     1       2.690   4.894  17.645  0.00  0.00    +0.000 OA
BRANCH  20  23
ATOM     23  N   UNL     1       4.513   6.509  17.083  0.00  0.00    +0.000 NA
ATOM     24  H   UNL     1       4.214   6.165  16.172  0.00  0.00    +0.000 HD
ATOM     25  H   UNL     1       4.544   7.527  17.162  0.00  0.00    +0.000 HD
ENDBRANCH  20  23
ENDBRANCH  17  20
ENDBRANCH   5  14
BRANCH   1  26
ATOM     26  C   UNL     1      -1.322  11.877  22.294  0.00  0.00    +0.000 C 
ATOM     27  O   UNL     1      -2.498  11.958  22.615  0.00  0.00    +0.000 OA
BRANCH  26  29
ATOM     28  C   UNL     1      -0.651   9.849  23.265  0.00  0.00    +0.000 C 
ATOM     29  O   UNL     1      -0.367  11.229  23.021  0.00  0.00    +0.000 OA
ENDBRANCH  26  29
ENDBRANCH   1  26
TORSDOF 6
ENDMDL
MODEL 4
REMARK VINA RESULT:      -7.1      0.667      1.191
REMARK  Name = 
REMARK  8 active torsions:
REMARK  status: ('A' for Active; 'I' for Inactive)
REMARK    1  A    between atoms: C_1  and  O_2
REMARK    2  A    between atoms: O_2  and  C_3
REMARK    3  A    between atoms: C_3  and  C_5
REMARK    4  A    between atoms: N_9  and  C_10
REMARK    5  A    between atoms: C_13  and  S_14
REMARK    6  A    between atoms: S_14  and  N_15
REMARK    7  A    between atoms: C_20  and  C_21
REMARK    8  A    between atoms: C_24  and  C_25
REMARK                            x       y       z     vdW  Elec       q    Type
REMARK                         _______ _______ _______ _____ _____    ______ ____
ROOT
ATOM      1  C   UNL     1      -0.587  12.355  21.184  0.00  0.00    +0.000 C 
ATOM      2  C   UNL     1      -1.576  12.147  20.047  0.00  0.00    +0.000 C 
ATOM      3  C   UNL     1      -1.131  10.854  19.410  0.00  0.00    +0.000 C 
ATOM      4  O   UNL     1      -1.843  10.239  18.632  0.00  0.00    +0.000 OA
ATOM      5  N   UNL     1       0.172  10.570  19.839  0.00  0.00    +0.000 N 
ATOM      6  C   UNL     1       0.670  11.619  20.720  0.00  0.00    +0.000 C 
ENDROOT
BRANCH   6   7
ATOM      7  C   UNL     1       1.663  12.555  20.026  0.00  0.00    +0.000 A 
ATOM      8  C   UNL     1       2.549  13.380  20.738  0.00  0.00    +0.000 A 
ATOM      9  C   UNL     1       3.407  14.258  20.070  0.00  0.00    +0.000 A 
ATOM     10  C   UNL     1       3.406  14.329  18.676  0.00  0.00    +0.000 A 
ATOM     11  C   UNL     1       4.322  15.272  17.953  0.00  0.00    +0.000 C 
ATOM     12  C   UNL     1       2.536  13.503  17.958  0.00  0.00    +0.000 A 
ATOM     13  C   UNL     1       1.676  12.624  18.624  0.00  0.00    +0.000 A 
ENDBRANCH   6   7
BRANCH   5  14
ATOM     14  C   UNL     1       0.985   9.479  19.407  0.00  0.00    +0.000 A 
ATOM     15  C   UNL     1       1.473   9.400  18.096  0.00  0.00    +0.000 A 
ATOM     16  C   UNL     1       2.311   8.356  17.690  0.00  0.00    +0.000 A 
ATOM     17  C   UNL     1       2.673   7.368  18.602  0.00  0.00    +0.000 A 
ATOM     18  C   UNL     1       2.179   7.398  19.901  0.00  0.00    +0.000 A 
ATOM     19  C   UNL     1       1.348   8.450  20.298  0.00  0.00    +0.000 A 
BRANCH  17  20
ATOM     20  S   UNL     1       3.769   6.076  18.109  0.00  0.00    +0.000 S 
ATOM     21  O   UNL     1       4.385   6.425  16.852  0.00  0.00    +0.000 OA
ATOM     22  O   UNL     1       4.532   5.631  19.253  0.00  0.00    +0.000 OA
BRANCH  20  23
ATOM     23  N   UNL     1       2.683   4.843  17.767  0.00  0.00    +0.000 NA
ATOM     24  H   UNL     1       1.833   5.227  17.357  0.00  0.00    +0.000 HD
ATOM     25  H   UNL     1       3.136   4.123  17.203  0.00  0.00    +0.000 HD
ENDBRANCH  20  23
ENDBRANCH  17  20
ENDBRANCH   5  14
BRANCH   1  26
ATOM     26  C   UNL     1      -1.123  11.764  22.475  0.00  0.00    +0.000 C 
ATOM     27  O   UNL     1      -2.270  11.874  22.879  0.00  0.00    +0.000 OA
BRANCH  26  29
ATOM     28  C   UNL     1      -0.481   9.657  23.282  0.00  0.00    +0.000 C 
ATOM     29  O   UNL     1      -0.152  11.036  23.097  0.00  0.00    +0.000 OA
ENDBRANCH  26  29
ENDBRANCH   1  26
TORSDOF 6
ENDMDL
MODEL 5
REMARK VINA RESULT:      -7.1      0.844      1.632
REMARK  Name = 
REMARK  8 active torsions:
REMARK  status: ('A' for Active; 'I' for Inactive)
REMARK    1  A    between atoms: C_1  and  O_2
REMARK    2  A    between atoms: O_2  and  C_3
REMARK    3  A    between atoms: C_3  and  C_5
REMARK    4  A    between atoms: N_9  and  C_10
REMARK    5  A    between atoms: C_13  and  S_14
REMARK    6  A    between atoms: S_14  and  N_15
REMARK    7  A    between atoms: C_20  and  C_21
REMARK    8  A    between atoms: C_24  and  C_25
REMARK                            x       y       z     vdW  Elec       q    Type
REMARK                         _______ _______ _______ _____ _____    ______ ____
ROOT
ATOM      1  C   UNL     1      -0.721  12.379  21.068  0.00  0.00    +0.000 C 
ATOM      2  C   UNL     1      -1.667  12.087  19.913  0.00  0.00    +0.000 C 
ATOM      3  C   UNL     1      -1.166  10.778  19.356  0.00  0.00    +0.000 C 
ATOM      4  O   UNL     1      -1.835  10.105  18.587  0.00  0.00    +0.000 OA
ATOM      5  N   UNL     1       0.130  10.553  19.838  0.00  0.00    +0.000 N 
ATOM      6  C   UNL     1       0.571  11.658  20.681  0.00  0.00    +0.000 C 
ENDROOT
BRANCH   6   7
ATOM      7  C   UNL     1       1.559  12.586  19.972  0.00  0.00    +0.000 A 
ATOM      8  C   UNL     1       1.668  12.650  18.573  0.00  0.00    +0.000 A 
ATOM      9  C   UNL     1       2.617  13.475  17.963  0.00  0.00    +0.000 A 
ATOM     10  C   UNL     1       3.476  14.260  18.734  0.00  0.00    +0.000 A 
ATOM     11  C   UNL     1       4.500  15.144  18.086  0.00  0.00    +0.000 C 
ATOM     12  C   UNL     1       3.368  14.212  20.128  0.00  0.00    +0.000 A 
ATOM     13  C   UNL     1       2.419  13.388  20.740  0.00  0.00    +0.000 A 
ENDBRANCH   6   7
BRANCH   5  14
ATOM     14  C   UNL     1       0.986   9.465  19.487  0.00  0.00    +0.000 A 
ATOM     15  C   UNL     1       1.338   8.477  20.415  0.00  0.00    +0.000 A 
ATOM     16  C   UNL     1       2.135   7.386  20.054  0.00  0.00    +0.000 A 
ATOM     17  C   UNL     1       2.593   7.271  18.743  0.00  0.00    +0.000 A 
ATOM     18  C   UNL     1       2.290   8.251  17.805  0.00  0.00    +0.000 A 
ATOM     19  C   UNL     1       1.486   9.334  18.176  0.00  0.00    +0.000 A 
BRANCH  17  20
ATOM     20  S   UNL     1       3.557   5.870  18.270  0.00  0.00    +0.000 S 
ATOM     21  O   UNL     1       4.446   5.514  19.349  0.00  0.00    +0.000 OA
ATOM     22  O   UNL     1       2.709   4.905  17.609  0.00  0.00    +0.000 OA
BRANCH  20  23
ATOM     23  N   UNL     1       4.526   6.535  17.071  0.00  0.00    +0.000 NA
ATOM     24  H   UNL     1       4.795   5.818  16.400  0.00  0.00    +0.000 HD
ATOM     25  H   UNL     1       4.067   7.349  16.660  0.00  0.00    +0.000 HD
ENDBRANCH  20  23
ENDBRANCH  17  20
ENDBRANCH   5  14
BRANCH   1  26
ATOM     26  C   UNL     1      -1.282  11.837  22.370  0.00  0.00    +0.000 C 
ATOM     27  O   UNL     1      -0.632  11.278  23.240  0.00  0.00    +0.000 OA
BRANCH  26  29
ATOM     28  C   UNL     1      -2.962  12.972  23.550  0.00  0.00    +0.000 C 
ATOM     29  O   UNL     1      -2.614  12.114  22.460  0.00  0.00    +0.000 OA
ENDBRANCH  26  29
ENDBRANCH   1  26
TORSDOF 6
ENDMDL
MODEL 6
REMARK VINA RESULT:      -7.1      0.539      1.626
REMARK  Name = 
REMARK  8 active torsions:
REMARK  status: ('A' for Active; 'I' for Inactive)
REMARK    1  A    between atoms: C_1  and  O_2
REMARK    2  A    between atoms: O_2  and  C_3
REMARK    3  A    between atoms: C_3  and  C_5
REMARK    4  A    between atoms: N_9  and  C_10
REMARK    5  A    between atoms: C_13  and  S_14
REMARK    6  A    between atoms: S_14  and  N_15
REMARK    7  A    between atoms: C_20  and  C_21
REMARK    8  A    between atoms: C_24  and  C_25
REMARK                            x       y       z     vdW  Elec       q    Type
REMARK                         _______ _______ _______ _____ _____    ______ ____
ROOT
ATOM      1  C   UNL     1      -0.711  12.471  21.067  0.00  0.00    +0.000 C 
ATOM      2  C   UNL     1      -1.640  12.220  19.889  0.00  0.00    +0.000 C 
ATOM      3  C   UNL     1      -1.158  10.910  19.318  0.00  0.00    +0.000 C 
ATOM      4  O   UNL     1      -1.826  10.266  18.525  0.00  0.00    +0.000 OA
ATOM      5  N   UNL     1       0.123  10.647  19.822  0.00  0.00    +0.000 N 
ATOM      6  C   UNL     1       0.571  11.727  20.692  0.00  0.00    +0.000 C 
ENDROOT
BRANCH   6   7
ATOM      7  C   UNL     1       1.594  12.645  20.020  0.00  0.00    +0.000 A 
ATOM      8  C   UNL     1       2.484  13.450  20.751  0.00  0.00    +0.000 A 
ATOM      9  C   UNL     1       3.371  14.313  20.102  0.00  0.00    +0.000 A 
ATOM     10  C   UNL     1       3.397  14.388  18.708  0.00  0.00    +0.000 A 
ATOM     11  C   UNL     1       4.344  15.315  18.005  0.00  0.00    +0.000 C 
ATOM     12  C   UNL     1       2.523  13.582  17.971  0.00  0.00    +0.000 A 
ATOM     13  C   UNL     1       1.634  12.718  18.619  0.00  0.00    +0.000 A 
ENDBRANCH   6   7
BRANCH   5  14
ATOM     14  C   UNL     1       0.961   9.547  19.467  0.00  0.00    +0.000 A 
ATOM     15  C   UNL     1       1.274   8.536  20.386  0.00  0.00    +0.000 A 
ATOM     16  C   UNL     1       2.054   7.433  20.021  0.00  0.00    +0.000 A 
ATOM     17  C   UNL     1       2.533   7.329  18.717  0.00  0.00    +0.000 A 
ATOM     18  C   UNL     1       2.268   8.330  17.790  0.00  0.00    +0.000 A 
ATOM     19  C   UNL     1       1.482   9.425  18.165  0.00  0.00    +0.000 A 
BRANCH  17  20
ATOM     20  S   UNL     1       3.474   5.915  18.238  0.00  0.00    +0.000 S 
ATOM     21  O   UNL     1       2.579   4.853  17.849  0.00  0.00    +0.000 OA
ATOM     22  O   UNL     1       4.588   6.335  17.418  0.00  0.00    +0.000 OA
BRANCH  20  23
ATOM     23  N   UNL     1       4.132   5.451  19.711  0.00  0.00    +0.000 NA
ATOM     24  H   UNL     1       4.016   6.194  20.397  0.00  0.00    +0.000 HD
ATOM     25  H   UNL     1       3.751   4.548  19.996  0.00  0.00    +0.000 HD
ENDBRANCH  20  23
ENDBRANCH  17  20
ENDBRANCH   5  14
BRANCH   1  26
ATOM     26  C   UNL     1      -1.310  11.919  22.348  0.00  0.00    +0.000 C 
ATOM     27  O   UNL     1      -0.680  11.389  23.251  0.00  0.00    +0.000 OA
BRANCH  26  29
ATOM     28  C   UNL     1      -3.206  12.233  23.693  0.00  0.00    +0.000 C 
ATOM     29  O   UNL     1      -2.653  12.150  22.377  0.00  0.00    +0.000 OA
ENDBRANCH  26  29
ENDBRANCH   1  26
TORSDOF 6
ENDMDL
MODEL 7
REMARK VINA RESULT:      -7.1      0.862      1.244
REMARK  Name = 
REMARK  8 active torsions:
REMARK  status: ('A' for Active; 'I' for Inactive)
REMARK    1  A    between atoms: C_1  and  O_2
REMARK    2  A    between atoms: O_2  and  C_3
REMARK    3  A    between atoms: C_3  and  C_5
REMARK    4  A    between atoms: N_9  and  C_10
REMARK    5  A    between atoms: C_13  and  S_14
REMARK    6  A    between atoms: S_14  and  N_15
REMARK    7  A    between atoms: C_20  and  C_21
REMARK    8  A    between atoms: C_24  and  C_25
REMARK                            x       y       z     vdW  Elec       q    Type
REMARK                         _______ _______ _______ _____ _____    ______ ____
ROOT
ATOM      1  C   UNL     1      -0.757  12.542  21.036  0.00  0.00    +0.000 C 
ATOM      2  C   UNL     1      -1.713  12.303  19.877  0.00  0.00    +0.000 C 
ATOM      3  C   UNL     1      -1.263  10.983  19.301  0.00  0.00    +0.000 C 
ATOM      4  O   UNL     1      -1.957  10.348  18.523  0.00  0.00    +0.000 OA
ATOM      5  N   UNL     1       0.023  10.702  19.780  0.00  0.00    +0.000 N 
ATOM      6  C   UNL     1       0.506  11.777  20.638  0.00  0.00    +0.000 C 
ENDROOT
BRANCH   6   7
ATOM      7  C   UNL     1       1.530  12.677  19.942  0.00  0.00    +0.000 A 
ATOM      8  C   UNL     1       1.614  12.788  18.544  0.00  0.00    +0.000 A 
ATOM      9  C   UNL     1       2.594  13.583  17.944  0.00  0.00    +0.000 A 
ATOM     10  C   UNL     1       3.510  14.290  18.724  0.00  0.00    +0.000 A 
ATOM     11  C   UNL     1       4.568  15.141  18.087  0.00  0.00    +0.000 C 
ATOM     12  C   UNL     1       3.428  14.195  20.117  0.00  0.00    +0.000 A 
ATOM     13  C   UNL     1       2.447  13.401  20.720  0.00  0.00    +0.000 A 
ENDBRANCH   6   7
BRANCH   5  14
ATOM     14  C   UNL     1       0.836   9.587  19.412  0.00  0.00    +0.000 A 
ATOM     15  C   UNL     1       1.314   9.425  18.105  0.00  0.00    +0.000 A 
ATOM     16  C   UNL     1       2.152   8.360  17.760  0.00  0.00    +0.000 A 
ATOM     17  C   UNL     1       2.526   7.434  18.732  0.00  0.00    +0.000 A 
ATOM     18  C   UNL     1       2.043   7.547  20.031  0.00  0.00    +0.000 A 
ATOM     19  C   UNL     1       1.211   8.620  20.365  0.00  0.00    +0.000 A 
BRANCH  17  20
ATOM     20  S   UNL     1       3.623   6.117  18.314  0.00  0.00    +0.000 S 
ATOM     21  O   UNL     1       4.400   6.490  17.157  0.00  0.00    +0.000 OA
ATOM     22  O   UNL     1       4.223   5.591  19.519  0.00  0.00    +0.000 OA
BRANCH  20  23
ATOM     23  N   UNL     1       2.539   4.948  17.787  0.00  0.00    +0.000 NA
ATOM     24  H   UNL     1       1.611   5.354  17.680  0.00  0.00    +0.000 HD
ATOM     25  H   UNL     1       2.899   4.487  16.951  0.00  0.00    +0.000 HD
ENDBRANCH  20  23
ENDBRANCH  17  20
ENDBRANCH   5  14
BRANCH   1  26
ATOM     26  C   UNL     1      -1.339  12.003  22.330  0.00  0.00    +0.000 C 
ATOM     27  O   UNL     1      -0.692  11.525  23.249  0.00  0.00    +0.000 OA
BRANCH  26  29
ATOM     28  C   UNL     1      -3.239  12.371  23.655  0.00  0.00    +0.000 C 
ATOM     29  O   UNL     1      -2.691  12.182  22.348  0.00  0.00    +0.000 OA
ENDBRANCH  26  29
ENDBRANCH   1  26
TORSDOF 6
ENDMDL
MODEL 8
REMARK VINA RESULT:      -6.9      0.923      1.616
REMARK  Name = 
REMARK  8 active torsions:
REMARK  status: ('A' for Active; 'I' for Inactive)
REMARK    1  A    between atoms: C_1  and  O_2
REMARK    2  A    between atoms: O_2  and  C_3
REMARK    3  A    between atoms: C_3  and  C_5
REMARK    4  A    between atoms: N_9  and  C_10
REMARK    5  A    between atoms: C_13  and  S_14
REMARK    6  A    between atoms: S_14  and  N_15
REMARK    7  A    between atoms: C_20  and  C_21
REMARK    8  A    between atoms: C_24  and  C_25
REMARK                            x       y       z     vdW  Elec       q    Type
REMARK                         _______ _______ _______ _____ _____    ______ ____
ROOT
ATOM      1  C   UNL     1      -0.499  12.691  21.270  0.00  0.00    +0.000 C 
ATOM      2  C   UNL     1      -1.520  12.498  20.159  0.00  0.00    +0.000 C 
ATOM      3  C   UNL     1      -1.163  11.158  19.566  0.00  0.00    +0.000 C 
ATOM      4  O   UNL     1      -1.924  10.556  18.824  0.00  0.00    +0.000 OA
ATOM      5  N   UNL     1       0.129  10.814  19.984  0.00  0.00    +0.000 N 
ATOM      6  C   UNL     1       0.704  11.865  20.815  0.00  0.00    +0.000 C 
ENDROOT
BRANCH   6   7
ATOM      7  C   UNL     1       1.736  12.714  20.069  0.00  0.00    +0.000 A 
ATOM      8  C   UNL     1       2.685  13.508  20.734  0.00  0.00    +0.000 A 
ATOM      9  C   UNL     1       3.580  14.308  20.019  0.00  0.00    +0.000 A 
ATOM     10  C   UNL     1       3.555  14.329  18.623  0.00  0.00    +0.000 A 
ATOM     11  C   UNL     1       4.510  15.189  17.849  0.00  0.00    +0.000 C 
ATOM     12  C   UNL     1       2.621  13.533  17.951  0.00  0.00    +0.000 A 
ATOM     13  C   UNL     1       1.725  12.732  18.665  0.00  0.00    +0.000 A 
ENDBRANCH   6   7
BRANCH   5  14
ATOM     14  C   UNL     1       0.869   9.661  19.581  0.00  0.00    +0.000 A 
ATOM     15  C   UNL     1       1.303   9.491  18.260  0.00  0.00    +0.000 A 
ATOM     16  C   UNL     1       2.071   8.385  17.880  0.00  0.00    +0.000 A 
ATOM     17  C   UNL     1       2.416   7.427  18.830  0.00  0.00    +0.000 A 
ATOM     18  C   UNL     1       1.974   7.548  20.142  0.00  0.00    +0.000 A 
ATOM     19  C   UNL     1       1.213   8.661  20.512  0.00  0.00    +0.000 A 
BRANCH  17  20
ATOM     20  S   UNL     1       3.427   6.056  18.367  0.00  0.00    +0.000 S 
ATOM     21  O   UNL     1       4.295   5.708  19.465  0.00  0.00    +0.000 OA
ATOM     22  O   UNL     1       2.621   5.078  17.671  0.00  0.00    +0.000 OA
BRANCH  20  23
ATOM     23  N   UNL     1       4.411   6.759  17.203  0.00  0.00    +0.000 NA
ATOM     24  H   UNL     1       5.067   6.072  16.837  0.00  0.00    +0.000 HD
ATOM     25  H   UNL     1       3.841   7.220  16.493  0.00  0.00    +0.000 HD
ENDBRANCH  20  23
ENDBRANCH  17  20
ENDBRANCH   5  14
BRANCH   1  26
ATOM     26  C   UNL     1      -1.044  12.182  22.592  0.00  0.00    +0.000 C 
ATOM     27  O   UNL     1      -0.599  11.234  23.222  0.00  0.00    +0.000 OA
BRANCH  26  29
ATOM     28  C   UNL     1      -3.191  12.250  23.536  0.00  0.00    +0.000 C 
ATOM     29  O   UNL     1      -2.073  12.972  23.012  0.00  0.00    +0.000 OA
ENDBRANCH  26  29
ENDBRANCH   1  26
TORSDOF 6
ENDMDL
MODEL 9
REMARK VINA RESULT:      -6.7      3.539      7.626
REMARK  Name = 
REMARK  8 active torsions:
REMARK  status: ('A' for Active; 'I' for Inactive)
REMARK    1  A    between atoms: C_1  and  O_2
REMARK    2  A    between atoms: O_2  and  C_3
REMARK    3  A    between atoms: C_3  and  C_5
REMARK    4  A    between atoms: N_9  and  C_10
REMARK    5  A    between atoms: C_13  and  S_14
REMARK    6  A    between atoms: S_14  and  N_15
REMARK    7  A    between atoms: C_20  and  C_21
REMARK    8  A    between atoms: C_24  and  C_25
REMARK                            x       y       z     vdW  Elec       q    Type
REMARK                         _______ _______ _______ _____ _____    ______ ____
ROOT
ATOM      1  C   UNL     1       3.681   3.572  18.386  0.00  0.00    +0.000 C 
ATOM      2  C   UNL     1       3.641   3.338  19.888  0.00  0.00    +0.000 C 
ATOM      3  C   UNL     1       2.838   4.500  20.416  0.00  0.00    +0.000 C 
ATOM      4  O   UNL     1       2.380   4.509  21.548  0.00  0.00    +0.000 OA
ATOM      5  N   UNL     1       2.780   5.490  19.425  0.00  0.00    +0.000 N 
ATOM      6  C   UNL     1       3.531   5.087  18.243  0.00  0.00    +0.000 C 
ENDROOT
BRANCH   6   7
ATOM      7  C   UNL     1       4.884   5.792  18.130  0.00  0.00    +0.000 A 
ATOM      8  C   UNL     1       5.983   5.453  18.937  0.00  0.00    +0.000 A 
ATOM      9  C   UNL     1       7.189   6.153  18.839  0.00  0.00    +0.000 A 
ATOM     10  C   UNL     1       7.329   7.203  17.930  0.00  0.00    +0.000 A 
ATOM     11  C   UNL     1       8.619   7.961  17.823  0.00  0.00    +0.000 C 
ATOM     12  C   UNL     1       6.244   7.541  17.114  0.00  0.00    +0.000 A 
ATOM     13  C   UNL     1       5.036   6.842  17.210  0.00  0.00    +0.000 A 
ENDBRANCH   6   7
BRANCH   5  14
ATOM     14  C   UNL     1       2.181   6.779  19.554  0.00  0.00    +0.000 A 
ATOM     15  C   UNL     1       1.676   7.237  20.778  0.00  0.00    +0.000 A 
ATOM     16  C   UNL     1       1.136   8.520  20.911  0.00  0.00    +0.000 A 
ATOM     17  C   UNL     1       1.096   9.370  19.808  0.00  0.00    +0.000 A 
ATOM     18  C   UNL     1       1.559   8.936  18.572  0.00  0.00    +0.000 A 
ATOM     19  C   UNL     1       2.103   7.653  18.451  0.00  0.00    +0.000 A 
BRANCH  17  20
ATOM     20  S   UNL     1       0.462  11.007  19.984  0.00  0.00    +0.000 S 
ATOM     21  O   UNL     1      -0.979  10.973  19.921  0.00  0.00    +0.000 OA
ATOM     22  O   UNL     1       1.179  11.690  21.037  0.00  0.00    +0.000 OA
BRANCH  20  23
ATOM     23  N   UNL     1       0.972  11.707  18.546  0.00  0.00    +0.000 NA
ATOM     24  H   UNL     1       0.676  12.681  18.505  0.00  0.00    +0.000 HD
ATOM     25  H   UNL     1       1.975  11.564  18.423  0.00  0.00    +0.000 HD
ENDBRANCH  20  23
ENDBRANCH  17  20
ENDBRANCH   5  14
BRANCH   1  26
ATOM     26  C   UNL     1       2.542   2.841  17.700  0.00  0.00    +0.000 C 
ATOM     27  O   UNL     1       2.193   3.007  16.541  0.00  0.00    +0.000 OA
BRANCH  26  29
ATOM     28  C   UNL     1       0.604   2.127  18.814  0.00  0.00    +0.000 C 
ATOM     29  O   UNL     1       1.994   1.923  18.547  0.00  0.00    +0.000 OA
ENDBRANCH  26  29
ENDBRANCH   1  26
TORSDOF 6
ENDMDL
