MODEL 1
REMARK VINA RESULT:      -7.9      0.000      0.000
REMARK  Name = 
REMARK  5 active torsions:
REMARK  status: ('A' for Active; 'I' for Inactive)
REMARK    1  A    between atoms: C_1  and  N_2
REMARK    2  A    between atoms: N_2  and  C_3
REMARK    3  A    between atoms: N_2  and  C_4
REMARK    4  A    between atoms: C_9  and  C_11
REMARK    5  A    between atoms: C_15  and  C_16
REMARK                            x       y       z     vdW  Elec       q    Type
REMARK                         _______ _______ _______ _____ _____    ______ ____
ROOT
ATOM      1  C   UNL     1       1.437   4.572  19.444  0.00  0.00    +0.000 C 
ATOM      2  C   UNL     1       2.611   4.320  18.469  0.00  0.00    +0.000 C 
ATOM      3  C   UNL     1       3.120   5.539  17.691  0.00  0.00    +0.000 C 
ATOM      4  C   UNL     1       3.570   6.712  18.556  0.00  0.00    +0.000 C 
ATOM      5  N   UNL     1       2.428   7.475  19.050  0.00  0.00    +0.000 N 
ATOM      6  C   UNL     1       2.027   8.605  18.310  0.00  0.00    +0.000 C 
ATOM      7  O   UNL     1       2.564   8.920  17.247  0.00  0.00    +0.000 OA
ATOM      8  C   UNL     1       1.744   6.984  20.245  0.00  0.00    +0.000 C 
ATOM      9  C   UNL     1       1.857   5.508  20.588  0.00  0.00    +0.000 C 
ENDROOT
BRANCH   6  10
ATOM     10  C   UNL     1       0.879   9.451  18.758  0.00  0.00    +0.000 A 
ATOM     11  C   UNL     1       0.983  10.141  19.971  0.00  0.00    +0.000 A 
ATOM     12  C   UNL     1      -0.025  11.024  20.367  0.00  0.00    +0.000 A 
ATOM     13  C   UNL     1      -1.129  11.249  19.538  0.00  0.00    +0.000 A 
ATOM     14  C   UNL     1      -1.265  10.536  18.343  0.00  0.00    +0.000 A 
ATOM     15  C   UNL     1      -0.291   9.588  18.010  0.00  0.00    +0.000 A 
BRANCH  14  16
ATOM     16  C   UNL     1      -2.336  10.782  17.378  0.00  0.00    +0.000 A 
ATOM     17  N   UNL     1      -3.527  11.276  17.666  0.00  0.00    +0.000 NA
ATOM     18  C   UNL     1      -4.212  11.350  16.483  0.00  0.00    +0.000 A 
ATOM     19  C   UNL     1      -3.423  10.913  15.446  0.00  0.00    +0.000 A 
ATOM     20  N   UNL     1      -2.244  10.548  16.030  0.00  0.00    +0.000 N 
ATOM     21  H   UNL     1      -1.423  10.196  15.554  0.00  0.00    +0.000 HD
ENDBRANCH  14  16
ENDBRANCH   6  10
BRANCH   1  23
ATOM     22  C   UNL     1       0.787   2.232  19.071  0.00  0.00    +0.000 C 
ATOM     23  N   UNL     1       0.874   3.329  20.032  0.00  0.00    +0.000 NA
ATOM     24  C   UNL     1       1.514   2.888  21.269  0.00  0.00    +0.000 C 
ENDBRANCH   1  23
TORSDOF 3
ENDMDL
MODEL 2
REMARK VINA RESULT:      -7.4      2.699      7.841
REMARK  Name = 
REMARK  5 active torsions:
REMARK  status: ('A' for Active; 'I' for Inactive)
REMARK    1  A    between atoms: C_1  and  N_2
REMARK    2  A    between atoms: N_2  and  C_3
REMARK    3  A    between atoms: N_2  and  C_4
REMARK    4  A    between atoms: C_9  and  C_11
REMARK    5  A    between atoms: C_15  and  C_16
REMARK                            x       y       z     vdW  Elec       q    Type
REMARK                         _______ _______ _______ _____ _____    ______ ____
ROOT
ATOM      1  C   UNL     1      -0.087   9.567  18.773  0.00  0.00    +0.000 C 
ATOM      2  C   UNL     1      -0.461   9.806  20.254  0.00  0.00    +0.000 C 
ATOM      3  C   UNL     1      -0.002   8.735  21.250  0.00  0.00    +0.000 C 
ATOM      4  C   UNL     1       1.500   8.468  21.260  0.00  0.00    +0.000 C 
ATOM      5  N   UNL     1       1.896   7.625  20.137  0.00  0.00    +0.000 N 
ATOM      6  C   UNL     1       1.984   6.237  20.360  0.00  0.00    +0.000 C 
ATOM      7  O   UNL     1       1.680   5.723  21.437  0.00  0.00    +0.000 OA
ATOM      8  C   UNL     1       2.120   8.271  18.845  0.00  0.00    +0.000 C 
ATOM      9  C   UNL     1       1.437   9.600  18.572  0.00  0.00    +0.000 C 
ENDROOT
BRANCH   6  10
ATOM     10  C   UNL     1       2.401   5.306  19.266  0.00  0.00    +0.000 A 
ATOM     11  C   UNL     1       1.413   4.611  18.560  0.00  0.00    +0.000 A 
ATOM     12  C   UNL     1       1.758   3.817  17.463  0.00  0.00    +0.000 A 
ATOM     13  C   UNL     1       3.090   3.738  17.044  0.00  0.00    +0.000 A 
ATOM     14  C   UNL     1       4.092   4.395  17.766  0.00  0.00    +0.000 A 
ATOM     15  C   UNL     1       3.737   5.108  18.916  0.00  0.00    +0.000 A 
BRANCH  14  16
ATOM     16  C   UNL     1       5.491   4.441  17.340  0.00  0.00    +0.000 A 
ATOM     17  N   UNL     1       5.906   4.585  16.093  0.00  0.00    +0.000 NA
ATOM     18  C   UNL     1       7.275   4.583  16.140  0.00  0.00    +0.000 A 
ATOM     19  C   UNL     1       7.710   4.457  17.437  0.00  0.00    +0.000 A 
ATOM     20  N   UNL     1       6.568   4.357  18.182  0.00  0.00    +0.000 N 
ATOM     21  H   UNL     1       6.517   4.271  19.189  0.00  0.00    +0.000 HD
ENDBRANCH  14  16
ENDBRANCH   6  10
BRANCH   1  23
ATOM     22  C   UNL     1      -1.895  10.011  17.170  0.00  0.00    +0.000 C 
ATOM     23  N   UNL     1      -0.709  10.540  17.837  0.00  0.00    +0.000 NA
ATOM     24  C   UNL     1      -0.977  11.858  18.408  0.00  0.00    +0.000 C 
ENDBRANCH   1  23
TORSDOF 3
ENDMDL
MODEL 3
REMARK VINA RESULT:      -7.3      0.471      1.129
REMARK  Name = 
REMARK  5 active torsions:
REMARK  status: ('A' for Active; 'I' for Inactive)
REMARK    1  A    between atoms: C_1  and  N_2
REMARK    2  A    between atoms: N_2  and  C_3
REMARK    3  A    between atoms: N_2  and  C_4
REMARK    4  A    between atoms: C_9  and  C_11
REMARK    5  A    between atoms: C_15  and  C_16
REMARK                            x       y       z     vdW  Elec       q    Type
REMARK                         _______ _______ _______ _____ _____    ______ ____
ROOT
ATOM      1  C   UNL     1       2.036   4.460  19.064  0.00  0.00    +0.000 C 
ATOM      2  C   UNL     1       3.216   4.377  18.068  0.00  0.00    +0.000 C 
ATOM      3  C   UNL     1       3.583   5.676  17.341  0.00  0.00    +0.000 C 
ATOM      4  C   UNL     1       3.919   6.851  18.254  0.00  0.00    +0.000 C 
ATOM      5  N   UNL     1       2.711   7.467  18.792  0.00  0.00    +0.000 N 
ATOM      6  C   UNL     1       2.183   8.579  18.108  0.00  0.00    +0.000 C 
ATOM      7  O   UNL     1       2.669   8.995  17.055  0.00  0.00    +0.000 OA
ATOM      8  C   UNL     1       2.099   6.854  19.970  0.00  0.00    +0.000 C 
ATOM      9  C   UNL     1       2.371   5.385  20.246  0.00  0.00    +0.000 C 
ENDROOT
BRANCH   6  10
ATOM     10  C   UNL     1       0.958   9.279  18.604  0.00  0.00    +0.000 A 
ATOM     11  C   UNL     1       0.967   9.819  19.895  0.00  0.00    +0.000 A 
ATOM     12  C   UNL     1      -0.118  10.572  20.351  0.00  0.00    +0.000 A 
ATOM     13  C   UNL     1      -1.207  10.817  19.507  0.00  0.00    +0.000 A 
ATOM     14  C   UNL     1      -1.247  10.249  18.230  0.00  0.00    +0.000 A 
ATOM     15  C   UNL     1      -0.193   9.422  17.828  0.00  0.00    +0.000 A 
BRANCH  14  16
ATOM     16  C   UNL     1      -2.300  10.535  17.256  0.00  0.00    +0.000 A 
ATOM     17  N   UNL     1      -2.389  10.004  16.048  0.00  0.00    +0.000 NA
ATOM     18  C   UNL     1      -3.515  10.532  15.477  0.00  0.00    +0.000 A 
ATOM     19  C   UNL     1      -4.142  11.386  16.352  0.00  0.00    +0.000 A 
ATOM     20  N   UNL     1      -3.354  11.384  17.469  0.00  0.00    +0.000 N 
ATOM     21  H   UNL     1      -3.529  11.893  18.326  0.00  0.00    +0.000 HD
ENDBRANCH  14  16
ENDBRANCH   6  10
BRANCH   1  23
ATOM     22  C   UNL     1       1.188   3.201  20.995  0.00  0.00    +0.000 C 
ATOM     23  N   UNL     1       1.615   3.140  19.600  0.00  0.00    +0.000 NA
ATOM     24  C   UNL     1       0.631   2.430  18.786  0.00  0.00    +0.000 C 
ENDBRANCH   1  23
TORSDOF 3
ENDMDL
MODEL 4
REMARK VINA RESULT:      -7.2      4.050      7.679
REMARK  Name = 
REMARK  5 active torsions:
REMARK  status: ('A' for Active; 'I' for Inactive)
REMARK    1  A    between atoms: C_1  and  N_2
REMARK    2  A    between atoms: N_2  and  C_3
REMARK    3  A    between atoms: N_2  and  C_4
REMARK    4  A    between atoms: C_9  and  C_11
REMARK    5  A    between atoms: C_15  and  C_16
REMARK                            x       y       z     vdW  Elec       q    Type
REMARK                         _______ _______ _______ _____ _____    ______ ____
ROOT
ATOM      1  C   UNL     1       1.943   4.720  20.145  0.00  0.00    +0.000 C 
ATOM      2  C   UNL     1       1.338   6.106  20.470  0.00  0.00    +0.000 C 
ATOM      3  C   UNL     1       2.039   7.315  19.842  0.00  0.00    +0.000 C 
ATOM      4  C   UNL     1       2.146   7.279  18.321  0.00  0.00    +0.000 C 
ATOM      5  N   UNL     1       3.227   6.400  17.887  0.00  0.00    +0.000 N 
ATOM      6  C   UNL     1       4.483   6.983  17.629  0.00  0.00    +0.000 C 
ATOM      7  O   UNL     1       4.703   8.181  17.819  0.00  0.00    +0.000 OA
ATOM      8  C   UNL     1       2.949   4.966  17.803  0.00  0.00    +0.000 C 
ATOM      9  C   UNL     1       1.820   4.398  18.647  0.00  0.00    +0.000 C 
ENDROOT
BRANCH   6  10
ATOM     10  C   UNL     1       5.637   6.155  17.163  0.00  0.00    +0.000 A 
ATOM     11  C   UNL     1       6.509   5.618  18.117  0.00  0.00    +0.000 A 
ATOM     12  C   UNL     1       7.533   4.751  17.725  0.00  0.00    +0.000 A 
ATOM     13  C   UNL     1       7.672   4.390  16.381  0.00  0.00    +0.000 A 
ATOM     14  C   UNL     1       6.833   4.951  15.414  0.00  0.00    +0.000 A 
ATOM     15  C   UNL     1       5.875   5.888  15.815  0.00  0.00    +0.000 A 
BRANCH  14  16
ATOM     16  C   UNL     1       6.851   4.553  14.006  0.00  0.00    +0.000 A 
ATOM     17  N   UNL     1       7.523   5.166  13.047  0.00  0.00    +0.000 NA
ATOM     18  C   UNL     1       7.271   4.471  11.894  0.00  0.00    +0.000 A 
ATOM     19  C   UNL     1       6.446   3.402  12.150  0.00  0.00    +0.000 A 
ATOM     20  N   UNL     1       6.182   3.475  13.489  0.00  0.00    +0.000 N 
ATOM     21  H   UNL     1       5.617   2.827  14.024  0.00  0.00    +0.000 HD
ENDBRANCH  14  16
ENDBRANCH   6  10
BRANCH   1  23
ATOM     22  C   UNL     1       0.752   2.573  20.070  0.00  0.00    +0.000 C 
ATOM     23  N   UNL     1       1.334   3.608  20.919  0.00  0.00    +0.000 NA
ATOM     24  C   UNL     1       2.203   3.018  21.936  0.00  0.00    +0.000 C 
ENDBRANCH   1  23
TORSDOF 3
ENDMDL
MODEL 5
REMARK VINA RESULT:      -6.6      1.967      3.214
REMARK  Name = 
REMARK  5 active torsions:
REMARK  status: ('A' for Active; 'I' for Inactive)
REMARK    1  A    between atoms: C_1  and  N_2
REMARK    2  A    between atoms: N_2  and  C_3
REMARK    3  A    between atoms: N_2  and  C_4
REMARK    4  A    between atoms: C_9  and  C_11
REMARK    5  A    between atoms: C_15  and  C_16
REMARK                            x       y       z     vdW  Elec       q    Type
REMARK                         _______ _______ _______ _____ _____    ______ ____
ROOT
ATOM      1  C   UNL     1       1.652   4.267  19.361  0.00  0.00    +0.000 C 
ATOM      2  C   UNL     1       2.942   3.996  18.553  0.00  0.00    +0.000 C 
ATOM      3  C   UNL     1       3.523   5.187  17.784  0.00  0.00    +0.000 C 
ATOM      4  C   UNL     1       3.843   6.410  18.638  0.00  0.00    +0.000 C 
ATOM      5  N   UNL     1       2.636   7.170  18.948  0.00  0.00    +0.000 N 
ATOM      6  C   UNL     1       2.312   8.254  18.109  0.00  0.00    +0.000 C 
ATOM      7  O   UNL     1       2.972   8.530  17.106  0.00  0.00    +0.000 OA
ATOM      8  C   UNL     1       1.817   6.721  20.072  0.00  0.00    +0.000 C 
ATOM      9  C   UNL     1       1.910   5.266  20.501  0.00  0.00    +0.000 C 
ENDROOT
BRANCH   6  10
ATOM     10  C   UNL     1       1.103   9.094  18.368  0.00  0.00    +0.000 A 
ATOM     11  C   UNL     1       0.207   9.329  17.319  0.00  0.00    +0.000 A 
ATOM     12  C   UNL     1      -0.986  10.018  17.552  0.00  0.00    +0.000 A 
ATOM     13  C   UNL     1      -1.308  10.449  18.843  0.00  0.00    +0.000 A 
ATOM     14  C   UNL     1      -0.403  10.258  19.892  0.00  0.00    +0.000 A 
ATOM     15  C   UNL     1       0.827   9.649  19.618  0.00  0.00    +0.000 A 
BRANCH  14  16
ATOM     16  C   UNL     1      -0.704  10.592  21.284  0.00  0.00    +0.000 A 
ATOM     17  N   UNL     1      -0.435   9.829  22.329  0.00  0.00    +0.000 NA
ATOM     18  C   UNL     1      -0.871  10.515  23.431  0.00  0.00    +0.000 A 
ATOM     19  C   UNL     1      -1.398  11.729  23.061  0.00  0.00    +0.000 A 
ATOM     20  N   UNL     1      -1.294  11.757  21.699  0.00  0.00    +0.000 N 
ATOM     21  H   UNL     1      -1.572  12.519  21.093  0.00  0.00    +0.000 HD
ENDBRANCH  14  16
ENDBRANCH   6  10
BRANCH   1  23
ATOM     22  C   UNL     1       1.202   1.868  19.082  0.00  0.00    +0.000 C 
ATOM     23  N   UNL     1       1.040   3.041  19.936  0.00  0.00    +0.000 NA
ATOM     24  C   UNL     1       1.435   2.742  21.311  0.00  0.00    +0.000 C 
ENDBRANCH   1  23
TORSDOF 3
ENDMDL
MODEL 6
REMARK VINA RESULT:      -6.6      1.974      7.113
REMARK  Name = 
REMARK  5 active torsions:
REMARK  status: ('A' for Active; 'I' for Inactive)
REMARK    1  A    between atoms: C_1  and  N_2
REMARK    2  A    between atoms: N_2  and  C_3
REMARK    3  A    between atoms: N_2  and  C_4
REMARK    4  A    between atoms: C_9  and  C_11
REMARK    5  A    between atoms: C_15  and  C_16
REMARK                            x       y       z     vdW  Elec       q    Type
REMARK                         _______ _______ _______ _____ _____    ______ ____
ROOT
ATOM      1  C   UNL     1      -1.433  10.348  18.502  0.00  0.00    +0.000 C 
ATOM      2  C   UNL     1      -1.533  11.301  19.717  0.00  0.00    +0.000 C 
ATOM      3  C   UNL     1      -0.690  10.930  20.941  0.00  0.00    +0.000 C 
ATOM      4  C   UNL     1       0.805  10.788  20.674  0.00  0.00    +0.000 C 
ATOM      5  N   UNL     1       1.112   9.507  20.047  0.00  0.00    +0.000 N 
ATOM      6  C   UNL     1       1.499   8.443  20.885  0.00  0.00    +0.000 C 
ATOM      7  O   UNL     1       1.522   8.549  22.112  0.00  0.00    +0.000 OA
ATOM      8  C   UNL     1       0.943   9.398  18.598  0.00  0.00    +0.000 C 
ATOM      9  C   UNL     1      -0.015  10.354  17.908  0.00  0.00    +0.000 C 
ENDROOT
BRANCH   6  10
ATOM     10  C   UNL     1       1.848   7.104  20.320  0.00  0.00    +0.000 A 
ATOM     11  C   UNL     1       1.141   5.981  20.762  0.00  0.00    +0.000 A 
ATOM     12  C   UNL     1       1.366   4.732  20.177  0.00  0.00    +0.000 A 
ATOM     13  C   UNL     1       2.277   4.603  19.124  0.00  0.00    +0.000 A 
ATOM     14  C   UNL     1       3.021   5.709  18.701  0.00  0.00    +0.000 A 
ATOM     15  C   UNL     1       2.848   6.930  19.362  0.00  0.00    +0.000 A 
BRANCH  14  16
ATOM     16  C   UNL     1       3.920   5.679  17.547  0.00  0.00    +0.000 A 
ATOM     17  N   UNL     1       4.326   4.588  16.922  0.00  0.00    +0.000 NA
ATOM     18  C   UNL     1       5.143   5.007  15.905  0.00  0.00    +0.000 A 
ATOM     19  C   UNL     1       5.224   6.379  15.891  0.00  0.00    +0.000 A 
ATOM     20  N   UNL     1       4.453   6.788  16.943  0.00  0.00    +0.000 N 
ATOM     21  H   UNL     1       4.273   7.745  17.216  0.00  0.00    +0.000 HD
ENDBRANCH  14  16
ENDBRANCH   6  10
BRANCH   1  23
ATOM     22  C   UNL     1      -2.425   9.646  16.368  0.00  0.00    +0.000 C 
ATOM     23  N   UNL     1      -2.402  10.658  17.420  0.00  0.00    +0.000 NA
ATOM     24  C   UNL     1      -3.756  10.967  17.874  0.00  0.00    +0.000 C 
ENDBRANCH   1  23
TORSDOF 3
ENDMDL
MODEL 7
REMARK VINA RESULT:      -6.6      1.943      7.184
REMARK  Name = 
REMARK  5 active torsions:
REMARK  status: ('A' for Active; 'I' for Inactive)
REMARK    1  A    between atoms: C_1  and  N_2
REMARK    2  A    between atoms: N_2  and  C_3
REMARK    3  A    between atoms: N_2  and  C_4
REMARK    4  A    between atoms: C_9  and  C_11
REMARK    5  A    between atoms: C_15  and  C_16
REMARK                            x       y       z     vdW  Elec       q    Type
REMARK                         _______ _______ _______ _____ _____    ______ ____
ROOT
ATOM      1  C   UNL     1      -1.814  10.207  18.573  0.00  0.00    +0.000 C 
ATOM      2  C   UNL     1      -1.819  11.309  19.658  0.00  0.00    +0.000 C 
ATOM      3  C   UNL     1      -0.801  11.148  20.792  0.00  0.00    +0.000 C 
ATOM      4  C   UNL     1       0.653  11.043  20.342  0.00  0.00    +0.000 C 
ATOM      5  N   UNL     1       0.959   9.705  19.847  0.00  0.00    +0.000 N 
ATOM      6  C   UNL     1       1.521   8.784  20.753  0.00  0.00    +0.000 C 
ATOM      7  O   UNL     1       1.696   9.055  21.942  0.00  0.00    +0.000 OA
ATOM      8  C   UNL     1       0.611   9.394  18.461  0.00  0.00    +0.000 C 
ATOM      9  C   UNL     1      -0.490  10.200  17.793  0.00  0.00    +0.000 C 
ENDROOT
BRANCH   6  10
ATOM     10  C   UNL     1       1.881   7.399  20.320  0.00  0.00    +0.000 A 
ATOM     11  C   UNL     1       1.198   6.317  20.887  0.00  0.00    +0.000 A 
ATOM     12  C   UNL     1       1.432   5.018  20.428  0.00  0.00    +0.000 A 
ATOM     13  C   UNL     1       2.327   4.795  19.377  0.00  0.00    +0.000 A 
ATOM     14  C   UNL     1       3.047   5.862  18.830  0.00  0.00    +0.000 A 
ATOM     15  C   UNL     1       2.866   7.142  19.367  0.00  0.00    +0.000 A 
BRANCH  14  16
ATOM     16  C   UNL     1       3.927   5.727  17.669  0.00  0.00    +0.000 A 
ATOM     17  N   UNL     1       4.436   6.730  16.975  0.00  0.00    +0.000 NA
ATOM     18  C   UNL     1       5.200   6.168  15.988  0.00  0.00    +0.000 A 
ATOM     19  C   UNL     1       5.178   4.798  16.088  0.00  0.00    +0.000 A 
ATOM     20  N   UNL     1       4.360   4.535  17.150  0.00  0.00    +0.000 N 
ATOM     21  H   UNL     1       4.133   3.621  17.519  0.00  0.00    +0.000 HD
ENDBRANCH  14  16
ENDBRANCH   6  10
BRANCH   1  23
ATOM     22  C   UNL     1      -3.758  11.507  17.820  0.00  0.00    +0.000 C 
ATOM     23  N   UNL     1      -2.934  10.321  17.603  0.00  0.00    +0.000 NA
ATOM     24  C   UNL     1      -2.547  10.207  16.198  0.00  0.00    +0.000 C 
ENDBRANCH   1  23
TORSDOF 3
ENDMDL
MODEL 8
REMARK VINA RESULT:      -6.4      2.926      3.549
REMARK  Name = 
REMARK  5 active torsions:
REMARK  status: ('A' for Active; 'I' for Inactive)
REMARK    1  A    between atoms: C_1  and  N_2
REMARK    2  A    between atoms: N_2  and  C_3
REMARK    3  A    between atoms: N_2  and  C_4
REMARK    4  A    between atoms: C_9  and  C_11
REMARK    5  A    between atoms: C_15  and  C_16
REMARK                            x       y       z     vdW  Elec       q    Type
REMARK                         _______ _______ _______ _____ _____    ______ ____
ROOT
ATOM      1  C   UNL     1       1.361   4.391  19.742  0.00  0.00    +0.000 C 
ATOM      2  C   UNL     1       2.012   4.429  18.340  0.00  0.00    +0.000 C 
ATOM      3  C   UNL     1       2.197   5.815  17.715  0.00  0.00    +0.000 C 
ATOM      4  C   UNL     1       3.010   6.796  18.553  0.00  0.00    +0.000 C 
ATOM      5  N   UNL     1       2.207   7.365  19.631  0.00  0.00    +0.000 N 
ATOM      6  C   UNL     1       1.578   8.603  19.396  0.00  0.00    +0.000 C 
ATOM      7  O   UNL     1       1.635   9.173  18.305  0.00  0.00    +0.000 OA
ATOM      8  C   UNL     1       2.064   6.585  20.860  0.00  0.00    +0.000 C 
ATOM      9  C   UNL     1       2.253   5.079  20.788  0.00  0.00    +0.000 C 
ENDROOT
BRANCH   6  10
ATOM     10  C   UNL     1       0.753   9.261  20.454  0.00  0.00    +0.000 A 
ATOM     11  C   UNL     1       0.149   8.463  21.432  0.00  0.00    +0.000 A 
ATOM     12  C   UNL     1      -0.538   9.052  22.497  0.00  0.00    +0.000 A 
ATOM     13  C   UNL     1      -0.599  10.445  22.609  0.00  0.00    +0.000 A 
ATOM     14  C   UNL     1      -0.036  11.254  21.617  0.00  0.00    +0.000 A 
ATOM     15  C   UNL     1       0.566  10.643  20.512  0.00  0.00    +0.000 A 
BRANCH  14  16
ATOM     16  C   UNL     1       0.027  12.712  21.709  0.00  0.00    +0.000 A 
ATOM     17  N   UNL     1      -0.307  13.427  22.769  0.00  0.00    +0.000 NA
ATOM     18  C   UNL     1      -0.093  14.738  22.435  0.00  0.00    +0.000 A 
ATOM     19  C   UNL     1       0.400  14.831  21.155  0.00  0.00    +0.000 A 
ATOM     20  N   UNL     1       0.460  13.541  20.707  0.00  0.00    +0.000 N 
ATOM     21  H   UNL     1       0.797  13.237  19.803  0.00  0.00    +0.000 HD
ENDBRANCH  14  16
ENDBRANCH   6  10
BRANCH   1  23
ATOM     22  C   UNL     1       1.486   1.980  19.291  0.00  0.00    +0.000 C 
ATOM     23  N   UNL     1       1.046   3.019  20.217  0.00  0.00    +0.000 NA
ATOM     24  C   UNL     1       1.487   2.723  21.579  0.00  0.00    +0.000 C 
ENDBRANCH   1  23
TORSDOF 3
ENDMDL
MODEL 9
REMARK VINA RESULT:      -6.3      4.679      7.656
REMARK  Name = 
REMARK  5 active torsions:
REMARK  status: ('A' for Active; 'I' for Inactive)
REMARK    1  A    between atoms: C_1  and  N_2
REMARK    2  A    between atoms: N_2  and  C_3
REMARK    3  A    between atoms: N_2  and  C_4
REMARK    4  A    between atoms: C_9  and  C_11
REMARK    5  A    between atoms: C_15  and  C_16
REMARK                            x       y       z     vdW  Elec       q    Type
REMARK                         _______ _______ _______ _____ _____    ______ ____
ROOT
ATOM      1  C   UNL     1       5.540   3.863  13.321  0.00  0.00    +0.000 C 
ATOM      2  C   UNL     1       6.930   4.408  12.916  0.00  0.00    +0.000 C 
ATOM      3  C   UNL     1       7.546   5.456  13.848  0.00  0.00    +0.000 C 
ATOM      4  C   UNL     1       7.704   5.013  15.299  0.00  0.00    +0.000 C 
ATOM      5  N   UNL     1       6.436   5.087  16.017  0.00  0.00    +0.000 N 
ATOM      6  C   UNL     1       6.166   6.258  16.752  0.00  0.00    +0.000 C 
ATOM      7  O   UNL     1       6.930   7.225  16.752  0.00  0.00    +0.000 OA
ATOM      8  C   UNL     1       5.507   3.966  15.879  0.00  0.00    +0.000 C 
ATOM      9  C   UNL     1       5.613   3.086  14.645  0.00  0.00    +0.000 C 
ENDROOT
BRANCH   6  10
ATOM     10  C   UNL     1       4.898   6.405  17.530  0.00  0.00    +0.000 A 
ATOM     11  C   UNL     1       4.023   7.446  17.201  0.00  0.00    +0.000 A 
ATOM     12  C   UNL     1       2.780   7.548  17.833  0.00  0.00    +0.000 A 
ATOM     13  C   UNL     1       2.391   6.592  18.776  0.00  0.00    +0.000 A 
ATOM     14  C   UNL     1       3.273   5.571  19.144  0.00  0.00    +0.000 A 
ATOM     15  C   UNL     1       4.548   5.541  18.568  0.00  0.00    +0.000 A 
BRANCH  14  16
ATOM     16  C   UNL     1       2.908   4.480  20.048  0.00  0.00    +0.000 A 
ATOM     17  N   UNL     1       3.526   3.315  20.129  0.00  0.00    +0.000 NA
ATOM     18  C   UNL     1       2.873   2.598  21.096  0.00  0.00    +0.000 A 
ATOM     19  C   UNL     1       1.849   3.340  21.633  0.00  0.00    +0.000 A 
ATOM     20  N   UNL     1       1.879   4.524  20.952  0.00  0.00    +0.000 N 
ATOM     21  H   UNL     1       1.270   5.318  21.105  0.00  0.00    +0.000 HD
ENDBRANCH  14  16
ENDBRANCH   6  10
BRANCH   1  23
ATOM     22  C   UNL     1       4.078   3.723  11.353  0.00  0.00    +0.000 C 
ATOM     23  N   UNL     1       4.920   2.989  12.293  0.00  0.00    +0.000 NA
ATOM     24  C   UNL     1       5.852   2.114  11.583  0.00  0.00    +0.000 C 
ENDBRANCH   1  23
TORSDOF 3
ENDMDL
