MODEL 1
REMARK VINA RESULT:      -8.8      0.000      0.000
REMARK  Name = 
REMARK  6 active torsions:
REMARK  status: ('A' for Active; 'I' for Inactive)
REMARK    1  A    between atoms: C_2  and  C_18
REMARK    2  A    between atoms: N_3  and  C_4
REMARK    3  A    between atoms: N_7  and  C_8
REMARK    4  A    between atoms: C_8  and  C_9
REMARK    5  A    between atoms: C_18  and  C_19
REMARK    6  A    between atoms: C_18  and  C_25
REMARK                            x       y       z     vdW  Elec       q    Type
REMARK                         _______ _______ _______ _____ _____    ______ ____
ROOT
ATOM      1  O   UNL     1       3.944   7.808  17.750  0.00  0.00    +0.000 OA
ATOM      2  C   UNL     1       3.037   7.033  18.053  0.00  0.00    +0.000 C 
ATOM      3  N   UNL     1       1.802   7.427  18.543  0.00  0.00    +0.000 N 
ATOM      4  H   UNL     1       1.134   6.715  18.804  0.00  0.00    +0.000 HD
ENDROOT
BRANCH   3   5
ATOM      5  C   UNL     1       1.445   8.734  18.807  0.00  0.00    +0.000 A 
ATOM      6  C   UNL     1       1.351   9.874  17.983  0.00  0.00    +0.000 A 
ATOM      7  N   UNL     1       1.062  10.981  18.678  0.00  0.00    +0.000 NA
ATOM      8  N   UNL     1       1.001  10.551  19.954  0.00  0.00    +0.000 N 
ATOM      9  C   UNL     1       1.123   9.190  20.063  0.00  0.00    +0.000 A 
BRANCH   8  10
ATOM     10  C   UNL     1       1.068  11.512  21.054  0.00  0.00    +0.000 C 
BRANCH  10  11
ATOM     11  C   UNL     1      -0.290  11.870  21.602  0.00  0.00    +0.000 A 
ATOM     12  C   UNL     1      -1.034  12.943  21.076  0.00  0.00    +0.000 A 
ATOM     13 CL   UNL     1      -0.485  13.875  19.724  0.00  0.00    +0.000 Cl
ATOM     14  C   UNL     1      -2.281  13.293  21.609  0.00  0.00    +0.000 A 
ATOM     15  C   UNL     1      -2.813  12.580  22.678  0.00  0.00    +0.000 A 
ATOM     16  C   UNL     1      -2.105  11.504  23.201  0.00  0.00    +0.000 A 
ATOM     17  C   UNL     1      -0.859  11.148  22.669  0.00  0.00    +0.000 A 
ATOM     18 CL   UNL     1      -0.098   9.757  23.360  0.00  0.00    +0.000 Cl
ENDBRANCH  10  11
ENDBRANCH   8  10
ENDBRANCH   3   5
BRANCH   2  19
ATOM     19  C   UNL     1       3.199   5.510  17.873  0.00  0.00    +0.000 C 
BRANCH  19  20
ATOM     20  C   UNL     1       4.658   5.123  17.589  0.00  0.00    +0.000 A 
ATOM     21  C   UNL     1       5.080   4.610  16.349  0.00  0.00    +0.000 A 
ATOM     22  C   UNL     1       6.427   4.335  16.107  0.00  0.00    +0.000 A 
ATOM     23  C   UNL     1       7.379   4.562  17.103  0.00  0.00    +0.000 A 
ATOM     24  C   UNL     1       6.975   5.043  18.346  0.00  0.00    +0.000 A 
ATOM     25  C   UNL     1       5.627   5.313  18.591  0.00  0.00    +0.000 A 
ENDBRANCH  19  20
BRANCH  19  26
ATOM     26  C   UNL     1       2.512   4.656  18.949  0.00  0.00    +0.000 A 
ATOM     27  C   UNL     1       2.774   4.804  20.322  0.00  0.00    +0.000 A 
ATOM     28  C   UNL     1       2.132   3.998  21.266  0.00  0.00    +0.000 A 
ATOM     29  C   UNL     1       1.198   3.049  20.860  0.00  0.00    +0.000 A 
ATOM     30  C   UNL     1       0.887   2.920  19.511  0.00  0.00    +0.000 A 
ATOM     31  C   UNL     1       1.528   3.723  18.565  0.00  0.00    +0.000 A 
ENDBRANCH  19  26
ENDBRANCH   2  19
TORSDOF 6
ENDMDL
MODEL 2
REMARK VINA RESULT:      -8.7      0.098      1.672
REMARK  Name = 
REMARK  6 active torsions:
REMARK  status: ('A' for Active; 'I' for Inactive)
REMARK    1  A    between atoms: C_2  and  C_18
REMARK    2  A    between atoms: N_3  and  C_4
REMARK    3  A    between atoms: N_7  and  C_8
REMARK    4  A    between atoms: C_8  and  C_9
REMARK    5  A    between atoms: C_18  and  C_19
REMARK    6  A    between atoms: C_18  and  C_25
REMARK                            x       y       z     vdW  Elec       q    Type
REMARK                         _______ _______ _______ _____ _____    ______ ____
ROOT
ATOM      1  O   UNL     1       3.885   7.792  17.616  0.00  0.00    +0.000 OA
ATOM      2  C   UNL     1       3.014   7.009  17.997  0.00  0.00    +0.000 C 
ATOM      3  N   UNL     1       1.810   7.393  18.567  0.00  0.00    +0.000 N 
ATOM      4  H   UNL     1       1.175   6.676  18.888  0.00  0.00    +0.000 HD
ENDROOT
BRANCH   3   5
ATOM      5  C   UNL     1       1.453   8.699  18.833  0.00  0.00    +0.000 A 
ATOM      6  C   UNL     1       1.327   9.833  18.005  0.00  0.00    +0.000 A 
ATOM      7  N   UNL     1       1.050  10.942  18.701  0.00  0.00    +0.000 NA
ATOM      8  N   UNL     1       1.028  10.520  19.981  0.00  0.00    +0.000 N 
ATOM      9  C   UNL     1       1.163   9.161  20.094  0.00  0.00    +0.000 A 
BRANCH   8  10
ATOM     10  C   UNL     1       1.119  11.488  21.073  0.00  0.00    +0.000 C 
BRANCH  10  11
ATOM     11  C   UNL     1      -0.230  11.891  21.612  0.00  0.00    +0.000 A 
ATOM     12  C   UNL     1      -0.867  11.152  22.627  0.00  0.00    +0.000 A 
ATOM     13 CL   UNL     1      -0.122   9.780  23.377  0.00  0.00    +0.000 Cl
ATOM     14  C   UNL     1      -2.134  11.511  23.103  0.00  0.00    +0.000 A 
ATOM     15  C   UNL     1      -2.793  12.616  22.577  0.00  0.00    +0.000 A 
ATOM     16  C   UNL     1      -2.176  13.374  21.588  0.00  0.00    +0.000 A 
ATOM     17  C   UNL     1      -0.907  13.021  21.112  0.00  0.00    +0.000 A 
ATOM     18 CL   UNL     1      -0.213  14.069  19.924  0.00  0.00    +0.000 Cl
ENDBRANCH  10  11
ENDBRANCH   8  10
ENDBRANCH   3   5
BRANCH   2  19
ATOM     19  C   UNL     1       3.188   5.485  17.832  0.00  0.00    +0.000 C 
BRANCH  19  20
ATOM     20  C   UNL     1       4.651   5.106  17.560  0.00  0.00    +0.000 A 
ATOM     21  C   UNL     1       5.091   4.623  16.314  0.00  0.00    +0.000 A 
ATOM     22  C   UNL     1       6.442   4.355  16.085  0.00  0.00    +0.000 A 
ATOM     23  C   UNL     1       7.379   4.558  17.100  0.00  0.00    +0.000 A 
ATOM     24  C   UNL     1       6.957   5.008  18.349  0.00  0.00    +0.000 A 
ATOM     25  C   UNL     1       5.605   5.271  18.581  0.00  0.00    +0.000 A 
ENDBRANCH  19  20
BRANCH  19  26
ATOM     26  C   UNL     1       2.501   4.637  18.913  0.00  0.00    +0.000 A 
ATOM     27  C   UNL     1       2.744   4.808  20.286  0.00  0.00    +0.000 A 
ATOM     28  C   UNL     1       2.104   4.006  21.235  0.00  0.00    +0.000 A 
ATOM     29  C   UNL     1       1.189   3.038  20.831  0.00  0.00    +0.000 A 
ATOM     30  C   UNL     1       0.895   2.884  19.481  0.00  0.00    +0.000 A 
ATOM     31  C   UNL     1       1.536   3.683  18.531  0.00  0.00    +0.000 A 
ENDBRANCH  19  26
ENDBRANCH   2  19
TORSDOF 6
ENDMDL
MODEL 3
REMARK VINA RESULT:      -8.6      1.501      2.356
REMARK  Name = 
REMARK  6 active torsions:
REMARK  status: ('A' for Active; 'I' for Inactive)
REMARK    1  A    between atoms: C_2  and  C_18
REMARK    2  A    between atoms: N_3  and  C_4
REMARK    3  A    between atoms: N_7  and  C_8
REMARK    4  A    between atoms: C_8  and  C_9
REMARK    5  A    between atoms: C_18  and  C_19
REMARK    6  A    between atoms: C_18  and  C_25
REMARK                            x       y       z     vdW  Elec       q    Type
REMARK                         _______ _______ _______ _____ _____    ______ ____
ROOT
ATOM      1  O   UNL     1       2.525   7.369  19.709  0.00  0.00    +0.000 OA
ATOM      2  C   UNL     1       2.678   7.285  18.490  0.00  0.00    +0.000 C 
ATOM      3  N   UNL     1       2.307   8.267  17.584  0.00  0.00    +0.000 N 
ATOM      4  H   UNL     1       2.434   8.089  16.598  0.00  0.00    +0.000 HD
ENDROOT
BRANCH   3   5
ATOM      5  C   UNL     1       1.669   9.443  17.923  0.00  0.00    +0.000 A 
ATOM      6  C   UNL     1       2.155  10.684  18.384  0.00  0.00    +0.000 A 
ATOM      7  N   UNL     1       1.167  11.533  18.693  0.00  0.00    +0.000 NA
ATOM      8  N   UNL     1       0.047  10.821  18.455  0.00  0.00    +0.000 N 
ATOM      9  C   UNL     1       0.304   9.597  17.894  0.00  0.00    +0.000 A 
BRANCH   8  10
ATOM     10  C   UNL     1      -1.231  11.262  19.010  0.00  0.00    +0.000 C 
BRANCH  10  11
ATOM     11  C   UNL     1      -1.117  11.741  20.435  0.00  0.00    +0.000 A 
ATOM     12  C   UNL     1      -0.900  10.843  21.497  0.00  0.00    +0.000 A 
ATOM     13 CL   UNL     1      -0.676   9.145  21.241  0.00  0.00    +0.000 Cl
ATOM     14  C   UNL     1      -0.827  11.288  22.823  0.00  0.00    +0.000 A 
ATOM     15  C   UNL     1      -0.968  12.639  23.118  0.00  0.00    +0.000 A 
ATOM     16  C   UNL     1      -1.162  13.549  22.084  0.00  0.00    +0.000 A 
ATOM     17  C   UNL     1      -1.233  13.108  20.756  0.00  0.00    +0.000 A 
ATOM     18 CL   UNL     1      -1.418  14.333  19.549  0.00  0.00    +0.000 Cl
ENDBRANCH  10  11
ENDBRANCH   8  10
ENDBRANCH   3   5
BRANCH   2  19
ATOM     19  C   UNL     1       3.348   6.048  17.857  0.00  0.00    +0.000 C 
BRANCH  19  20
ATOM     20  C   UNL     1       4.873   6.075  18.034  0.00  0.00    +0.000 A 
ATOM     21  C   UNL     1       5.725   6.791  17.174  0.00  0.00    +0.000 A 
ATOM     22  C   UNL     1       7.100   6.848  17.409  0.00  0.00    +0.000 A 
ATOM     23  C   UNL     1       7.652   6.183  18.505  0.00  0.00    +0.000 A 
ATOM     24  C   UNL     1       6.827   5.445  19.351  0.00  0.00    +0.000 A 
ATOM     25  C   UNL     1       5.452   5.384  19.114  0.00  0.00    +0.000 A 
ENDBRANCH  19  20
BRANCH  19  26
ATOM     26  C   UNL     1       2.689   4.706  18.209  0.00  0.00    +0.000 A 
ATOM     27  C   UNL     1       1.806   4.551  19.291  0.00  0.00    +0.000 A 
ATOM     28  C   UNL     1       1.238   3.308  19.582  0.00  0.00    +0.000 A 
ATOM     29  C   UNL     1       1.518   2.204  18.782  0.00  0.00    +0.000 A 
ATOM     30  C   UNL     1       2.350   2.346  17.676  0.00  0.00    +0.000 A 
ATOM     31  C   UNL     1       2.921   3.587  17.385  0.00  0.00    +0.000 A 
ENDBRANCH  19  26
ENDBRANCH   2  19
TORSDOF 6
ENDMDL
MODEL 4
REMARK VINA RESULT:      -8.6      1.952      2.645
REMARK  Name = 
REMARK  6 active torsions:
REMARK  status: ('A' for Active; 'I' for Inactive)
REMARK    1  A    between atoms: C_2  and  C_18
REMARK    2  A    between atoms: N_3  and  C_4
REMARK    3  A    between atoms: N_7  and  C_8
REMARK    4  A    between atoms: C_8  and  C_9
REMARK    5  A    between atoms: C_18  and  C_19
REMARK    6  A    between atoms: C_18  and  C_25
REMARK                            x       y       z     vdW  Elec       q    Type
REMARK                         _______ _______ _______ _____ _____    ______ ____
ROOT
ATOM      1  O   UNL     1       2.485   6.924  20.208  0.00  0.00    +0.000 OA
ATOM      2  C   UNL     1       2.506   7.041  18.983  0.00  0.00    +0.000 C 
ATOM      3  N   UNL     1       2.011   8.136  18.292  0.00  0.00    +0.000 N 
ATOM      4  H   UNL     1       2.034   8.123  17.282  0.00  0.00    +0.000 HD
ENDROOT
BRANCH   3   5
ATOM      5  C   UNL     1       1.381   9.213  18.882  0.00  0.00    +0.000 A 
ATOM      6  C   UNL     1       0.685   9.352  20.100  0.00  0.00    +0.000 A 
ATOM      7  N   UNL     1       0.137  10.565  20.237  0.00  0.00    +0.000 NA
ATOM      8  N   UNL     1       0.460  11.194  19.089  0.00  0.00    +0.000 N 
ATOM      9  C   UNL     1       1.294  10.452  18.293  0.00  0.00    +0.000 A 
BRANCH   8  10
ATOM     10  C   UNL     1      -0.253  12.406  18.693  0.00  0.00    +0.000 C 
BRANCH  10  11
ATOM     11  C   UNL     1      -1.724  12.354  19.022  0.00  0.00    +0.000 A 
ATOM     12  C   UNL     1      -2.632  11.639  18.216  0.00  0.00    +0.000 A 
ATOM     13 CL   UNL     1      -2.121  10.715  16.844  0.00  0.00    +0.000 Cl
ATOM     14  C   UNL     1      -4.002  11.619  18.506  0.00  0.00    +0.000 A 
ATOM     15  C   UNL     1      -4.496  12.311  19.607  0.00  0.00    +0.000 A 
ATOM     16  C   UNL     1      -3.616  13.007  20.429  0.00  0.00    +0.000 A 
ATOM     17  C   UNL     1      -2.245  13.027  20.144  0.00  0.00    +0.000 A 
ATOM     18 CL   UNL     1      -1.240  13.875  21.267  0.00  0.00    +0.000 Cl
ENDBRANCH  10  11
ENDBRANCH   8  10
ENDBRANCH   3   5
BRANCH   2  19
ATOM     19  C   UNL     1       3.138   5.952  18.091  0.00  0.00    +0.000 C 
BRANCH  19  20
ATOM     20  C   UNL     1       4.672   6.016  18.116  0.00  0.00    +0.000 A 
ATOM     21  C   UNL     1       5.438   5.449  19.150  0.00  0.00    +0.000 A 
ATOM     22  C   UNL     1       6.834   5.468  19.102  0.00  0.00    +0.000 A 
ATOM     23  C   UNL     1       7.490   6.060  18.023  0.00  0.00    +0.000 A 
ATOM     24  C   UNL     1       6.747   6.651  17.003  0.00  0.00    +0.000 A 
ATOM     25  C   UNL     1       5.351   6.638  17.053  0.00  0.00    +0.000 A 
ENDBRANCH  19  20
BRANCH  19  26
ATOM     26  C   UNL     1       2.556   4.543  18.283  0.00  0.00    +0.000 A 
ATOM     27  C   UNL     1       1.479   4.274  19.145  0.00  0.00    +0.000 A 
ATOM     28  C   UNL     1       0.988   2.974  19.297  0.00  0.00    +0.000 A 
ATOM     29  C   UNL     1       1.545   1.925  18.572  0.00  0.00    +0.000 A 
ATOM     30  C   UNL     1       2.579   2.177  17.676  0.00  0.00    +0.000 A 
ATOM     31  C   UNL     1       3.073   3.474  17.524  0.00  0.00    +0.000 A 
ENDBRANCH  19  26
ENDBRANCH   2  19
TORSDOF 6
ENDMDL
MODEL 5
REMARK VINA RESULT:      -8.6      1.967      2.613
REMARK  Name = 
REMARK  6 active torsions:
REMARK  status: ('A' for Active; 'I' for Inactive)
REMARK    1  A    between atoms: C_2  and  C_18
REMARK    2  A    between atoms: N_3  and  C_4
REMARK    3  A    between atoms: N_7  and  C_8
REMARK    4  A    between atoms: C_8  and  C_9
REMARK    5  A    between atoms: C_18  and  C_19
REMARK    6  A    between atoms: C_18  and  C_25
REMARK                            x       y       z     vdW  Elec       q    Type
REMARK                         _______ _______ _______ _____ _____    ______ ____
ROOT
ATOM      1  O   UNL     1       2.582   6.959  20.157  0.00  0.00    +0.000 OA
ATOM      2  C   UNL     1       2.561   7.069  18.931  0.00  0.00    +0.000 C 
ATOM      3  N   UNL     1       2.034   8.155  18.251  0.00  0.00    +0.000 N 
ATOM      4  H   UNL     1       2.023   8.137  17.241  0.00  0.00    +0.000 HD
ENDROOT
BRANCH   3   5
ATOM      5  C   UNL     1       1.416   9.231  18.856  0.00  0.00    +0.000 A 
ATOM      6  C   UNL     1       0.757   9.370  20.095  0.00  0.00    +0.000 A 
ATOM      7  N   UNL     1       0.205  10.581  20.243  0.00  0.00    +0.000 NA
ATOM      8  N   UNL     1       0.488  11.207  19.083  0.00  0.00    +0.000 N 
ATOM      9  C   UNL     1       1.302  10.467  18.265  0.00  0.00    +0.000 A 
BRANCH   8  10
ATOM     10  C   UNL     1      -0.246  12.413  18.704  0.00  0.00    +0.000 C 
BRANCH  10  11
ATOM     11  C   UNL     1      -1.721  12.316  18.998  0.00  0.00    +0.000 A 
ATOM     12  C   UNL     1      -2.587  11.572  18.173  0.00  0.00    +0.000 A 
ATOM     13 CL   UNL     1      -2.015  10.659  16.817  0.00  0.00    +0.000 Cl
ATOM     14  C   UNL     1      -3.962  11.511  18.430  0.00  0.00    +0.000 A 
ATOM     15  C   UNL     1      -4.504  12.191  19.515  0.00  0.00    +0.000 A 
ATOM     16  C   UNL     1      -3.666  12.916  20.356  0.00  0.00    +0.000 A 
ATOM     17  C   UNL     1      -2.290  12.977  20.105  0.00  0.00    +0.000 A 
ATOM     18 CL   UNL     1      -1.339  13.859  21.249  0.00  0.00    +0.000 Cl
ENDBRANCH  10  11
ENDBRANCH   8  10
ENDBRANCH   3   5
BRANCH   2  19
ATOM     19  C   UNL     1       3.171   5.980  18.024  0.00  0.00    +0.000 C 
BRANCH  19  20
ATOM     20  C   UNL     1       4.707   6.017  18.046  0.00  0.00    +0.000 A 
ATOM     21  C   UNL     1       5.463   6.702  17.078  0.00  0.00    +0.000 A 
ATOM     22  C   UNL     1       6.854   6.770  17.171  0.00  0.00    +0.000 A 
ATOM     23  C   UNL     1       7.517   6.148  18.230  0.00  0.00    +0.000 A 
ATOM     24  C   UNL     1       6.787   5.441  19.182  0.00  0.00    +0.000 A 
ATOM     25  C   UNL     1       5.395   5.367  19.087  0.00  0.00    +0.000 A 
ENDBRANCH  19  20
BRANCH  19  26
ATOM     26  C   UNL     1       2.565   4.579  18.201  0.00  0.00    +0.000 A 
ATOM     27  C   UNL     1       3.013   3.458  17.482  0.00  0.00    +0.000 A 
ATOM     28  C   UNL     1       2.424   2.204  17.667  0.00  0.00    +0.000 A 
ATOM     29  C   UNL     1       1.397   2.041  18.593  0.00  0.00    +0.000 A 
ATOM     30  C   UNL     1       0.972   3.127  19.351  0.00  0.00    +0.000 A 
ATOM     31  C   UNL     1       1.557   4.381  19.166  0.00  0.00    +0.000 A 
ENDBRANCH  19  26
ENDBRANCH   2  19
TORSDOF 6
ENDMDL
MODEL 6
REMARK VINA RESULT:      -8.6      2.184      4.250
REMARK  Name = 
REMARK  6 active torsions:
REMARK  status: ('A' for Active; 'I' for Inactive)
REMARK    1  A    between atoms: C_2  and  C_18
REMARK    2  A    between atoms: N_3  and  C_4
REMARK    3  A    between atoms: N_7  and  C_8
REMARK    4  A    between atoms: C_8  and  C_9
REMARK    5  A    between atoms: C_18  and  C_19
REMARK    6  A    between atoms: C_18  and  C_25
REMARK                            x       y       z     vdW  Elec       q    Type
REMARK                         _______ _______ _______ _____ _____    ______ ____
ROOT
ATOM      1  O   UNL     1       1.859   7.797  18.147  0.00  0.00    +0.000 OA
ATOM      2  C   UNL     1       2.202   7.326  19.231  0.00  0.00    +0.000 C 
ATOM      3  N   UNL     1       1.791   7.811  20.462  0.00  0.00    +0.000 N 
ATOM      4  H   UNL     1       2.160   7.384  21.301  0.00  0.00    +0.000 HD
ENDROOT
BRANCH   3   5
ATOM      5  C   UNL     1       0.986   8.919  20.637  0.00  0.00    +0.000 A 
ATOM      6  C   UNL     1      -0.093   9.178  21.507  0.00  0.00    +0.000 A 
ATOM      7  N   UNL     1      -0.664  10.365  21.269  0.00  0.00    +0.000 NA
ATOM      8  N   UNL     1       0.036  10.854  20.225  0.00  0.00    +0.000 N 
ATOM      9  C   UNL     1       1.101  10.062  19.882  0.00  0.00    +0.000 A 
BRANCH   8  10
ATOM     10  C   UNL     1      -0.504  11.960  19.436  0.00  0.00    +0.000 C 
BRANCH  10  11
ATOM     11  C   UNL     1      -1.970  11.796  19.126  0.00  0.00    +0.000 A 
ATOM     12  C   UNL     1      -2.951  12.560  19.787  0.00  0.00    +0.000 A 
ATOM     13 CL   UNL     1      -2.546  13.785  20.942  0.00  0.00    +0.000 Cl
ATOM     14  C   UNL     1      -4.314  12.383  19.519  0.00  0.00    +0.000 A 
ATOM     15  C   UNL     1      -4.729  11.441  18.585  0.00  0.00    +0.000 A 
ATOM     16  C   UNL     1      -3.778  10.689  17.903  0.00  0.00    +0.000 A 
ATOM     17  C   UNL     1      -2.413  10.865  18.166  0.00  0.00    +0.000 A 
ATOM     18 CL   UNL     1      -1.320   9.918  17.218  0.00  0.00    +0.000 Cl
ENDBRANCH  10  11
ENDBRANCH   8  10
ENDBRANCH   3   5
BRANCH   2  19
ATOM     19  C   UNL     1       3.126   6.092  19.305  0.00  0.00    +0.000 C 
BRANCH  19  20
ATOM     20  C   UNL     1       2.402   4.874  19.898  0.00  0.00    +0.000 A 
ATOM     21  C   UNL     1       1.444   4.137  19.179  0.00  0.00    +0.000 A 
ATOM     22  C   UNL     1       0.858   2.994  19.728  0.00  0.00    +0.000 A 
ATOM     23  C   UNL     1       1.213   2.571  21.009  0.00  0.00    +0.000 A 
ATOM     24  C   UNL     1       2.139   3.305  21.747  0.00  0.00    +0.000 A 
ATOM     25  C   UNL     1       2.721   4.452  21.201  0.00  0.00    +0.000 A 
ENDBRANCH  19  20
BRANCH  19  26
ATOM     26  C   UNL     1       3.915   5.800  18.020  0.00  0.00    +0.000 A 
ATOM     27  C   UNL     1       4.095   4.502  17.513  0.00  0.00    +0.000 A 
ATOM     28  C   UNL     1       4.831   4.282  16.346  0.00  0.00    +0.000 A 
ATOM     29  C   UNL     1       5.377   5.356  15.648  0.00  0.00    +0.000 A 
ATOM     30  C   UNL     1       5.169   6.653  16.104  0.00  0.00    +0.000 A 
ATOM     31  C   UNL     1       4.437   6.875  17.272  0.00  0.00    +0.000 A 
ENDBRANCH  19  26
ENDBRANCH   2  19
TORSDOF 6
ENDMDL
MODEL 7
REMARK VINA RESULT:      -8.5      0.215      2.087
REMARK  Name = 
REMARK  6 active torsions:
REMARK  status: ('A' for Active; 'I' for Inactive)
REMARK    1  A    between atoms: C_2  and  C_18
REMARK    2  A    between atoms: N_3  and  C_4
REMARK    3  A    between atoms: N_7  and  C_8
REMARK    4  A    between atoms: C_8  and  C_9
REMARK    5  A    between atoms: C_18  and  C_19
REMARK    6  A    between atoms: C_18  and  C_25
REMARK                            x       y       z     vdW  Elec       q    Type
REMARK                         _______ _______ _______ _____ _____    ______ ____
ROOT
ATOM      1  O   UNL     1       3.922   7.982  17.814  0.00  0.00    +0.000 OA
ATOM      2  C   UNL     1       3.024   7.171  18.044  0.00  0.00    +0.000 C 
ATOM      3  N   UNL     1       1.761   7.510  18.503  0.00  0.00    +0.000 N 
ATOM      4  H   UNL     1       1.103   6.770  18.704  0.00  0.00    +0.000 HD
ENDROOT
BRANCH   3   5
ATOM      5  C   UNL     1       1.361   8.793  18.815  0.00  0.00    +0.000 A 
ATOM      6  C   UNL     1       1.096   9.923  18.015  0.00  0.00    +0.000 A 
ATOM      7  N   UNL     1       0.828  11.012  18.746  0.00  0.00    +0.000 NA
ATOM      8  N   UNL     1       0.951  10.582  20.018  0.00  0.00    +0.000 N 
ATOM      9  C   UNL     1       1.169   9.232  20.104  0.00  0.00    +0.000 A 
BRANCH   8  10
ATOM     10  C   UNL     1       1.095  11.548  21.105  0.00  0.00    +0.000 C 
BRANCH  10  11
ATOM     11  C   UNL     1      -0.228  11.961  21.700  0.00  0.00    +0.000 A 
ATOM     12  C   UNL     1      -0.862  11.187  22.691  0.00  0.00    +0.000 A 
ATOM     13 CL   UNL     1      -0.141   9.756  23.348  0.00  0.00    +0.000 Cl
ATOM     14  C   UNL     1      -2.106  11.556  23.217  0.00  0.00    +0.000 A 
ATOM     15  C   UNL     1      -2.744  12.707  22.768  0.00  0.00    +0.000 A 
ATOM     16  C   UNL     1      -2.128  13.499  21.805  0.00  0.00    +0.000 A 
ATOM     17  C   UNL     1      -0.883  13.135  21.278  0.00  0.00    +0.000 A 
ATOM     18 CL   UNL     1      -0.186  14.226  20.130  0.00  0.00    +0.000 Cl
ENDBRANCH  10  11
ENDBRANCH   8  10
ENDBRANCH   3   5
BRANCH   2  19
ATOM     19  C   UNL     1       3.234   5.662  17.797  0.00  0.00    +0.000 C 
BRANCH  19  20
ATOM     20  C   UNL     1       4.714   5.324  17.568  0.00  0.00    +0.000 A 
ATOM     21  C   UNL     1       5.679   5.412  18.587  0.00  0.00    +0.000 A 
ATOM     22  C   UNL     1       7.002   5.029  18.357  0.00  0.00    +0.000 A 
ATOM     23  C   UNL     1       7.387   4.558  17.101  0.00  0.00    +0.000 A 
ATOM     24  C   UNL     1       6.451   4.491  16.072  0.00  0.00    +0.000 A 
ATOM     25  C   UNL     1       5.129   4.879  16.299  0.00  0.00    +0.000 A 
ENDBRANCH  19  20
BRANCH  19  26
ATOM     26  C   UNL     1       2.517   4.740  18.795  0.00  0.00    +0.000 A 
ATOM     27  C   UNL     1       1.741   3.639  18.394  0.00  0.00    +0.000 A 
ATOM     28  C   UNL     1       1.097   2.833  19.337  0.00  0.00    +0.000 A 
ATOM     29  C   UNL     1       1.238   3.095  20.697  0.00  0.00    +0.000 A 
ATOM     30  C   UNL     1       2.041   4.150  21.118  0.00  0.00    +0.000 A 
ATOM     31  C   UNL     1       2.683   4.959  20.178  0.00  0.00    +0.000 A 
ENDBRANCH  19  26
ENDBRANCH   2  19
TORSDOF 6
ENDMDL
MODEL 8
REMARK VINA RESULT:      -8.5      1.227      1.550
REMARK  Name = 
REMARK  6 active torsions:
REMARK  status: ('A' for Active; 'I' for Inactive)
REMARK    1  A    between atoms: C_2  and  C_18
REMARK    2  A    between atoms: N_3  and  C_4
REMARK    3  A    between atoms: N_7  and  C_8
REMARK    4  A    between atoms: C_8  and  C_9
REMARK    5  A    between atoms: C_18  and  C_19
REMARK    6  A    between atoms: C_18  and  C_25
REMARK                            x       y       z     vdW  Elec       q    Type
REMARK                         _______ _______ _______ _____ _____    ______ ____
ROOT
ATOM      1  O   UNL     1       2.395   7.126  20.094  0.00  0.00    +0.000 OA
ATOM      2  C   UNL     1       2.403   7.123  18.863  0.00  0.00    +0.000 C 
ATOM      3  N   UNL     1       1.847   8.118  18.074  0.00  0.00    +0.000 N 
ATOM      4  H   UNL     1       1.865   8.007  17.069  0.00  0.00    +0.000 HD
ENDROOT
BRANCH   3   5
ATOM      5  C   UNL     1       1.164   9.214  18.562  0.00  0.00    +0.000 A 
ATOM      6  C   UNL     1       0.311  10.150  17.943  0.00  0.00    +0.000 A 
ATOM      7  N   UNL     1      -0.061  11.127  18.778  0.00  0.00    +0.000 NA
ATOM      8  N   UNL     1       0.579  10.829  19.926  0.00  0.00    +0.000 N 
ATOM      9  C   UNL     1       1.243   9.631  19.869  0.00  0.00    +0.000 A 
BRANCH   8  10
ATOM     10  C   UNL     1       0.723  11.844  20.968  0.00  0.00    +0.000 C 
BRANCH  10  11
ATOM     11  C   UNL     1      -0.580  12.172  21.651  0.00  0.00    +0.000 A 
ATOM     12  C   UNL     1      -1.331  13.309  21.295  0.00  0.00    +0.000 A 
ATOM     13 CL   UNL     1      -0.855  14.365  20.008  0.00  0.00    +0.000 Cl
ATOM     14  C   UNL     1      -2.525  13.628  21.953  0.00  0.00    +0.000 A 
ATOM     15  C   UNL     1      -2.997  12.819  22.980  0.00  0.00    +0.000 A 
ATOM     16  C   UNL     1      -2.285  11.679  23.336  0.00  0.00    +0.000 A 
ATOM     17  C   UNL     1      -1.092  11.354  22.678  0.00  0.00    +0.000 A 
ATOM     18 CL   UNL     1      -0.322   9.884  23.164  0.00  0.00    +0.000 Cl
ENDBRANCH  10  11
ENDBRANCH   8  10
ENDBRANCH   3   5
BRANCH   2  19
ATOM     19  C   UNL     1       3.087   5.987  18.075  0.00  0.00    +0.000 C 
BRANCH  19  20
ATOM     20  C   UNL     1       4.617   6.062  18.181  0.00  0.00    +0.000 A 
ATOM     21  C   UNL     1       5.343   5.386  19.178  0.00  0.00    +0.000 A 
ATOM     22  C   UNL     1       6.738   5.424  19.200  0.00  0.00    +0.000 A 
ATOM     23  C   UNL     1       7.435   6.144  18.229  0.00  0.00    +0.000 A 
ATOM     24  C   UNL     1       6.732   6.843  17.251  0.00  0.00    +0.000 A 
ATOM     25  C   UNL     1       5.336   6.811  17.231  0.00  0.00    +0.000 A 
ENDBRANCH  19  20
BRANCH  19  26
ATOM     26  C   UNL     1       2.499   4.589  18.320  0.00  0.00    +0.000 A 
ATOM     27  C   UNL     1       1.553   4.324  19.324  0.00  0.00    +0.000 A 
ATOM     28  C   UNL     1       1.053   3.034  19.519  0.00  0.00    +0.000 A 
ATOM     29  C   UNL     1       1.468   1.990  18.696  0.00  0.00    +0.000 A 
ATOM     30  C   UNL     1       2.366   2.239  17.664  0.00  0.00    +0.000 A 
ATOM     31  C   UNL     1       2.869   3.527  17.469  0.00  0.00    +0.000 A 
ENDBRANCH  19  26
ENDBRANCH   2  19
TORSDOF 6
ENDMDL
MODEL 9
REMARK VINA RESULT:      -8.5      2.210      4.265
REMARK  Name = 
REMARK  6 active torsions:
REMARK  status: ('A' for Active; 'I' for Inactive)
REMARK    1  A    between atoms: C_2  and  C_18
REMARK    2  A    between atoms: N_3  and  C_4
REMARK    3  A    between atoms: N_7  and  C_8
REMARK    4  A    between atoms: C_8  and  C_9
REMARK    5  A    between atoms: C_18  and  C_19
REMARK    6  A    between atoms: C_18  and  C_25
REMARK                            x       y       z     vdW  Elec       q    Type
REMARK                         _______ _______ _______ _____ _____    ______ ____
ROOT
ATOM      1  O   UNL     1       2.015   7.771  18.257  0.00  0.00    +0.000 OA
ATOM      2  C   UNL     1       2.257   7.300  19.368  0.00  0.00    +0.000 C 
ATOM      3  N   UNL     1       1.761   7.807  20.559  0.00  0.00    +0.000 N 
ATOM      4  H   UNL     1       2.049   7.378  21.427  0.00  0.00    +0.000 HD
ENDROOT
BRANCH   3   5
ATOM      5  C   UNL     1       0.976   8.938  20.660  0.00  0.00    +0.000 A 
ATOM      6  C   UNL     1      -0.076   9.285  21.532  0.00  0.00    +0.000 A 
ATOM      7  N   UNL     1      -0.637  10.457  21.211  0.00  0.00    +0.000 NA
ATOM      8  N   UNL     1       0.041  10.846  20.111  0.00  0.00    +0.000 N 
ATOM      9  C   UNL     1       1.085  10.012  19.809  0.00  0.00    +0.000 A 
BRANCH   8  10
ATOM     10  C   UNL     1      -0.505  11.890  19.247  0.00  0.00    +0.000 C 
BRANCH  10  11
ATOM     11  C   UNL     1      -1.990  11.751  19.027  0.00  0.00    +0.000 A 
ATOM     12  C   UNL     1      -2.915  12.541  19.737  0.00  0.00    +0.000 A 
ATOM     13 CL   UNL     1      -2.419  13.771  20.850  0.00  0.00    +0.000 Cl
ATOM     14  C   UNL     1      -4.295  12.387  19.554  0.00  0.00    +0.000 A 
ATOM     15  C   UNL     1      -4.782  11.442  18.658  0.00  0.00    +0.000 A 
ATOM     16  C   UNL     1      -3.888  10.665  17.930  0.00  0.00    +0.000 A 
ATOM     17  C   UNL     1      -2.507  10.818  18.107  0.00  0.00    +0.000 A 
ATOM     18 CL   UNL     1      -1.492   9.839  17.107  0.00  0.00    +0.000 Cl
ENDBRANCH  10  11
ENDBRANCH   8  10
ENDBRANCH   3   5
BRANCH   2  19
ATOM     19  C   UNL     1       3.137   6.042  19.524  0.00  0.00    +0.000 C 
BRANCH  19  20
ATOM     20  C   UNL     1       2.294   4.759  19.554  0.00  0.00    +0.000 A 
ATOM     21  C   UNL     1       1.859   4.110  18.384  0.00  0.00    +0.000 A 
ATOM     22  C   UNL     1       1.153   2.907  18.451  0.00  0.00    +0.000 A 
ATOM     23  C   UNL     1       0.862   2.333  19.689  0.00  0.00    +0.000 A 
ATOM     24  C   UNL     1       1.260   2.976  20.859  0.00  0.00    +0.000 A 
ATOM     25  C   UNL     1       1.961   4.183  20.793  0.00  0.00    +0.000 A 
ENDBRANCH  19  20
BRANCH  19  26
ATOM     26  C   UNL     1       4.352   5.985  18.587  0.00  0.00    +0.000 A 
ATOM     27  C   UNL     1       4.360   6.575  17.312  0.00  0.00    +0.000 A 
ATOM     28  C   UNL     1       5.485   6.489  16.487  0.00  0.00    +0.000 A 
ATOM     29  C   UNL     1       6.632   5.837  16.931  0.00  0.00    +0.000 A 
ATOM     30  C   UNL     1       6.663   5.288  18.209  0.00  0.00    +0.000 A 
ATOM     31  C   UNL     1       5.540   5.371  19.034  0.00  0.00    +0.000 A 
ENDBRANCH  19  26
ENDBRANCH   2  19
TORSDOF 6
ENDMDL
