MODEL 1
REMARK VINA RESULT:      -6.0      0.000      0.000
REMARK  Name = 
REMARK  5 active torsions:
REMARK  status: ('A' for Active; 'I' for Inactive)
REMARK    1  A    between atoms: C_1  and  N_2
REMARK    2  A    between atoms: C_3  and  C_4
REMARK    3  A    between atoms: C_4  and  C_5
REMARK    4  A    between atoms: C_4  and  C_6
REMARK    5  A    between atoms: C_4  and  O_7
REMARK                            x       y       z     vdW  Elec       q    Type
REMARK                         _______ _______ _______ _____ _____    ______ ____
ROOT
ATOM      1  C   UNL     1       5.001   6.141  16.251  0.00  0.00    +0.000 C 
ATOM      2  N   UNL     1       5.192   5.524  17.545  0.00  0.00    +0.000 N 
ATOM      3  C   UNL     1       4.298   5.501  18.612  0.00  0.00    +0.000 A 
ATOM      4  C   UNL     1       5.007   4.881  19.631  0.00  0.00    +0.000 A 
ATOM      5  N   UNL     1       6.243   4.479  19.222  0.00  0.00    +0.000 NA
ATOM      6  C   UNL     1       6.327   4.861  17.966  0.00  0.00    +0.000 A 
ATOM      7  N   UNL     1       7.495   4.590  17.158  0.00  0.00    +0.000 N 
ATOM      8  O   UNL     1       7.458   4.910  15.962  0.00  0.00    +0.000 OA
ATOM      9  O   UNL     1       8.457   4.050  17.716  0.00  0.00    +0.000 OA
ENDROOT
BRANCH   3  10
ATOM     10  C   UNL     1       2.908   6.081  18.666  0.00  0.00    +0.000 C 
ATOM     11  C   UNL     1       2.849   7.495  18.067  0.00  0.00    +0.000 C 
ATOM     12  C   UNL     1       1.909   5.173  17.949  0.00  0.00    +0.000 C 
BRANCH  10  13
ATOM     13  O   UNL     1       2.535   6.186  20.036  0.00  0.00    +0.000 OA
ATOM     14  H   UNL     1       2.528   5.289  20.410  0.00  0.00    +0.000 HD
ENDBRANCH  10  13
ENDBRANCH   3  10
TORSDOF 2
ENDMDL
MODEL 2
REMARK VINA RESULT:      -5.9      0.916      1.247
REMARK  Name = 
REMARK  5 active torsions:
REMARK  status: ('A' for Active; 'I' for Inactive)
REMARK    1  A    between atoms: C_1  and  N_2
REMARK    2  A    between atoms: C_3  and  C_4
REMARK    3  A    between atoms: C_4  and  C_5
REMARK    4  A    between atoms: C_4  and  C_6
REMARK    5  A    between atoms: C_4  and  O_7
REMARK                            x       y       z     vdW  Elec       q    Type
REMARK                         _______ _______ _______ _____ _____    ______ ____
ROOT
ATOM      1  C   UNL     1       4.811   6.265  16.493  0.00  0.00    +0.000 C 
ATOM      2  N   UNL     1       4.968   5.368  17.617  0.00  0.00    +0.000 N 
ATOM      3  C   UNL     1       4.008   5.022  18.564  0.00  0.00    +0.000 A 
ATOM      4  C   UNL     1       4.698   4.227  19.467  0.00  0.00    +0.000 A 
ATOM      5  N   UNL     1       5.991   4.027  19.088  0.00  0.00    +0.000 NA
ATOM      6  C   UNL     1       6.127   4.707  17.969  0.00  0.00    +0.000 A 
ATOM      7  N   UNL     1       7.369   4.726  17.228  0.00  0.00    +0.000 N 
ATOM      8  O   UNL     1       7.385   5.322  16.143  0.00  0.00    +0.000 OA
ATOM      9  O   UNL     1       8.335   4.137  17.727  0.00  0.00    +0.000 OA
ENDROOT
BRANCH   3  10
ATOM     10  C   UNL     1       2.570   5.469  18.628  0.00  0.00    +0.000 C 
ATOM     11  C   UNL     1       1.666   4.643  17.700  0.00  0.00    +0.000 C 
ATOM     12  C   UNL     1       2.040   5.404  20.060  0.00  0.00    +0.000 C 
BRANCH  10  13
ATOM     13  O   UNL     1       2.516   6.820  18.177  0.00  0.00    +0.000 OA
ATOM     14  H   UNL     1       2.387   7.386  18.956  0.00  0.00    +0.000 HD
ENDBRANCH  10  13
ENDBRANCH   3  10
TORSDOF 2
ENDMDL
MODEL 3
REMARK VINA RESULT:      -5.8      1.041      1.398
REMARK  Name = 
REMARK  5 active torsions:
REMARK  status: ('A' for Active; 'I' for Inactive)
REMARK    1  A    between atoms: C_1  and  N_2
REMARK    2  A    between atoms: C_3  and  C_4
REMARK    3  A    between atoms: C_4  and  C_5
REMARK    4  A    between atoms: C_4  and  C_6
REMARK    5  A    between atoms: C_4  and  O_7
REMARK                            x       y       z     vdW  Elec       q    Type
REMARK                         _______ _______ _______ _____ _____    ______ ____
ROOT
ATOM      1  C   UNL     1       4.732   6.660  16.647  0.00  0.00    +0.000 C 
ATOM      2  N   UNL     1       4.922   5.626  17.641  0.00  0.00    +0.000 N 
ATOM      3  C   UNL     1       4.017   5.212  18.615  0.00  0.00    +0.000 A 
ATOM      4  C   UNL     1       4.728   4.282  19.360  0.00  0.00    +0.000 A 
ATOM      5  N   UNL     1       5.976   4.071  18.857  0.00  0.00    +0.000 NA
ATOM      6  C   UNL     1       6.066   4.876  17.819  0.00  0.00    +0.000 A 
ATOM      7  N   UNL     1       7.248   4.927  16.988  0.00  0.00    +0.000 N 
ATOM      8  O   UNL     1       7.216   5.650  15.983  0.00  0.00    +0.000 OA
ATOM      9  O   UNL     1       8.215   4.238  17.335  0.00  0.00    +0.000 OA
ENDROOT
BRANCH   3  10
ATOM     10  C   UNL     1       2.615   5.714  18.847  0.00  0.00    +0.000 C 
ATOM     11  C   UNL     1       2.028   5.198  20.169  0.00  0.00    +0.000 C 
ATOM     12  C   UNL     1       2.569   7.242  18.821  0.00  0.00    +0.000 C 
BRANCH  10  13
ATOM     13  O   UNL     1       1.796   5.210  17.796  0.00  0.00    +0.000 OA
ATOM     14  H   UNL     1       1.154   5.902  17.564  0.00  0.00    +0.000 HD
ENDBRANCH  10  13
ENDBRANCH   3  10
TORSDOF 2
ENDMDL
MODEL 4
REMARK VINA RESULT:      -5.8      2.403      2.700
REMARK  Name = 
REMARK  5 active torsions:
REMARK  status: ('A' for Active; 'I' for Inactive)
REMARK    1  A    between atoms: C_1  and  N_2
REMARK    2  A    between atoms: C_3  and  C_4
REMARK    3  A    between atoms: C_4  and  C_5
REMARK    4  A    between atoms: C_4  and  C_6
REMARK    5  A    between atoms: C_4  and  O_7
REMARK                            x       y       z     vdW  Elec       q    Type
REMARK                         _______ _______ _______ _____ _____    ______ ____
ROOT
ATOM      1  C   UNL     1       5.364   4.121  15.901  0.00  0.00    +0.000 C 
ATOM      2  N   UNL     1       5.414   4.454  17.307  0.00  0.00    +0.000 N 
ATOM      3  C   UNL     1       4.643   3.915  18.333  0.00  0.00    +0.000 A 
ATOM      4  C   UNL     1       5.012   4.648  19.452  0.00  0.00    +0.000 A 
ATOM      5  N   UNL     1       5.997   5.546  19.172  0.00  0.00    +0.000 NA
ATOM      6  C   UNL     1       6.233   5.404  17.885  0.00  0.00    +0.000 A 
ATOM      7  N   UNL     1       7.248   6.173  17.201  0.00  0.00    +0.000 N 
ATOM      8  O   UNL     1       7.462   5.916  16.009  0.00  0.00    +0.000 OA
ATOM      9  O   UNL     1       7.841   7.037  17.856  0.00  0.00    +0.000 OA
ENDROOT
BRANCH   3  10
ATOM     10  C   UNL     1       3.597   2.835  18.232  0.00  0.00    +0.000 C 
ATOM     11  C   UNL     1       3.007   2.472  19.603  0.00  0.00    +0.000 C 
ATOM     12  C   UNL     1       2.475   3.247  17.279  0.00  0.00    +0.000 C 
BRANCH  10  13
ATOM     13  O   UNL     1       4.230   1.665  17.721  0.00  0.00    +0.000 OA
ATOM     14  H   UNL     1       4.561   1.154  18.479  0.00  0.00    +0.000 HD
ENDBRANCH  10  13
ENDBRANCH   3  10
TORSDOF 2
ENDMDL
MODEL 5
REMARK VINA RESULT:      -5.8      2.165      2.717
REMARK  Name = 
REMARK  5 active torsions:
REMARK  status: ('A' for Active; 'I' for Inactive)
REMARK    1  A    between atoms: C_1  and  N_2
REMARK    2  A    between atoms: C_3  and  C_4
REMARK    3  A    between atoms: C_4  and  C_5
REMARK    4  A    between atoms: C_4  and  C_6
REMARK    5  A    between atoms: C_4  and  O_7
REMARK                            x       y       z     vdW  Elec       q    Type
REMARK                         _______ _______ _______ _____ _____    ______ ____
ROOT
ATOM      1  C   UNL     1       3.432   6.053  18.038  0.00  0.00    +0.000 C 
ATOM      2  N   UNL     1       3.908   4.806  18.595  0.00  0.00    +0.000 N 
ATOM      3  C   UNL     1       3.146   3.711  18.995  0.00  0.00    +0.000 A 
ATOM      4  C   UNL     1       4.074   2.839  19.544  0.00  0.00    +0.000 A 
ATOM      5  N   UNL     1       5.346   3.315  19.442  0.00  0.00    +0.000 NA
ATOM      6  C   UNL     1       5.225   4.488  18.857  0.00  0.00    +0.000 A 
ATOM      7  N   UNL     1       6.372   5.311  18.542  0.00  0.00    +0.000 N 
ATOM      8  O   UNL     1       6.175   6.360  17.916  0.00  0.00    +0.000 OA
ATOM      9  O   UNL     1       7.479   4.906  18.916  0.00  0.00    +0.000 OA
ENDROOT
BRANCH   3  10
ATOM     10  C   UNL     1       1.650   3.549  18.914  0.00  0.00    +0.000 C 
ATOM     11  C   UNL     1       1.229   2.071  18.913  0.00  0.00    +0.000 C 
ATOM     12  C   UNL     1       0.957   4.283  20.062  0.00  0.00    +0.000 C 
BRANCH  10  13
ATOM     13  O   UNL     1       1.219   4.112  17.678  0.00  0.00    +0.000 OA
ATOM     14  H   UNL     1       1.966   4.611  17.305  0.00  0.00    +0.000 HD
ENDBRANCH  10  13
ENDBRANCH   3  10
TORSDOF 2
ENDMDL
MODEL 6
REMARK VINA RESULT:      -5.7      2.406      2.935
REMARK  Name = 
REMARK  5 active torsions:
REMARK  status: ('A' for Active; 'I' for Inactive)
REMARK    1  A    between atoms: C_1  and  N_2
REMARK    2  A    between atoms: C_3  and  C_4
REMARK    3  A    between atoms: C_4  and  C_5
REMARK    4  A    between atoms: C_4  and  C_6
REMARK    5  A    between atoms: C_4  and  O_7
REMARK                            x       y       z     vdW  Elec       q    Type
REMARK                         _______ _______ _______ _____ _____    ______ ____
ROOT
ATOM      1  C   UNL     1       2.910   5.456  18.260  0.00  0.00    +0.000 C 
ATOM      2  N   UNL     1       3.567   4.364  18.944  0.00  0.00    +0.000 N 
ATOM      3  C   UNL     1       2.993   3.444  19.818  0.00  0.00    +0.000 A 
ATOM      4  C   UNL     1       4.068   2.690  20.265  0.00  0.00    +0.000 A 
ATOM      5  N   UNL     1       5.235   3.060  19.668  0.00  0.00    +0.000 NA
ATOM      6  C   UNL     1       4.910   4.055  18.871  0.00  0.00    +0.000 A 
ATOM      7  N   UNL     1       5.884   4.713  18.028  0.00  0.00    +0.000 N 
ATOM      8  O   UNL     1       5.478   5.583  17.247  0.00  0.00    +0.000 OA
ATOM      9  O   UNL     1       7.063   4.358  18.142  0.00  0.00    +0.000 OA
ENDROOT
BRANCH   3  10
ATOM     10  C   UNL     1       1.548   3.343  20.233  0.00  0.00    +0.000 C 
ATOM     11  C   UNL     1       0.679   2.689  19.149  0.00  0.00    +0.000 C 
ATOM     12  C   UNL     1       1.409   2.569  21.545  0.00  0.00    +0.000 C 
BRANCH  10  13
ATOM     13  O   UNL     1       1.059   4.667  20.425  0.00  0.00    +0.000 OA
ATOM     14  H   UNL     1       0.716   4.727  21.333  0.00  0.00    +0.000 HD
ENDBRANCH  10  13
ENDBRANCH   3  10
TORSDOF 2
ENDMDL
MODEL 7
REMARK VINA RESULT:      -5.7      2.197      2.497
REMARK  Name = 
REMARK  5 active torsions:
REMARK  status: ('A' for Active; 'I' for Inactive)
REMARK    1  A    between atoms: C_1  and  N_2
REMARK    2  A    between atoms: C_3  and  C_4
REMARK    3  A    between atoms: C_4  and  C_5
REMARK    4  A    between atoms: C_4  and  C_6
REMARK    5  A    between atoms: C_4  and  O_7
REMARK                            x       y       z     vdW  Elec       q    Type
REMARK                         _______ _______ _______ _____ _____    ______ ____
ROOT
ATOM      1  C   UNL     1       4.453   4.069  16.134  0.00  0.00    +0.000 C 
ATOM      2  N   UNL     1       4.639   3.887  17.557  0.00  0.00    +0.000 N 
ATOM      3  C   UNL     1       3.689   3.480  18.490  0.00  0.00    +0.000 A 
ATOM      4  C   UNL     1       4.352   3.571  19.706  0.00  0.00    +0.000 A 
ATOM      5  N   UNL     1       5.652   3.946  19.552  0.00  0.00    +0.000 NA
ATOM      6  C   UNL     1       5.807   4.117  18.256  0.00  0.00    +0.000 A 
ATOM      7  N   UNL     1       7.077   4.496  17.678  0.00  0.00    +0.000 N 
ATOM      8  O   UNL     1       7.156   4.553  16.444  0.00  0.00    +0.000 OA
ATOM      9  O   UNL     1       8.005   4.735  18.458  0.00  0.00    +0.000 OA
ENDROOT
BRANCH   3  10
ATOM     10  C   UNL     1       2.253   3.100  18.240  0.00  0.00    +0.000 C 
ATOM     11  C   UNL     1       1.551   2.620  19.519  0.00  0.00    +0.000 C 
ATOM     12  C   UNL     1       1.476   4.267  17.629  0.00  0.00    +0.000 C 
BRANCH  10  13
ATOM     13  O   UNL     1       2.247   2.011  17.321  0.00  0.00    +0.000 OA
ATOM     14  H   UNL     1       2.936   2.182  16.656  0.00  0.00    +0.000 HD
ENDBRANCH  10  13
ENDBRANCH   3  10
TORSDOF 2
ENDMDL
MODEL 8
REMARK VINA RESULT:      -5.6      2.731      4.934
REMARK  Name = 
REMARK  5 active torsions:
REMARK  status: ('A' for Active; 'I' for Inactive)
REMARK    1  A    between atoms: C_1  and  N_2
REMARK    2  A    between atoms: C_3  and  C_4
REMARK    3  A    between atoms: C_4  and  C_5
REMARK    4  A    between atoms: C_4  and  C_6
REMARK    5  A    between atoms: C_4  and  O_7
REMARK                            x       y       z     vdW  Elec       q    Type
REMARK                         _______ _______ _______ _____ _____    ______ ____
ROOT
ATOM      1  C   UNL     1       2.310   5.246  18.434  0.00  0.00    +0.000 C 
ATOM      2  N   UNL     1       3.110   4.240  19.097  0.00  0.00    +0.000 N 
ATOM      3  C   UNL     1       4.428   3.887  18.819  0.00  0.00    +0.000 A 
ATOM      4  C   UNL     1       4.674   2.814  19.664  0.00  0.00    +0.000 A 
ATOM      5  N   UNL     1       3.609   2.544  20.470  0.00  0.00    +0.000 NA
ATOM      6  C   UNL     1       2.689   3.419  20.124  0.00  0.00    +0.000 A 
ATOM      7  N   UNL     1       1.401   3.478  20.778  0.00  0.00    +0.000 N 
ATOM      8  O   UNL     1       0.627   4.385  20.449  0.00  0.00    +0.000 OA
ATOM      9  O   UNL     1       1.160   2.616  21.631  0.00  0.00    +0.000 OA
ENDROOT
BRANCH   3  10
ATOM     10  C   UNL     1       5.347   4.488  17.787  0.00  0.00    +0.000 C 
ATOM     11  C   UNL     1       4.967   4.065  16.359  0.00  0.00    +0.000 C 
ATOM     12  C   UNL     1       5.360   6.013  17.888  0.00  0.00    +0.000 C 
BRANCH  10  13
ATOM     13  O   UNL     1       6.660   3.997  18.038  0.00  0.00    +0.000 OA
ATOM     14  H   UNL     1       7.046   3.735  17.185  0.00  0.00    +0.000 HD
ENDBRANCH  10  13
ENDBRANCH   3  10
TORSDOF 2
ENDMDL
MODEL 9
REMARK VINA RESULT:      -5.6      2.483      3.433
REMARK  Name = 
REMARK  5 active torsions:
REMARK  status: ('A' for Active; 'I' for Inactive)
REMARK    1  A    between atoms: C_1  and  N_2
REMARK    2  A    between atoms: C_3  and  C_4
REMARK    3  A    between atoms: C_4  and  C_5
REMARK    4  A    between atoms: C_4  and  C_6
REMARK    5  A    between atoms: C_4  and  O_7
REMARK                            x       y       z     vdW  Elec       q    Type
REMARK                         _______ _______ _______ _____ _____    ______ ____
ROOT
ATOM      1  C   UNL     1       4.575   2.679  19.607  0.00  0.00    +0.000 C 
ATOM      2  N   UNL     1       3.927   3.961  19.434  0.00  0.00    +0.000 N 
ATOM      3  C   UNL     1       2.593   4.276  19.677  0.00  0.00    +0.000 A 
ATOM      4  C   UNL     1       2.476   5.592  19.253  0.00  0.00    +0.000 A 
ATOM      5  N   UNL     1       3.666   6.100  18.831  0.00  0.00    +0.000 NA
ATOM      6  C   UNL     1       4.525   5.112  18.961  0.00  0.00    +0.000 A 
ATOM      7  N   UNL     1       5.926   5.264  18.637  0.00  0.00    +0.000 N 
ATOM      8  O   UNL     1       6.680   4.310  18.868  0.00  0.00    +0.000 OA
ATOM      9  O   UNL     1       6.281   6.345  18.152  0.00  0.00    +0.000 OA
ENDROOT
BRANCH   3  10
ATOM     10  C   UNL     1       1.513   3.370  20.209  0.00  0.00    +0.000 C 
ATOM     11  C   UNL     1       1.150   2.257  19.215  0.00  0.00    +0.000 C 
ATOM     12  C   UNL     1       1.925   2.755  21.547  0.00  0.00    +0.000 C 
BRANCH  10  13
ATOM     13  O   UNL     1       0.343   4.159  20.406  0.00  0.00    +0.000 OA
ATOM     14  H   UNL     1      -0.392   3.554  20.603  0.00  0.00    +0.000 HD
ENDBRANCH  10  13
ENDBRANCH   3  10
TORSDOF 2
ENDMDL
