MODEL 1
REMARK VINA RESULT:      -7.9      0.000      0.000
REMARK  Name = 
REMARK  4 active torsions:
REMARK  status: ('A' for Active; 'I' for Inactive)
REMARK    1  A    between atoms: N_1  and  C_2
REMARK    2  A    between atoms: C_5  and  C_6
REMARK    3  A    between atoms: C_6  and  C_8
REMARK    4  A    between atoms: C_9  and  C_10
REMARK                            x       y       z     vdW  Elec       q    Type
REMARK                         _______ _______ _______ _____ _____    ______ ____
ROOT
ATOM      1  C   UNL     1       3.456   5.551  19.322  0.00  0.00    +0.000 C 
ATOM      2  C   UNL     1       3.044   6.502  18.469  0.00  0.00    +0.000 C 
ENDROOT
BRANCH   2   3
ATOM      3  C   UNL     1       2.241   7.658  18.892  0.00  0.00    +0.000 A 
ATOM      4  C   UNL     1       1.843   8.613  17.968  0.00  0.00    +0.000 A 
ATOM      5  C   UNL     1       1.057   9.676  18.407  0.00  0.00    +0.000 A 
ATOM      6  C   UNL     1       0.693   9.760  19.755  0.00  0.00    +0.000 A 
ATOM      7  C   UNL     1      -0.102  10.813  20.246  0.00  0.00    +0.000 A 
ATOM      8  C   UNL     1      -0.440  10.869  21.596  0.00  0.00    +0.000 A 
ATOM      9  C   UNL     1       0.013   9.878  22.460  0.00  0.00    +0.000 A 
ATOM     10  C   UNL     1       0.800   8.832  21.966  0.00  0.00    +0.000 A 
ATOM     11  C   UNL     1       1.150   8.751  20.626  0.00  0.00    +0.000 A 
ATOM     12  N   UNL     1       1.904   7.723  20.203  0.00  0.00    +0.000 NA
ENDBRANCH   2   3
BRANCH   1  13
ATOM     13  C   UNL     1       4.254   4.400  18.829  0.00  0.00    +0.000 C 
ATOM     14  O   UNL     1       4.135   3.278  19.313  0.00  0.00    +0.000 OA
BRANCH  13  18
ATOM     15  C   UNL     1       6.862   4.980  15.446  0.00  0.00    +0.000 A 
ATOM     16  C   UNL     1       5.621   4.356  15.312  0.00  0.00    +0.000 A 
ATOM     17  C   UNL     1       4.799   4.154  16.426  0.00  0.00    +0.000 A 
ATOM     18  C   UNL     1       5.185   4.624  17.686  0.00  0.00    +0.000 A 
ATOM     19  C   UNL     1       6.412   5.282  17.819  0.00  0.00    +0.000 A 
ATOM     20  C   UNL     1       7.229   5.478  16.698  0.00  0.00    +0.000 A 
BRANCH  15  21
ATOM     21  N   UNL     1       7.614   5.303  14.311  0.00  0.00    +0.000 N 
ATOM     22  H   UNL     1       7.176   5.994  13.709  0.00  0.00    +0.000 HD
ATOM     23  H   UNL     1       7.949   4.499  13.792  0.00  0.00    +0.000 HD
ENDBRANCH  15  21
ENDBRANCH  13  18
ENDBRANCH   1  13
TORSDOF 4
ENDMDL
MODEL 2
REMARK VINA RESULT:      -7.9      0.194      1.067
REMARK  Name = 
REMARK  4 active torsions:
REMARK  status: ('A' for Active; 'I' for Inactive)
REMARK    1  A    between atoms: N_1  and  C_2
REMARK    2  A    between atoms: C_5  and  C_6
REMARK    3  A    between atoms: C_6  and  C_8
REMARK    4  A    between atoms: C_9  and  C_10
REMARK                            x       y       z     vdW  Elec       q    Type
REMARK                         _______ _______ _______ _____ _____    ______ ____
ROOT
ATOM      1  C   UNL     1       3.471   5.715  19.454  0.00  0.00    +0.000 C 
ATOM      2  C   UNL     1       3.001   6.626  18.586  0.00  0.00    +0.000 C 
ENDROOT
BRANCH   2   3
ATOM      3  C   UNL     1       2.176   7.768  18.999  0.00  0.00    +0.000 A 
ATOM      4  C   UNL     1       1.772   8.716  18.070  0.00  0.00    +0.000 A 
ATOM      5  C   UNL     1       0.965   9.766  18.499  0.00  0.00    +0.000 A 
ATOM      6  C   UNL     1       0.585   9.846  19.844  0.00  0.00    +0.000 A 
ATOM      7  C   UNL     1      -0.232  10.886  20.325  0.00  0.00    +0.000 A 
ATOM      8  C   UNL     1      -0.584  10.938  21.672  0.00  0.00    +0.000 A 
ATOM      9  C   UNL     1      -0.124   9.955  22.541  0.00  0.00    +0.000 A 
ATOM     10  C   UNL     1       0.685   8.922  22.057  0.00  0.00    +0.000 A 
ATOM     11  C   UNL     1       1.050   8.846  20.721  0.00  0.00    +0.000 A 
ATOM     12  N   UNL     1       1.824   7.829  20.307  0.00  0.00    +0.000 NA
ENDBRANCH   2   3
BRANCH   1  13
ATOM     13  C   UNL     1       4.290   4.574  18.970  0.00  0.00    +0.000 C 
ATOM     14  O   UNL     1       4.278   3.485  19.538  0.00  0.00    +0.000 OA
BRANCH  13  18
ATOM     15  C   UNL     1       6.729   5.202  15.472  0.00  0.00    +0.000 A 
ATOM     16  C   UNL     1       7.100   5.705  16.720  0.00  0.00    +0.000 A 
ATOM     17  C   UNL     1       6.283   5.513  17.839  0.00  0.00    +0.000 A 
ATOM     18  C   UNL     1       5.105   4.764  17.737  0.00  0.00    +0.000 A 
ATOM     19  C   UNL     1       4.747   4.226  16.495  0.00  0.00    +0.000 A 
ATOM     20  C   UNL     1       5.572   4.426  15.380  0.00  0.00    +0.000 A 
BRANCH  15  21
ATOM     21  N   UNL     1       7.615   5.276  14.391  0.00  0.00    +0.000 N 
ATOM     22  H   UNL     1       7.786   4.385  13.936  0.00  0.00    +0.000 HD
ATOM     23  H   UNL     1       8.475   5.775  14.593  0.00  0.00    +0.000 HD
ENDBRANCH  15  21
ENDBRANCH  13  18
ENDBRANCH   1  13
TORSDOF 4
ENDMDL
MODEL 3
REMARK VINA RESULT:      -7.7      1.103      1.200
REMARK  Name = 
REMARK  4 active torsions:
REMARK  status: ('A' for Active; 'I' for Inactive)
REMARK    1  A    between atoms: N_1  and  C_2
REMARK    2  A    between atoms: C_5  and  C_6
REMARK    3  A    between atoms: C_6  and  C_8
REMARK    4  A    between atoms: C_9  and  C_10
REMARK                            x       y       z     vdW  Elec       q    Type
REMARK                         _______ _______ _______ _____ _____    ______ ____
ROOT
ATOM      1  C   UNL     1       2.247   6.015  18.402  0.00  0.00    +0.000 C 
ATOM      2  C   UNL     1       2.521   6.757  19.487  0.00  0.00    +0.000 C 
ENDROOT
BRANCH   2   3
ATOM      3  C   UNL     1       1.761   7.963  19.841  0.00  0.00    +0.000 A 
ATOM      4  C   UNL     1       1.579   8.977  18.913  0.00  0.00    +0.000 A 
ATOM      5  C   UNL     1       0.826  10.089  19.281  0.00  0.00    +0.000 A 
ATOM      6  C   UNL     1       0.279  10.163  20.567  0.00  0.00    +0.000 A 
ATOM      7  C   UNL     1      -0.491  11.264  20.985  0.00  0.00    +0.000 A 
ATOM      8  C   UNL     1      -1.014  11.306  22.276  0.00  0.00    +0.000 A 
ATOM      9  C   UNL     1      -0.773  10.253  23.151  0.00  0.00    +0.000 A 
ATOM     10  C   UNL     1      -0.010   9.160  22.729  0.00  0.00    +0.000 A 
ATOM     11  C   UNL     1       0.523   9.091  21.449  0.00  0.00    +0.000 A 
ATOM     12  N   UNL     1       1.244   8.015  21.093  0.00  0.00    +0.000 NA
ENDBRANCH   2   3
BRANCH   1  13
ATOM     13  C   UNL     1       3.062   4.813  18.092  0.00  0.00    +0.000 C 
ATOM     14  O   UNL     1       2.773   3.705  18.538  0.00  0.00    +0.000 OA
BRANCH  13  18
ATOM     15  C   UNL     1       6.453   5.129  15.451  0.00  0.00    +0.000 A 
ATOM     16  C   UNL     1       5.923   3.890  15.813  0.00  0.00    +0.000 A 
ATOM     17  C   UNL     1       4.838   3.806  16.692  0.00  0.00    +0.000 A 
ATOM     18  C   UNL     1       4.229   4.968  17.179  0.00  0.00    +0.000 A 
ATOM     19  C   UNL     1       4.734   6.214  16.791  0.00  0.00    +0.000 A 
ATOM     20  C   UNL     1       5.823   6.286  15.912  0.00  0.00    +0.000 A 
BRANCH  15  21
ATOM     21  N   UNL     1       7.445   5.211  14.466  0.00  0.00    +0.000 N 
ATOM     22  H   UNL     1       7.084   5.362  13.530  0.00  0.00    +0.000 HD
ATOM     23  H   UNL     1       8.125   4.459  14.499  0.00  0.00    +0.000 HD
ENDBRANCH  15  21
ENDBRANCH  13  18
ENDBRANCH   1  13
TORSDOF 4
ENDMDL
MODEL 4
REMARK VINA RESULT:      -7.7      1.093      1.414
REMARK  Name = 
REMARK  4 active torsions:
REMARK  status: ('A' for Active; 'I' for Inactive)
REMARK    1  A    between atoms: N_1  and  C_2
REMARK    2  A    between atoms: C_5  and  C_6
REMARK    3  A    between atoms: C_6  and  C_8
REMARK    4  A    between atoms: C_9  and  C_10
REMARK                            x       y       z     vdW  Elec       q    Type
REMARK                         _______ _______ _______ _____ _____    ______ ____
ROOT
ATOM      1  C   UNL     1       2.401   6.164  18.432  0.00  0.00    +0.000 C 
ATOM      2  C   UNL     1       2.386   6.752  19.639  0.00  0.00    +0.000 C 
ENDROOT
BRANCH   2   3
ATOM      3  C   UNL     1       1.650   7.994  19.912  0.00  0.00    +0.000 A 
ATOM      4  C   UNL     1       1.470   8.940  18.914  0.00  0.00    +0.000 A 
ATOM      5  C   UNL     1       0.739  10.088  19.209  0.00  0.00    +0.000 A 
ATOM      6  C   UNL     1       0.211  10.264  20.492  0.00  0.00    +0.000 A 
ATOM      7  C   UNL     1      -0.537  11.405  20.837  0.00  0.00    +0.000 A 
ATOM      8  C   UNL     1      -1.042  11.551  22.128  0.00  0.00    +0.000 A 
ATOM      9  C   UNL     1      -0.805  10.562  23.075  0.00  0.00    +0.000 A 
ATOM     10  C   UNL     1      -0.064   9.428  22.725  0.00  0.00    +0.000 A 
ATOM     11  C   UNL     1       0.450   9.257  21.448  0.00  0.00    +0.000 A 
ATOM     12  N   UNL     1       1.151   8.146  21.163  0.00  0.00    +0.000 NA
ENDBRANCH   2   3
BRANCH   1  13
ATOM     13  C   UNL     1       3.177   4.916  18.218  0.00  0.00    +0.000 C 
ATOM     14  O   UNL     1       2.913   3.881  18.823  0.00  0.00    +0.000 OA
BRANCH  13  18
ATOM     15  C   UNL     1       6.329   5.090  15.283  0.00  0.00    +0.000 A 
ATOM     16  C   UNL     1       5.781   6.249  15.836  0.00  0.00    +0.000 A 
ATOM     17  C   UNL     1       4.742   6.174  16.768  0.00  0.00    +0.000 A 
ATOM     18  C   UNL     1       4.270   4.930  17.205  0.00  0.00    +0.000 A 
ATOM     19  C   UNL     1       4.840   3.765  16.681  0.00  0.00    +0.000 A 
ATOM     20  C   UNL     1       5.880   3.852  15.746  0.00  0.00    +0.000 A 
BRANCH  15  21
ATOM     21  N   UNL     1       7.459   5.168  14.461  0.00  0.00    +0.000 N 
ATOM     22  H   UNL     1       7.503   6.013  13.900  0.00  0.00    +0.000 HD
ATOM     23  H   UNL     1       7.631   4.333  13.912  0.00  0.00    +0.000 HD
ENDBRANCH  15  21
ENDBRANCH  13  18
ENDBRANCH   1  13
TORSDOF 4
ENDMDL
MODEL 5
REMARK VINA RESULT:      -7.6      5.708      7.910
REMARK  Name = 
REMARK  4 active torsions:
REMARK  status: ('A' for Active; 'I' for Inactive)
REMARK    1  A    between atoms: N_1  and  C_2
REMARK    2  A    between atoms: C_5  and  C_6
REMARK    3  A    between atoms: C_6  and  C_8
REMARK    4  A    between atoms: C_9  and  C_10
REMARK                            x       y       z     vdW  Elec       q    Type
REMARK                         _______ _______ _______ _____ _____    ______ ____
ROOT
ATOM      1  C   UNL     1       7.998   7.753  18.060  0.00  0.00    +0.000 C 
ATOM      2  C   UNL     1       8.140   9.018  17.632  0.00  0.00    +0.000 C 
ENDROOT
BRANCH   2   3
ATOM      3  C   UNL     1       8.916  10.026  18.365  0.00  0.00    +0.000 A 
ATOM      4  C   UNL     1       8.991   9.986  19.750  0.00  0.00    +0.000 A 
ATOM      5  C   UNL     1       9.763  10.943  20.403  0.00  0.00    +0.000 A 
ATOM      6  C   UNL     1      10.436  11.918  19.658  0.00  0.00    +0.000 A 
ATOM      7  C   UNL     1      11.231  12.904  20.271  0.00  0.00    +0.000 A 
ATOM      8  C   UNL     1      11.881  13.864  19.499  0.00  0.00    +0.000 A 
ATOM      9  C   UNL     1      11.743  13.843  18.116  0.00  0.00    +0.000 A 
ATOM     10  C   UNL     1      10.954  12.859  17.511  0.00  0.00    +0.000 A 
ATOM     11  C   UNL     1      10.297  11.891  18.256  0.00  0.00    +0.000 A 
ATOM     12  N   UNL     1       9.556  10.964  17.625  0.00  0.00    +0.000 NA
ENDBRANCH   2   3
BRANCH   1  13
ATOM     13  C   UNL     1       7.188   6.785  17.278  0.00  0.00    +0.000 C 
ATOM     14  O   UNL     1       7.600   6.300  16.228  0.00  0.00    +0.000 OA
BRANCH  13  18
ATOM     15  C   UNL     1       3.420   5.502  18.933  0.00  0.00    +0.000 A 
ATOM     16  C   UNL     1       4.636   5.052  19.450  0.00  0.00    +0.000 A 
ATOM     17  C   UNL     1       5.848   5.460  18.884  0.00  0.00    +0.000 A 
ATOM     18  C   UNL     1       5.864   6.371  17.822  0.00  0.00    +0.000 A 
ATOM     19  C   UNL     1       4.648   6.853  17.322  0.00  0.00    +0.000 A 
ATOM     20  C   UNL     1       3.440   6.437  17.896  0.00  0.00    +0.000 A 
BRANCH  15  21
ATOM     21  N   UNL     1       2.221   5.203  19.590  0.00  0.00    +0.000 N 
ATOM     22  H   UNL     1       2.336   4.969  20.571  0.00  0.00    +0.000 HD
ATOM     23  H   UNL     1       1.636   4.534  19.101  0.00  0.00    +0.000 HD
ENDBRANCH  15  21
ENDBRANCH  13  18
ENDBRANCH   1  13
TORSDOF 4
ENDMDL
MODEL 6
REMARK VINA RESULT:      -7.6      0.943      1.492
REMARK  Name = 
REMARK  4 active torsions:
REMARK  status: ('A' for Active; 'I' for Inactive)
REMARK    1  A    between atoms: N_1  and  C_2
REMARK    2  A    between atoms: C_5  and  C_6
REMARK    3  A    between atoms: C_6  and  C_8
REMARK    4  A    between atoms: C_9  and  C_10
REMARK                            x       y       z     vdW  Elec       q    Type
REMARK                         _______ _______ _______ _____ _____    ______ ____
ROOT
ATOM      1  C   UNL     1       2.564   5.522  20.037  0.00  0.00    +0.000 C 
ATOM      2  C   UNL     1       2.614   6.639  19.294  0.00  0.00    +0.000 C 
ENDROOT
BRANCH   2   3
ATOM      3  C   UNL     1       1.882   7.863  19.642  0.00  0.00    +0.000 A 
ATOM      4  C   UNL     1       1.695   8.864  18.701  0.00  0.00    +0.000 A 
ATOM      5  C   UNL     1       0.968   9.993  19.065  0.00  0.00    +0.000 A 
ATOM      6  C   UNL     1       0.449  10.097  20.361  0.00  0.00    +0.000 A 
ATOM      7  C   UNL     1      -0.295  11.217  20.776  0.00  0.00    +0.000 A 
ATOM      8  C   UNL     1      -0.790  11.290  22.076  0.00  0.00    +0.000 A 
ATOM      9  C   UNL     1      -0.546  10.249  22.964  0.00  0.00    +0.000 A 
ATOM     10  C   UNL     1       0.191   9.137  22.545  0.00  0.00    +0.000 A 
ATOM     11  C   UNL     1       0.695   9.038  21.256  0.00  0.00    +0.000 A 
ATOM     12  N   UNL     1       1.392   7.945  20.904  0.00  0.00    +0.000 NA
ENDBRANCH   2   3
BRANCH   1  13
ATOM     13  C   UNL     1       3.319   4.312  19.622  0.00  0.00    +0.000 C 
ATOM     14  O   UNL     1       3.067   3.204  20.087  0.00  0.00    +0.000 OA
BRANCH  13  18
ATOM     15  C   UNL     1       6.456   4.790  16.704  0.00  0.00    +0.000 A 
ATOM     16  C   UNL     1       6.691   4.981  18.066  0.00  0.00    +0.000 A 
ATOM     17  C   UNL     1       5.655   4.846  18.996  0.00  0.00    +0.000 A 
ATOM     18  C   UNL     1       4.374   4.462  18.581  0.00  0.00    +0.000 A 
ATOM     19  C   UNL     1       4.142   4.234  17.220  0.00  0.00    +0.000 A 
ATOM     20  C   UNL     1       5.186   4.374  16.296  0.00  0.00    +0.000 A 
BRANCH  15  21
ATOM     21  N   UNL     1       7.523   4.788  15.798  0.00  0.00    +0.000 N 
ATOM     22  H   UNL     1       7.492   5.545  15.124  0.00  0.00    +0.000 HD
ATOM     23  H   UNL     1       7.693   3.889  15.360  0.00  0.00    +0.000 HD
ENDBRANCH  15  21
ENDBRANCH  13  18
ENDBRANCH   1  13
TORSDOF 4
ENDMDL
MODEL 7
REMARK VINA RESULT:      -7.6      1.015      1.176
REMARK  Name = 
REMARK  4 active torsions:
REMARK  status: ('A' for Active; 'I' for Inactive)
REMARK    1  A    between atoms: N_1  and  C_2
REMARK    2  A    between atoms: C_5  and  C_6
REMARK    3  A    between atoms: C_6  and  C_8
REMARK    4  A    between atoms: C_9  and  C_10
REMARK                            x       y       z     vdW  Elec       q    Type
REMARK                         _______ _______ _______ _____ _____    ______ ____
ROOT
ATOM      1  C   UNL     1       2.144   5.303  19.565  0.00  0.00    +0.000 C 
ATOM      2  C   UNL     1       2.701   6.524  19.627  0.00  0.00    +0.000 C 
ENDROOT
BRANCH   2   3
ATOM      3  C   UNL     1       1.920   7.744  19.867  0.00  0.00    +0.000 A 
ATOM      4  C   UNL     1       1.723   8.665  18.849  0.00  0.00    +0.000 A 
ATOM      5  C   UNL     1       0.950   9.793  19.112  0.00  0.00    +0.000 A 
ATOM      6  C   UNL     1       0.399   9.976  20.386  0.00  0.00    +0.000 A 
ATOM      7  C   UNL     1      -0.391  11.097  20.700  0.00  0.00    +0.000 A 
ATOM      8  C   UNL     1      -0.918  11.250  21.981  0.00  0.00    +0.000 A 
ATOM      9  C   UNL     1      -0.660  10.287  22.949  0.00  0.00    +0.000 A 
ATOM     10  C   UNL     1       0.123   9.173  22.631  0.00  0.00    +0.000 A 
ATOM     11  C   UNL     1       0.659   8.995  21.363  0.00  0.00    +0.000 A 
ATOM     12  N   UNL     1       1.399   7.903  21.109  0.00  0.00    +0.000 NA
ENDBRANCH   2   3
BRANCH   1  13
ATOM     13  C   UNL     1       2.988   4.109  19.306  0.00  0.00    +0.000 C 
ATOM     14  O   UNL     1       2.699   3.004  19.757  0.00  0.00    +0.000 OA
BRANCH  13  18
ATOM     15  C   UNL     1       6.381   4.542  16.682  0.00  0.00    +0.000 A 
ATOM     16  C   UNL     1       5.096   4.327  16.184  0.00  0.00    +0.000 A 
ATOM     17  C   UNL     1       4.011   4.164  17.051  0.00  0.00    +0.000 A 
ATOM     18  C   UNL     1       4.188   4.269  18.436  0.00  0.00    +0.000 A 
ATOM     19  C   UNL     1       5.469   4.520  18.939  0.00  0.00    +0.000 A 
ATOM     20  C   UNL     1       6.549   4.680  18.062  0.00  0.00    +0.000 A 
BRANCH  15  21
ATOM     21  N   UNL     1       7.434   4.844  15.810  0.00  0.00    +0.000 N 
ATOM     22  H   UNL     1       8.156   4.132  15.774  0.00  0.00    +0.000 HD
ATOM     23  H   UNL     1       7.818   5.775  15.931  0.00  0.00    +0.000 HD
ENDBRANCH  15  21
ENDBRANCH  13  18
ENDBRANCH   1  13
TORSDOF 4
ENDMDL
MODEL 8
REMARK VINA RESULT:      -7.5      3.173      8.177
REMARK  Name = 
REMARK  4 active torsions:
REMARK  status: ('A' for Active; 'I' for Inactive)
REMARK    1  A    between atoms: N_1  and  C_2
REMARK    2  A    between atoms: C_5  and  C_6
REMARK    3  A    between atoms: C_6  and  C_8
REMARK    4  A    between atoms: C_9  and  C_10
REMARK                            x       y       z     vdW  Elec       q    Type
REMARK                         _______ _______ _______ _____ _____    ______ ____
ROOT
ATOM      1  C   UNL     1       1.517   8.786  18.114  0.00  0.00    +0.000 C 
ATOM      2  C   UNL     1       2.763   8.343  17.881  0.00  0.00    +0.000 C 
ENDROOT
BRANCH   2   3
ATOM      3  C   UNL     1       3.095   6.917  17.773  0.00  0.00    +0.000 A 
ATOM      4  C   UNL     1       4.352   6.518  17.344  0.00  0.00    +0.000 A 
ATOM      5  C   UNL     1       4.634   5.155  17.287  0.00  0.00    +0.000 A 
ATOM      6  C   UNL     1       3.654   4.227  17.654  0.00  0.00    +0.000 A 
ATOM      7  C   UNL     1       3.892   2.840  17.616  0.00  0.00    +0.000 A 
ATOM      8  C   UNL     1       2.889   1.944  17.982  0.00  0.00    +0.000 A 
ATOM      9  C   UNL     1       1.650   2.427  18.387  0.00  0.00    +0.000 A 
ATOM     10  C   UNL     1       1.420   3.806  18.426  0.00  0.00    +0.000 A 
ATOM     11  C   UNL     1       2.401   4.720  18.068  0.00  0.00    +0.000 A 
ATOM     12  N   UNL     1       2.129   6.035  18.129  0.00  0.00    +0.000 NA
ENDBRANCH   2   3
BRANCH   1  13
ATOM     13  C   UNL     1       1.249  10.243  18.225  0.00  0.00    +0.000 C 
ATOM     14  O   UNL     1       2.154  11.071  18.165  0.00  0.00    +0.000 OA
BRANCH  13  18
ATOM     15  C   UNL     1      -2.801  11.630  18.727  0.00  0.00    +0.000 A 
ATOM     16  C   UNL     1      -1.731  12.256  19.366  0.00  0.00    +0.000 A 
ATOM     17  C   UNL     1      -0.426  11.777  19.212  0.00  0.00    +0.000 A 
ATOM     18  C   UNL     1      -0.165  10.691  18.367  0.00  0.00    +0.000 A 
ATOM     19  C   UNL     1      -1.230  10.082  17.695  0.00  0.00    +0.000 A 
ATOM     20  C   UNL     1      -2.534  10.569  17.859  0.00  0.00    +0.000 A 
BRANCH  15  21
ATOM     21  N   UNL     1      -4.080  12.197  18.773  0.00  0.00    +0.000 N 
ATOM     22  H   UNL     1      -4.367  12.490  19.702  0.00  0.00    +0.000 HD
ATOM     23  H   UNL     1      -4.794  11.650  18.304  0.00  0.00    +0.000 HD
ENDBRANCH  15  21
ENDBRANCH  13  18
ENDBRANCH   1  13
TORSDOF 4
ENDMDL
MODEL 9
REMARK VINA RESULT:      -7.5      0.882      1.779
REMARK  Name = 
REMARK  4 active torsions:
REMARK  status: ('A' for Active; 'I' for Inactive)
REMARK    1  A    between atoms: N_1  and  C_2
REMARK    2  A    between atoms: C_5  and  C_6
REMARK    3  A    between atoms: C_6  and  C_8
REMARK    4  A    between atoms: C_9  and  C_10
REMARK                            x       y       z     vdW  Elec       q    Type
REMARK                         _______ _______ _______ _____ _____    ______ ____
ROOT
ATOM      1  C   UNL     1       3.412   4.908  19.714  0.00  0.00    +0.000 C 
ATOM      2  C   UNL     1       3.147   6.021  19.010  0.00  0.00    +0.000 C 
ENDROOT
BRANCH   2   3
ATOM      3  C   UNL     1       2.310   7.111  19.528  0.00  0.00    +0.000 A 
ATOM      4  C   UNL     1       1.775   7.043  20.806  0.00  0.00    +0.000 A 
ATOM      5  C   UNL     1       1.014   8.113  21.267  0.00  0.00    +0.000 A 
ATOM      6  C   UNL     1       0.800   9.222  20.440  0.00  0.00    +0.000 A 
ATOM      7  C   UNL     1       0.040  10.328  20.862  0.00  0.00    +0.000 A 
ATOM      8  C   UNL     1      -0.157  11.412  20.008  0.00  0.00    +0.000 A 
ATOM      9  C   UNL     1       0.401  11.396  18.736  0.00  0.00    +0.000 A 
ATOM     10  C   UNL     1       1.159  10.295  18.323  0.00  0.00    +0.000 A 
ATOM     11  C   UNL     1       1.372   9.203  19.152  0.00  0.00    +0.000 A 
ATOM     12  N   UNL     1       2.112   8.173  18.708  0.00  0.00    +0.000 NA
ENDBRANCH   2   3
BRANCH   1  13
ATOM     13  C   UNL     1       4.255   3.836  19.127  0.00  0.00    +0.000 C 
ATOM     14  O   UNL     1       4.183   2.674  19.516  0.00  0.00    +0.000 OA
BRANCH  13  18
ATOM     15  C   UNL     1       6.822   4.816  15.806  0.00  0.00    +0.000 A 
ATOM     16  C   UNL     1       5.542   4.294  15.610  0.00  0.00    +0.000 A 
ATOM     17  C   UNL     1       4.733   3.958  16.701  0.00  0.00    +0.000 A 
ATOM     18  C   UNL     1       5.173   4.193  18.009  0.00  0.00    +0.000 A 
ATOM     19  C   UNL     1       6.441   4.749  18.209  0.00  0.00    +0.000 A 
ATOM     20  C   UNL     1       7.244   5.080  17.110  0.00  0.00    +0.000 A 
BRANCH  15  21
ATOM     21  N   UNL     1       7.567   5.279  14.716  0.00  0.00    +0.000 N 
ATOM     22  H   UNL     1       7.005   5.544  13.913  0.00  0.00    +0.000 HD
ATOM     23  H   UNL     1       8.344   4.679  14.459  0.00  0.00    +0.000 HD
ENDBRANCH  15  21
ENDBRANCH  13  18
ENDBRANCH   1  13
TORSDOF 4
ENDMDL
