MODEL 1
REMARK VINA RESULT:      -8.8      0.000      0.000
REMARK  Name = 
REMARK  5 active torsions:
REMARK  status: ('A' for Active; 'I' for Inactive)
REMARK    1  A    between atoms: C_1  and  O_2
REMARK    2  A    between atoms: O_2  and  C_3
REMARK    3  A    between atoms: C_6  and  N_7
REMARK    4  A    between atoms: C_8  and  C_10
REMARK    5  A    between atoms: C_13  and  C_14
REMARK                            x       y       z     vdW  Elec       q    Type
REMARK                         _______ _______ _______ _____ _____    ______ ____
ROOT
ATOM      1  C   UNL     1       6.768   6.101  17.442  0.00  0.00    +0.000 C 
ATOM      2  C   UNL     1       5.460   6.816  17.039  0.00  0.00    +0.000 C 
ATOM      3  C   UNL     1       4.467   5.830  17.467  0.00  0.00    +0.000 A 
ATOM      4  C   UNL     1       3.116   5.952  17.735  0.00  0.00    +0.000 A 
ATOM      5  C   UNL     1       2.394   4.759  17.778  0.00  0.00    +0.000 A 
ATOM      6  C   UNL     1       3.106   3.559  17.814  0.00  0.00    +0.000 A 
ATOM      7  N   UNL     1       4.462   3.481  17.906  0.00  0.00    +0.000 NA
ATOM      8  C   UNL     1       5.095   4.645  17.728  0.00  0.00    +0.000 A 
ATOM      9  O   UNL     1       6.452   4.839  18.035  0.00  0.00    +0.000 OA
ENDROOT
BRANCH   4  10
ATOM     10  C   UNL     1       2.597   7.169  18.390  0.00  0.00    +0.000 A 
ATOM     11  C   UNL     1       2.220   8.331  17.710  0.00  0.00    +0.000 A 
ATOM     12  C   UNL     1       1.532   9.356  18.376  0.00  0.00    +0.000 A 
ATOM     13  C   UNL     1       1.217   9.235  19.731  0.00  0.00    +0.000 A 
ATOM     14  C   UNL     1       1.614   8.105  20.421  0.00  0.00    +0.000 A 
ATOM     15  F   UNL     1       1.303   7.963  21.716  0.00  0.00    +0.000 F 
ATOM     16  C   UNL     1       2.291   7.087  19.767  0.00  0.00    +0.000 A 
ENDBRANCH   4  10
BRANCH   1  18
ATOM     17  N   UNL     1       7.542   8.539  17.454  0.00  0.00    +0.000 N 
ATOM     18  C   UNL     1       7.643   7.267  17.979  0.00  0.00    +0.000 C 
ATOM     19  O   UNL     1       8.417   6.979  18.899  0.00  0.00    +0.000 OA
ATOM     20  H   UNL     1       7.038   8.668  16.582  0.00  0.00    +0.000 HD
BRANCH  17  24
ATOM     21  C   UNL     1       9.597  11.894  18.967  0.00  0.00    +0.000 A 
ATOM     22  C   UNL     1       9.782  10.685  19.599  0.00  0.00    +0.000 A 
ATOM     23  C   UNL     1       9.091   9.576  19.119  0.00  0.00    +0.000 A 
ATOM     24  C   UNL     1       8.252   9.663  17.996  0.00  0.00    +0.000 A 
ATOM     25  C   UNL     1       8.140  10.937  17.437  0.00  0.00    +0.000 A 
ATOM     26  N   UNL     1       8.788  12.051  17.891  0.00  0.00    +0.000 NA
BRANCH  21  28
ATOM     27  C   UNL     1      10.896  13.798  18.547  0.00  0.00    +0.000 C 
ATOM     28  O   UNL     1      10.289  12.953  19.511  0.00  0.00    +0.000 OA
ENDBRANCH  21  28
ENDBRANCH  17  24
ENDBRANCH   1  18
TORSDOF 4
ENDMDL
MODEL 2
REMARK VINA RESULT:      -8.7      1.269      1.398
REMARK  Name = 
REMARK  5 active torsions:
REMARK  status: ('A' for Active; 'I' for Inactive)
REMARK    1  A    between atoms: C_1  and  O_2
REMARK    2  A    between atoms: O_2  and  C_3
REMARK    3  A    between atoms: C_6  and  N_7
REMARK    4  A    between atoms: C_8  and  C_10
REMARK    5  A    between atoms: C_13  and  C_14
REMARK                            x       y       z     vdW  Elec       q    Type
REMARK                         _______ _______ _______ _____ _____    ______ ____
ROOT
ATOM      1  C   UNL     1       7.441   7.013  17.794  0.00  0.00    +0.000 C 
ATOM      2  C   UNL     1       6.014   7.223  17.242  0.00  0.00    +0.000 C 
ATOM      3  C   UNL     1       5.295   6.151  17.930  0.00  0.00    +0.000 A 
ATOM      4  C   UNL     1       3.947   5.971  18.181  0.00  0.00    +0.000 A 
ATOM      5  C   UNL     1       3.564   4.680  18.546  0.00  0.00    +0.000 A 
ATOM      6  C   UNL     1       4.564   3.765  18.880  0.00  0.00    +0.000 A 
ATOM      7  N   UNL     1       5.885   4.080  18.964  0.00  0.00    +0.000 NA
ATOM      8  C   UNL     1       6.198   5.284  18.479  0.00  0.00    +0.000 A 
ATOM      9  O   UNL     1       7.438   5.907  18.699  0.00  0.00    +0.000 OA
ENDROOT
BRANCH   4  10
ATOM     10  C   UNL     1       3.092   7.129  18.507  0.00  0.00    +0.000 A 
ATOM     11  C   UNL     1       2.685   8.094  17.581  0.00  0.00    +0.000 A 
ATOM     12  C   UNL     1       1.698   9.033  17.916  0.00  0.00    +0.000 A 
ATOM     13  C   UNL     1       1.110   9.023  19.181  0.00  0.00    +0.000 A 
ATOM     14  C   UNL     1       1.528   8.094  20.116  0.00  0.00    +0.000 A 
ATOM     15  F   UNL     1       0.961   8.057  21.329  0.00  0.00    +0.000 F 
ATOM     16  C   UNL     1       2.500   7.161  19.790  0.00  0.00    +0.000 A 
ENDBRANCH   4  10
BRANCH   1  18
ATOM     17  N   UNL     1       8.808   8.792  19.022  0.00  0.00    +0.000 N 
ATOM     18  C   UNL     1       7.948   8.468  17.993  0.00  0.00    +0.000 C 
ATOM     19  O   UNL     1       7.538   9.298  17.172  0.00  0.00    +0.000 OA
ATOM     20  H   UNL     1       8.952   8.118  19.767  0.00  0.00    +0.000 HD
BRANCH  17  24
ATOM     21  C   UNL     1      10.526  12.625  19.367  0.00  0.00    +0.000 A 
ATOM     22  C   UNL     1      10.058  12.023  20.512  0.00  0.00    +0.000 A 
ATOM     23  C   UNL     1       9.470  10.766  20.406  0.00  0.00    +0.000 A 
ATOM     24  C   UNL     1       9.384  10.099  19.172  0.00  0.00    +0.000 A 
ATOM     25  C   UNL     1       9.889  10.805  18.080  0.00  0.00    +0.000 A 
ATOM     26  N   UNL     1      10.456  12.046  18.144  0.00  0.00    +0.000 NA
BRANCH  21  28
ATOM     27  C   UNL     1      11.115  14.656  18.357  0.00  0.00    +0.000 C 
ATOM     28  O   UNL     1      11.069  13.879  19.543  0.00  0.00    +0.000 OA
ENDBRANCH  21  28
ENDBRANCH  17  24
ENDBRANCH   1  18
TORSDOF 4
ENDMDL
MODEL 3
REMARK VINA RESULT:      -8.7      1.403      1.662
REMARK  Name = 
REMARK  5 active torsions:
REMARK  status: ('A' for Active; 'I' for Inactive)
REMARK    1  A    between atoms: C_1  and  O_2
REMARK    2  A    between atoms: O_2  and  C_3
REMARK    3  A    between atoms: C_6  and  N_7
REMARK    4  A    between atoms: C_8  and  C_10
REMARK    5  A    between atoms: C_13  and  C_14
REMARK                            x       y       z     vdW  Elec       q    Type
REMARK                         _______ _______ _______ _____ _____    ______ ____
ROOT
ATOM      1  C   UNL     1       7.505   7.052  17.791  0.00  0.00    +0.000 C 
ATOM      2  C   UNL     1       6.077   7.241  17.233  0.00  0.00    +0.000 C 
ATOM      3  C   UNL     1       5.373   6.154  17.913  0.00  0.00    +0.000 A 
ATOM      4  C   UNL     1       4.027   5.952  18.157  0.00  0.00    +0.000 A 
ATOM      5  C   UNL     1       3.663   4.653  18.515  0.00  0.00    +0.000 A 
ATOM      6  C   UNL     1       4.676   3.753  18.851  0.00  0.00    +0.000 A 
ATOM      7  N   UNL     1       5.992   4.089  18.943  0.00  0.00    +0.000 NA
ATOM      8  C   UNL     1       6.287   5.301  18.463  0.00  0.00    +0.000 A 
ATOM      9  O   UNL     1       7.516   5.943  18.692  0.00  0.00    +0.000 OA
ENDROOT
BRANCH   4  10
ATOM     10  C   UNL     1       3.151   7.094  18.482  0.00  0.00    +0.000 A 
ATOM     11  C   UNL     1       2.721   8.048  17.555  0.00  0.00    +0.000 A 
ATOM     12  C   UNL     1       1.718   8.968  17.891  0.00  0.00    +0.000 A 
ATOM     13  C   UNL     1       1.137   8.953  19.160  0.00  0.00    +0.000 A 
ATOM     14  C   UNL     1       1.578   8.036  20.096  0.00  0.00    +0.000 A 
ATOM     15  F   UNL     1       1.017   7.993  21.312  0.00  0.00    +0.000 F 
ATOM     16  C   UNL     1       2.566   7.120  19.768  0.00  0.00    +0.000 A 
ENDBRANCH   4  10
BRANCH   1  18
ATOM     17  N   UNL     1       8.862   8.843  19.012  0.00  0.00    +0.000 N 
ATOM     18  C   UNL     1       7.987   8.514  17.997  0.00  0.00    +0.000 C 
ATOM     19  O   UNL     1       7.544   9.346  17.196  0.00  0.00    +0.000 OA
ATOM     20  H   UNL     1       9.035   8.163  19.746  0.00  0.00    +0.000 HD
BRANCH  17  24
ATOM     21  C   UNL     1      10.446  12.711  19.559  0.00  0.00    +0.000 A 
ATOM     22  C   UNL     1      10.537  12.148  18.307  0.00  0.00    +0.000 A 
ATOM     23  C   UNL     1      10.035  10.863  18.121  0.00  0.00    +0.000 A 
ATOM     24  C   UNL     1       9.415  10.160  19.167  0.00  0.00    +0.000 A 
ATOM     25  C   UNL     1       9.381  10.827  20.392  0.00  0.00    +0.000 A 
ATOM     26  N   UNL     1       9.879  12.079  20.616  0.00  0.00    +0.000 NA
BRANCH  21  28
ATOM     27  C   UNL     1      10.237  14.844  20.507  0.00  0.00    +0.000 C 
ATOM     28  O   UNL     1      10.988  13.972  19.677  0.00  0.00    +0.000 OA
ENDBRANCH  21  28
ENDBRANCH  17  24
ENDBRANCH   1  18
TORSDOF 4
ENDMDL
MODEL 4
REMARK VINA RESULT:      -8.4      4.863      7.194
REMARK  Name = 
REMARK  5 active torsions:
REMARK  status: ('A' for Active; 'I' for Inactive)
REMARK    1  A    between atoms: C_1  and  O_2
REMARK    2  A    between atoms: O_2  and  C_3
REMARK    3  A    between atoms: C_6  and  N_7
REMARK    4  A    between atoms: C_8  and  C_10
REMARK    5  A    between atoms: C_13  and  C_14
REMARK                            x       y       z     vdW  Elec       q    Type
REMARK                         _______ _______ _______ _____ _____    ______ ____
ROOT
ATOM      1  C   UNL     1       1.498   5.350  20.592  0.00  0.00    +0.000 C 
ATOM      2  C   UNL     1       3.027   5.222  20.426  0.00  0.00    +0.000 C 
ATOM      3  C   UNL     1       3.106   4.135  19.450  0.00  0.00    +0.000 A 
ATOM      4  C   UNL     1       4.123   3.746  18.597  0.00  0.00    +0.000 A 
ATOM      5  C   UNL     1       4.006   2.465  18.056  0.00  0.00    +0.000 A 
ATOM      6  C   UNL     1       2.786   1.800  18.195  0.00  0.00    +0.000 A 
ATOM      7  N   UNL     1       1.672   2.360  18.742  0.00  0.00    +0.000 NA
ATOM      8  C   UNL     1       1.886   3.527  19.355  0.00  0.00    +0.000 A 
ATOM      9  O   UNL     1       0.850   4.390  19.753  0.00  0.00    +0.000 OA
ENDROOT
BRANCH   4  10
ATOM     10  C   UNL     1       4.977   4.760  17.949  0.00  0.00    +0.000 A 
ATOM     11  C   UNL     1       4.560   5.593  16.907  0.00  0.00    +0.000 A 
ATOM     12  C   UNL     1       5.353   6.676  16.498  0.00  0.00    +0.000 A 
ATOM     13  C   UNL     1       6.575   6.935  17.120  0.00  0.00    +0.000 A 
ATOM     14  C   UNL     1       7.013   6.098  18.129  0.00  0.00    +0.000 A 
ATOM     15  F   UNL     1       8.173   6.343  18.752  0.00  0.00    +0.000 F 
ATOM     16  C   UNL     1       6.232   5.029  18.542  0.00  0.00    +0.000 A 
ENDBRANCH   4  10
BRANCH   1  18
ATOM     17  N   UNL     1       0.162   7.419  21.280  0.00  0.00    +0.000 N 
ATOM     18  C   UNL     1       1.292   6.886  20.696  0.00  0.00    +0.000 C 
ATOM     19  O   UNL     1       2.203   7.584  20.232  0.00  0.00    +0.000 OA
ATOM     20  H   UNL     1      -0.627   6.808  21.463  0.00  0.00    +0.000 HD
BRANCH  17  24
ATOM     21  C   UNL     1      -0.350  11.541  22.004  0.00  0.00    +0.000 A 
ATOM     22  C   UNL     1      -0.419  11.101  20.702  0.00  0.00    +0.000 A 
ATOM     23  C   UNL     1      -0.231   9.745  20.451  0.00  0.00    +0.000 A 
ATOM     24  C   UNL     1      -0.012   8.829  21.493  0.00  0.00    +0.000 A 
ATOM     25  C   UNL     1       0.039   9.387  22.772  0.00  0.00    +0.000 A 
ATOM     26  N   UNL     1      -0.123  10.714  23.054  0.00  0.00    +0.000 NA
BRANCH  21  28
ATOM     27  C   UNL     1      -1.413  13.236  23.223  0.00  0.00    +0.000 C 
ATOM     28  O   UNL     1      -0.518  12.897  22.175  0.00  0.00    +0.000 OA
ENDBRANCH  21  28
ENDBRANCH  17  24
ENDBRANCH   1  18
TORSDOF 4
ENDMDL
MODEL 5
REMARK VINA RESULT:      -8.4      4.335      6.883
REMARK  Name = 
REMARK  5 active torsions:
REMARK  status: ('A' for Active; 'I' for Inactive)
REMARK    1  A    between atoms: C_1  and  O_2
REMARK    2  A    between atoms: O_2  and  C_3
REMARK    3  A    between atoms: C_6  and  N_7
REMARK    4  A    between atoms: C_8  and  C_10
REMARK    5  A    between atoms: C_13  and  C_14
REMARK                            x       y       z     vdW  Elec       q    Type
REMARK                         _______ _______ _______ _____ _____    ______ ____
ROOT
ATOM      1  C   UNL     1       3.056   8.106  17.627  0.00  0.00    +0.000 C 
ATOM      2  C   UNL     1       2.244   6.800  17.491  0.00  0.00    +0.000 C 
ATOM      3  C   UNL     1       3.320   5.809  17.497  0.00  0.00    +0.000 A 
ATOM      4  C   UNL     1       3.308   4.451  17.761  0.00  0.00    +0.000 A 
ATOM      5  C   UNL     1       4.432   3.740  17.338  0.00  0.00    +0.000 A 
ATOM      6  C   UNL     1       5.557   4.463  16.939  0.00  0.00    +0.000 A 
ATOM      7  N   UNL     1       5.662   5.817  17.026  0.00  0.00    +0.000 NA
ATOM      8  C   UNL     1       4.516   6.442  17.310  0.00  0.00    +0.000 A 
ATOM      9  O   UNL     1       4.448   7.791  17.697  0.00  0.00    +0.000 OA
ENDROOT
BRANCH   4  10
ATOM     10  C   UNL     1       2.426   3.907  18.812  0.00  0.00    +0.000 A 
ATOM     11  C   UNL     1       1.418   2.965  18.586  0.00  0.00    +0.000 A 
ATOM     12  C   UNL     1       0.776   2.335  19.662  0.00  0.00    +0.000 A 
ATOM     13  C   UNL     1       1.127   2.644  20.977  0.00  0.00    +0.000 A 
ATOM     14  C   UNL     1       2.098   3.599  21.212  0.00  0.00    +0.000 A 
ATOM     15  F   UNL     1       2.463   3.894  22.468  0.00  0.00    +0.000 F 
ATOM     16  C   UNL     1       2.740   4.222  20.153  0.00  0.00    +0.000 A 
ENDBRANCH   4  10
BRANCH   1  18
ATOM     17  N   UNL     1       1.624   8.417  19.723  0.00  0.00    +0.000 N 
ATOM     18  C   UNL     1       2.175   8.959  18.580  0.00  0.00    +0.000 C 
ATOM     19  O   UNL     1       2.012  10.140  18.250  0.00  0.00    +0.000 OA
ATOM     20  H   UNL     1       1.631   7.409  19.837  0.00  0.00    +0.000 HD
BRANCH  17  24
ATOM     21  C   UNL     1      -0.459  10.670  22.614  0.00  0.00    +0.000 A 
ATOM     22  C   UNL     1      -0.874  10.760  21.305  0.00  0.00    +0.000 A 
ATOM     23  C   UNL     1      -0.179  10.035  20.340  0.00  0.00    +0.000 A 
ATOM     24  C   UNL     1       0.897   9.200  20.683  0.00  0.00    +0.000 A 
ATOM     25  C   UNL     1       1.229   9.188  22.039  0.00  0.00    +0.000 A 
ATOM     26  N   UNL     1       0.583   9.899  23.010  0.00  0.00    +0.000 NA
BRANCH  21  28
ATOM     27  C   UNL     1      -2.342  12.021  22.959  0.00  0.00    +0.000 C 
ATOM     28  O   UNL     1      -1.174  11.434  23.510  0.00  0.00    +0.000 OA
ENDBRANCH  21  28
ENDBRANCH  17  24
ENDBRANCH   1  18
TORSDOF 4
ENDMDL
MODEL 6
REMARK VINA RESULT:      -8.4      5.474      8.612
REMARK  Name = 
REMARK  5 active torsions:
REMARK  status: ('A' for Active; 'I' for Inactive)
REMARK    1  A    between atoms: C_1  and  O_2
REMARK    2  A    between atoms: O_2  and  C_3
REMARK    3  A    between atoms: C_6  and  N_7
REMARK    4  A    between atoms: C_8  and  C_10
REMARK    5  A    between atoms: C_13  and  C_14
REMARK                            x       y       z     vdW  Elec       q    Type
REMARK                         _______ _______ _______ _____ _____    ______ ____
ROOT
ATOM      1  C   UNL     1       0.991   9.318  21.239  0.00  0.00    +0.000 C 
ATOM      2  C   UNL     1      -0.480   9.384  20.775  0.00  0.00    +0.000 C 
ATOM      3  C   UNL     1      -0.699  10.831  20.769  0.00  0.00    +0.000 A 
ATOM      4  C   UNL     1      -1.651  11.607  20.134  0.00  0.00    +0.000 A 
ATOM      5  C   UNL     1      -1.795  12.909  20.617  0.00  0.00    +0.000 A 
ATOM      6  C   UNL     1      -0.822  13.399  21.490  0.00  0.00    +0.000 A 
ATOM      7  N   UNL     1       0.309  12.722  21.826  0.00  0.00    +0.000 NA
ATOM      8  C   UNL     1       0.322  11.443  21.440  0.00  0.00    +0.000 A 
ATOM      9  O   UNL     1       1.479  10.645  21.453  0.00  0.00    +0.000 OA
ENDROOT
BRANCH   4  10
ATOM     10  C   UNL     1      -2.112  11.254  18.777  0.00  0.00    +0.000 A 
ATOM     11  C   UNL     1      -1.430  10.393  17.912  0.00  0.00    +0.000 A 
ATOM     12  C   UNL     1      -2.040   9.934  16.735  0.00  0.00    +0.000 A 
ATOM     13  C   UNL     1      -3.335  10.336  16.404  0.00  0.00    +0.000 A 
ATOM     14  C   UNL     1      -4.005  11.214  17.235  0.00  0.00    +0.000 A 
ATOM     15  F   UNL     1      -5.257  11.594  16.945  0.00  0.00    +0.000 F 
ATOM     16  C   UNL     1      -3.410  11.667  18.402  0.00  0.00    +0.000 A 
ENDBRANCH   4  10
BRANCH   1  18
ATOM     17  N   UNL     1       1.846   6.929  20.917  0.00  0.00    +0.000 N 
ATOM     18  C   UNL     1       1.572   8.167  20.373  0.00  0.00    +0.000 C 
ATOM     19  O   UNL     1       1.760   8.433  19.180  0.00  0.00    +0.000 OA
ATOM     20  H   UNL     1       1.854   6.832  21.927  0.00  0.00    +0.000 HD
BRANCH  17  24
ATOM     21  C   UNL     1       3.198   3.697  18.574  0.00  0.00    +0.000 A 
ATOM     22  C   UNL     1       1.931   3.622  19.105  0.00  0.00    +0.000 A 
ATOM     23  C   UNL     1       1.483   4.676  19.897  0.00  0.00    +0.000 A 
ATOM     24  C   UNL     1       2.278   5.810  20.127  0.00  0.00    +0.000 A 
ATOM     25  C   UNL     1       3.544   5.776  19.541  0.00  0.00    +0.000 A 
ATOM     26  N   UNL     1       4.024   4.752  18.773  0.00  0.00    +0.000 NA
BRANCH  21  28
ATOM     27  C   UNL     1       3.592   1.387  18.547  0.00  0.00    +0.000 C 
ATOM     28  O   UNL     1       3.585   2.608  17.824  0.00  0.00    +0.000 OA
ENDBRANCH  21  28
ENDBRANCH  17  24
ENDBRANCH   1  18
TORSDOF 4
ENDMDL
MODEL 7
REMARK VINA RESULT:      -8.3      4.331      6.947
REMARK  Name = 
REMARK  5 active torsions:
REMARK  status: ('A' for Active; 'I' for Inactive)
REMARK    1  A    between atoms: C_1  and  O_2
REMARK    2  A    between atoms: O_2  and  C_3
REMARK    3  A    between atoms: C_6  and  N_7
REMARK    4  A    between atoms: C_8  and  C_10
REMARK    5  A    between atoms: C_13  and  C_14
REMARK                            x       y       z     vdW  Elec       q    Type
REMARK                         _______ _______ _______ _____ _____    ______ ____
ROOT
ATOM      1  C   UNL     1       3.108   8.092  17.609  0.00  0.00    +0.000 C 
ATOM      2  C   UNL     1       2.438   6.703  17.538  0.00  0.00    +0.000 C 
ATOM      3  C   UNL     1       3.613   5.832  17.531  0.00  0.00    +0.000 A 
ATOM      4  C   UNL     1       3.757   4.490  17.832  0.00  0.00    +0.000 A 
ATOM      5  C   UNL     1       4.935   3.890  17.387  0.00  0.00    +0.000 A 
ATOM      6  C   UNL     1       5.962   4.716  16.926  0.00  0.00    +0.000 A 
ATOM      7  N   UNL     1       5.924   6.076  16.972  0.00  0.00    +0.000 NA
ATOM      8  C   UNL     1       4.727   6.583  17.282  0.00  0.00    +0.000 A 
ATOM      9  O   UNL     1       4.528   7.929  17.635  0.00  0.00    +0.000 OA
ENDROOT
BRANCH   4  10
ATOM     10  C   UNL     1       2.975   3.888  18.929  0.00  0.00    +0.000 A 
ATOM     11  C   UNL     1       3.177   4.161  20.285  0.00  0.00    +0.000 A 
ATOM     12  C   UNL     1       2.253   3.724  21.246  0.00  0.00    +0.000 A 
ATOM     13  C   UNL     1       1.121   3.002  20.866  0.00  0.00    +0.000 A 
ATOM     14  C   UNL     1       0.929   2.696  19.531  0.00  0.00    +0.000 A 
ATOM     15  F   UNL     1      -0.162   2.022  19.145  0.00  0.00    +0.000 F 
ATOM     16  C   UNL     1       1.835   3.130  18.576  0.00  0.00    +0.000 A 
ENDBRANCH   4  10
BRANCH   1  18
ATOM     17  N   UNL     1       1.751   8.326  19.764  0.00  0.00    +0.000 N 
ATOM     18  C   UNL     1       2.174   8.875  18.571  0.00  0.00    +0.000 C 
ATOM     19  O   UNL     1       1.847  10.009  18.200  0.00  0.00    +0.000 OA
ATOM     20  H   UNL     1       1.891   7.333  19.920  0.00  0.00    +0.000 HD
BRANCH  17  24
ATOM     21  C   UNL     1      -0.460  10.439  22.664  0.00  0.00    +0.000 A 
ATOM     22  C   UNL     1      -0.913  10.462  21.365  0.00  0.00    +0.000 A 
ATOM     23  C   UNL     1      -0.178   9.785  20.396  0.00  0.00    +0.000 A 
ATOM     24  C   UNL     1       0.978   9.059  20.727  0.00  0.00    +0.000 A 
ATOM     25  C   UNL     1       1.343   9.106  22.073  0.00  0.00    +0.000 A 
ATOM     26  N   UNL     1       0.657   9.775  23.047  0.00  0.00    +0.000 NA
BRANCH  21  28
ATOM     27  C   UNL     1      -2.087  12.100  22.958  0.00  0.00    +0.000 C 
ATOM     28  O   UNL     1      -1.221  11.153  23.563  0.00  0.00    +0.000 OA
ENDBRANCH  21  28
ENDBRANCH  17  24
ENDBRANCH   1  18
TORSDOF 4
ENDMDL
MODEL 8
REMARK VINA RESULT:      -8.3      1.601      2.004
REMARK  Name = 
REMARK  5 active torsions:
REMARK  status: ('A' for Active; 'I' for Inactive)
REMARK    1  A    between atoms: C_1  and  O_2
REMARK    2  A    between atoms: O_2  and  C_3
REMARK    3  A    between atoms: C_6  and  N_7
REMARK    4  A    between atoms: C_8  and  C_10
REMARK    5  A    between atoms: C_13  and  C_14
REMARK                            x       y       z     vdW  Elec       q    Type
REMARK                         _______ _______ _______ _____ _____    ______ ____
ROOT
ATOM      1  C   UNL     1       7.289   6.859  17.766  0.00  0.00    +0.000 C 
ATOM      2  C   UNL     1       5.834   6.993  17.268  0.00  0.00    +0.000 C 
ATOM      3  C   UNL     1       5.205   5.866  17.958  0.00  0.00    +0.000 A 
ATOM      4  C   UNL     1       3.880   5.601  18.252  0.00  0.00    +0.000 A 
ATOM      5  C   UNL     1       3.588   4.282  18.603  0.00  0.00    +0.000 A 
ATOM      6  C   UNL     1       4.652   3.424  18.884  0.00  0.00    +0.000 A 
ATOM      7  N   UNL     1       5.954   3.816  18.930  0.00  0.00    +0.000 NA
ATOM      8  C   UNL     1       6.177   5.046  18.458  0.00  0.00    +0.000 A 
ATOM      9  O   UNL     1       7.385   5.739  18.649  0.00  0.00    +0.000 OA
ENDROOT
BRANCH   4  10
ATOM     10  C   UNL     1       2.969   6.699  18.630  0.00  0.00    +0.000 A 
ATOM     11  C   UNL     1       2.384   6.839  19.891  0.00  0.00    +0.000 A 
ATOM     12  C   UNL     1       1.713   8.021  20.239  0.00  0.00    +0.000 A 
ATOM     13  C   UNL     1       1.612   9.074  19.328  0.00  0.00    +0.000 A 
ATOM     14  C   UNL     1       2.158   8.933  18.066  0.00  0.00    +0.000 A 
ATOM     15  F   UNL     1       2.089   9.941  17.186  0.00  0.00    +0.000 F 
ATOM     16  C   UNL     1       2.827   7.769  17.718  0.00  0.00    +0.000 A 
ENDBRANCH   4  10
BRANCH   1  18
ATOM     17  N   UNL     1       8.702   8.677  18.880  0.00  0.00    +0.000 N 
ATOM     18  C   UNL     1       7.716   8.338  17.977  0.00  0.00    +0.000 C 
ATOM     19  O   UNL     1       7.123   9.173  17.284  0.00  0.00    +0.000 OA
ATOM     20  H   UNL     1       9.010   7.979  19.551  0.00  0.00    +0.000 HD
BRANCH  17  24
ATOM     21  C   UNL     1      10.133  12.608  19.397  0.00  0.00    +0.000 A 
ATOM     22  C   UNL     1      10.107  12.094  18.121  0.00  0.00    +0.000 A 
ATOM     23  C   UNL     1       9.655  10.789  17.943  0.00  0.00    +0.000 A 
ATOM     24  C   UNL     1       9.198  10.017  19.024  0.00  0.00    +0.000 A 
ATOM     25  C   UNL     1       9.271  10.640  20.271  0.00  0.00    +0.000 A 
ATOM     26  N   UNL     1       9.725  11.910  20.485  0.00  0.00    +0.000 NA
BRANCH  21  28
ATOM     27  C   UNL     1      11.468  14.275  18.434  0.00  0.00    +0.000 C 
ATOM     28  O   UNL     1      10.617  13.893  19.503  0.00  0.00    +0.000 OA
ENDBRANCH  21  28
ENDBRANCH  17  24
ENDBRANCH   1  18
TORSDOF 4
ENDMDL
MODEL 9
REMARK VINA RESULT:      -8.2      5.349      7.157
REMARK  Name = 
REMARK  5 active torsions:
REMARK  status: ('A' for Active; 'I' for Inactive)
REMARK    1  A    between atoms: C_1  and  O_2
REMARK    2  A    between atoms: O_2  and  C_3
REMARK    3  A    between atoms: C_6  and  N_7
REMARK    4  A    between atoms: C_8  and  C_10
REMARK    5  A    between atoms: C_13  and  C_14
REMARK                            x       y       z     vdW  Elec       q    Type
REMARK                         _______ _______ _______ _____ _____    ______ ____
ROOT
ATOM      1  C   UNL     1       1.736   5.466  20.737  0.00  0.00    +0.000 C 
ATOM      2  C   UNL     1       3.131   5.347  20.088  0.00  0.00    +0.000 C 
ATOM      3  C   UNL     1       2.970   4.112  19.320  0.00  0.00    +0.000 A 
ATOM      4  C   UNL     1       3.678   3.607  18.245  0.00  0.00    +0.000 A 
ATOM      5  C   UNL     1       3.491   2.250  17.977  0.00  0.00    +0.000 A 
ATOM      6  C   UNL     1       2.441   1.591  18.618  0.00  0.00    +0.000 A 
ATOM      7  N   UNL     1       1.528   2.209  19.416  0.00  0.00    +0.000 NA
ATOM      8  C   UNL     1       1.838   3.469  19.735  0.00  0.00    +0.000 A 
ATOM      9  O   UNL     1       0.926   4.363  20.323  0.00  0.00    +0.000 OA
ENDROOT
BRANCH   4  10
ATOM     10  C   UNL     1       4.190   4.515  17.201  0.00  0.00    +0.000 A 
ATOM     11  C   UNL     1       4.188   5.910  17.298  0.00  0.00    +0.000 A 
ATOM     12  C   UNL     1       4.890   6.691  16.369  0.00  0.00    +0.000 A 
ATOM     13  C   UNL     1       5.596   6.090  15.326  0.00  0.00    +0.000 A 
ATOM     14  C   UNL     1       5.576   4.713  15.200  0.00  0.00    +0.000 A 
ATOM     15  F   UNL     1       6.265   4.116  14.217  0.00  0.00    +0.000 F 
ATOM     16  C   UNL     1       4.889   3.935  16.118  0.00  0.00    +0.000 A 
ENDBRANCH   4  10
BRANCH   1  18
ATOM     17  N   UNL     1       0.408   7.560  21.364  0.00  0.00    +0.000 N 
ATOM     18  C   UNL     1       1.456   6.992  20.669  0.00  0.00    +0.000 C 
ATOM     19  O   UNL     1       2.232   7.651  19.966  0.00  0.00    +0.000 OA
ATOM     20  H   UNL     1      -0.300   6.951  21.761  0.00  0.00    +0.000 HD
BRANCH  17  24
ATOM     21  C   UNL     1      -0.255  11.716  21.608  0.00  0.00    +0.000 A 
ATOM     22  C   UNL     1      -0.212  11.142  20.358  0.00  0.00    +0.000 A 
ATOM     23  C   UNL     1       0.027   9.774  20.266  0.00  0.00    +0.000 A 
ATOM     24  C   UNL     1       0.184   8.978  21.413  0.00  0.00    +0.000 A 
ATOM     25  C   UNL     1       0.123   9.667  22.626  0.00  0.00    +0.000 A 
ATOM     26  N   UNL     1      -0.091  11.010  22.753  0.00  0.00    +0.000 NA
BRANCH  21  28
ATOM     27  C   UNL     1      -0.412  13.680  20.339  0.00  0.00    +0.000 C 
ATOM     28  O   UNL     1      -0.468  13.077  21.622  0.00  0.00    +0.000 OA
ENDBRANCH  21  28
ENDBRANCH  17  24
ENDBRANCH   1  18
TORSDOF 4
ENDMDL
