MODEL 1
REMARK VINA RESULT:      -6.8      0.000      0.000
REMARK  Name = 
REMARK  7 active torsions:
REMARK  status: ('A' for Active; 'I' for Inactive)
REMARK    1  A    between atoms: C_1  and  C_2
REMARK    2  A    between atoms: C_2  and  O_3
REMARK    3  A    between atoms: O_3  and  C_4
REMARK    4  A    between atoms: C_4  and  C_6
REMARK    5  A    between atoms: C_6  and  C_7
REMARK    6  A    between atoms: N_13  and  S_14
REMARK    7  A    between atoms: S_14  and  C_17
REMARK                            x       y       z     vdW  Elec       q    Type
REMARK                         _______ _______ _______ _____ _____    ______ ____
ROOT
ATOM      1  C   UNL     1       2.283   4.925  18.979  0.00  0.00    +0.000 C 
ATOM      2  C   UNL     1       1.498   4.875  20.303  0.00  0.00    +0.000 C 
ATOM      3  O   UNL     1       1.297   5.879  20.993  0.00  0.00    +0.000 OA
ATOM      4  N   UNL     1       0.916   3.695  20.674  0.00  0.00    +0.000 N 
ATOM      5  C   UNL     1       1.263   2.444  20.043  0.00  0.00    +0.000 C 
ATOM      6  C   UNL     1       1.478   2.623  18.535  0.00  0.00    +0.000 C 
ATOM      7  N   UNL     1       2.586   3.604  18.261  0.00  0.00    +0.000 NA
ATOM      8  H   UNL     1       0.551   3.697  21.621  0.00  0.00    +0.000 HD
ENDROOT
BRANCH   7   9
ATOM      9  S   UNL     1       4.160   2.937  18.292  0.00  0.00    +0.000 S 
ATOM     10  O   UNL     1       4.819   3.307  19.527  0.00  0.00    +0.000 OA
ATOM     11  O   UNL     1       4.091   1.565  17.857  0.00  0.00    +0.000 OA
BRANCH   9  12
ATOM     12  C   UNL     1       5.060   3.821  17.012  0.00  0.00    +0.000 A 
ATOM     13  C   UNL     1       6.247   4.486  17.341  0.00  0.00    +0.000 A 
ATOM     14  C   UNL     1       7.071   4.990  16.327  0.00  0.00    +0.000 A 
ATOM     15  C   UNL     1       6.720   4.815  14.983  0.00  0.00    +0.000 A 
ATOM     16 CL   UNL     1       7.799   5.433  13.783  0.00  0.00    +0.000 Cl
ATOM     17  C   UNL     1       5.539   4.136  14.655  0.00  0.00    +0.000 A 
ATOM     18 CL   UNL     1       5.073   3.838  13.016  0.00  0.00    +0.000 Cl
ATOM     19  C   UNL     1       4.710   3.638  15.668  0.00  0.00    +0.000 A 
ENDBRANCH   9  12
ENDBRANCH   7   9
BRANCH   1  20
ATOM     20  C   UNL     1       3.424   5.937  19.129  0.00  0.00    +0.000 C 
BRANCH  20  21
ATOM     21  C   UNL     1       3.279   7.073  18.146  0.00  0.00    +0.000 C 
ATOM     22  O   UNL     1       4.067   7.312  17.240  0.00  0.00    +0.000 OA
BRANCH  21  23
ATOM     23  O   UNL     1       2.196   7.838  18.459  0.00  0.00    +0.000 OA
BRANCH  23  25
ATOM     24  C   UNL     1       0.847   9.788  18.140  0.00  0.00    +0.000 C 
ATOM     25  C   UNL     1       2.152   9.100  17.779  0.00  0.00    +0.000 C 
ENDBRANCH  23  25
ENDBRANCH  21  23
ENDBRANCH  20  21
ENDBRANCH   1  20
TORSDOF 6
ENDMDL
MODEL 2
REMARK VINA RESULT:      -6.8      3.939      6.078
REMARK  Name = 
REMARK  7 active torsions:
REMARK  status: ('A' for Active; 'I' for Inactive)
REMARK    1  A    between atoms: C_1  and  C_2
REMARK    2  A    between atoms: C_2  and  O_3
REMARK    3  A    between atoms: O_3  and  C_4
REMARK    4  A    between atoms: C_4  and  C_6
REMARK    5  A    between atoms: C_6  and  C_7
REMARK    6  A    between atoms: N_13  and  S_14
REMARK    7  A    between atoms: S_14  and  C_17
REMARK                            x       y       z     vdW  Elec       q    Type
REMARK                         _______ _______ _______ _____ _____    ______ ____
ROOT
ATOM      1  C   UNL     1       4.616   4.327  19.663  0.00  0.00    +0.000 C 
ATOM      2  C   UNL     1       4.219   2.857  19.894  0.00  0.00    +0.000 C 
ATOM      3  O   UNL     1       5.022   1.926  19.770  0.00  0.00    +0.000 OA
ATOM      4  N   UNL     1       2.961   2.583  20.352  0.00  0.00    +0.000 N 
ATOM      5  C   UNL     1       1.912   3.574  20.332  0.00  0.00    +0.000 C 
ATOM      6  C   UNL     1       2.452   4.963  20.691  0.00  0.00    +0.000 C 
ATOM      7  N   UNL     1       3.517   5.395  19.720  0.00  0.00    +0.000 NA
ATOM      8  H   UNL     1       2.722   1.597  20.333  0.00  0.00    +0.000 HD
ENDROOT
BRANCH   7   9
ATOM      9  S   UNL     1       2.931   6.119  18.285  0.00  0.00    +0.000 S 
ATOM     10  O   UNL     1       4.046   6.485  17.437  0.00  0.00    +0.000 OA
ATOM     11  O   UNL     1       1.831   5.333  17.785  0.00  0.00    +0.000 OA
BRANCH   9  12
ATOM     12  C   UNL     1       2.226   7.685  18.813  0.00  0.00    +0.000 A 
ATOM     13  C   UNL     1       1.900   8.650  17.854  0.00  0.00    +0.000 A 
ATOM     14  C   UNL     1       1.154   9.777  18.221  0.00  0.00    +0.000 A 
ATOM     15  C   UNL     1       0.718   9.933  19.543  0.00  0.00    +0.000 A 
ATOM     16 CL   UNL     1      -0.226  11.331  19.918  0.00  0.00    +0.000 Cl
ATOM     17  C   UNL     1       1.034   8.959  20.499  0.00  0.00    +0.000 A 
ATOM     18 CL   UNL     1       0.484   9.062  22.135  0.00  0.00    +0.000 Cl
ATOM     19  C   UNL     1       1.786   7.835  20.135  0.00  0.00    +0.000 A 
ENDBRANCH   9  12
ENDBRANCH   7   9
BRANCH   1  20
ATOM     20  C   UNL     1       5.612   4.384  18.500  0.00  0.00    +0.000 C 
BRANCH  20  21
ATOM     21  C   UNL     1       6.889   5.079  18.908  0.00  0.00    +0.000 C 
ATOM     22  O   UNL     1       7.164   5.408  20.055  0.00  0.00    +0.000 OA
BRANCH  21  23
ATOM     23  O   UNL     1       7.651   5.355  17.814  0.00  0.00    +0.000 OA
BRANCH  23  25
ATOM     24  C   UNL     1       7.752   7.738  17.630  0.00  0.00    +0.000 C 
ATOM     25  C   UNL     1       7.181   6.464  17.035  0.00  0.00    +0.000 C 
ENDBRANCH  23  25
ENDBRANCH  21  23
ENDBRANCH  20  21
ENDBRANCH   1  20
TORSDOF 6
ENDMDL
MODEL 3
REMARK VINA RESULT:      -6.2      3.993      6.228
REMARK  Name = 
REMARK  7 active torsions:
REMARK  status: ('A' for Active; 'I' for Inactive)
REMARK    1  A    between atoms: C_1  and  C_2
REMARK    2  A    between atoms: C_2  and  O_3
REMARK    3  A    between atoms: O_3  and  C_4
REMARK    4  A    between atoms: C_4  and  C_6
REMARK    5  A    between atoms: C_6  and  C_7
REMARK    6  A    between atoms: N_13  and  S_14
REMARK    7  A    between atoms: S_14  and  C_17
REMARK                            x       y       z     vdW  Elec       q    Type
REMARK                         _______ _______ _______ _____ _____    ______ ____
ROOT
ATOM      1  C   UNL     1       4.241   4.356  19.531  0.00  0.00    +0.000 C 
ATOM      2  C   UNL     1       3.663   2.929  19.489  0.00  0.00    +0.000 C 
ATOM      3  O   UNL     1       4.340   1.949  19.158  0.00  0.00    +0.000 OA
ATOM      4  N   UNL     1       2.386   2.726  19.931  0.00  0.00    +0.000 N 
ATOM      5  C   UNL     1       1.471   3.823  20.141  0.00  0.00    +0.000 C 
ATOM      6  C   UNL     1       2.187   5.038  20.741  0.00  0.00    +0.000 C 
ATOM      7  N   UNL     1       3.287   5.518  19.833  0.00  0.00    +0.000 NA
ATOM      8  H   UNL     1       2.024   1.800  19.731  0.00  0.00    +0.000 HD
ENDROOT
BRANCH   7   9
ATOM      9  S   UNL     1       2.780   6.575  18.588  0.00  0.00    +0.000 S 
ATOM     10  O   UNL     1       3.927   7.282  18.056  0.00  0.00    +0.000 OA
ATOM     11  O   UNL     1       1.863   5.872  17.727  0.00  0.00    +0.000 OA
BRANCH   9  12
ATOM     12  C   UNL     1       1.813   7.840  19.421  0.00  0.00    +0.000 A 
ATOM     13  C   UNL     1       1.587   7.737  20.798  0.00  0.00    +0.000 A 
ATOM     14  C   UNL     1       1.030   8.814  21.498  0.00  0.00    +0.000 A 
ATOM     15  C   UNL     1       0.712  10.001  20.827  0.00  0.00    +0.000 A 
ATOM     16 CL   UNL     1       0.058  11.302  21.759  0.00  0.00    +0.000 Cl
ATOM     17  C   UNL     1       0.952  10.107  19.451  0.00  0.00    +0.000 A 
ATOM     18 CL   UNL     1       0.634  11.562  18.571  0.00  0.00    +0.000 Cl
ATOM     19  C   UNL     1       1.503   9.029  18.747  0.00  0.00    +0.000 A 
ENDBRANCH   9  12
ENDBRANCH   7   9
BRANCH   1  20
ATOM     20  C   UNL     1       5.222   4.518  18.365  0.00  0.00    +0.000 C 
BRANCH  20  21
ATOM     21  C   UNL     1       6.568   5.001  18.848  0.00  0.00    +0.000 C 
ATOM     22  O   UNL     1       6.834   5.267  20.013  0.00  0.00    +0.000 OA
BRANCH  21  23
ATOM     23  O   UNL     1       7.417   5.173  17.797  0.00  0.00    +0.000 OA
BRANCH  23  25
ATOM     24  C   UNL     1       7.600   7.540  17.504  0.00  0.00    +0.000 C 
ATOM     25  C   UNL     1       7.057   6.249  16.919  0.00  0.00    +0.000 C 
ENDBRANCH  23  25
ENDBRANCH  21  23
ENDBRANCH  20  21
ENDBRANCH   1  20
TORSDOF 6
ENDMDL
MODEL 4
REMARK VINA RESULT:      -6.1      4.088      6.762
REMARK  Name = 
REMARK  7 active torsions:
REMARK  status: ('A' for Active; 'I' for Inactive)
REMARK    1  A    between atoms: C_1  and  C_2
REMARK    2  A    between atoms: C_2  and  O_3
REMARK    3  A    between atoms: O_3  and  C_4
REMARK    4  A    between atoms: C_4  and  C_6
REMARK    5  A    between atoms: C_6  and  C_7
REMARK    6  A    between atoms: N_13  and  S_14
REMARK    7  A    between atoms: S_14  and  C_17
REMARK                            x       y       z     vdW  Elec       q    Type
REMARK                         _______ _______ _______ _____ _____    ______ ____
ROOT
ATOM      1  C   UNL     1       5.741   5.170  15.109  0.00  0.00    +0.000 C 
ATOM      2  C   UNL     1       7.217   5.569  15.298  0.00  0.00    +0.000 C 
ATOM      3  O   UNL     1       8.112   5.177  14.542  0.00  0.00    +0.000 OA
ATOM      4  N   UNL     1       7.530   6.471  16.275  0.00  0.00    +0.000 N 
ATOM      5  C   UNL     1       6.594   6.820  17.317  0.00  0.00    +0.000 C 
ATOM      6  C   UNL     1       5.164   6.917  16.770  0.00  0.00    +0.000 C 
ATOM      7  N   UNL     1       4.726   5.607  16.172  0.00  0.00    +0.000 NA
ATOM      8  H   UNL     1       8.526   6.568  16.442  0.00  0.00    +0.000 HD
ENDROOT
BRANCH   7   9
ATOM      9  S   UNL     1       4.100   4.479  17.294  0.00  0.00    +0.000 S 
ATOM     10  O   UNL     1       3.181   3.585  16.620  0.00  0.00    +0.000 OA
ATOM     11  O   UNL     1       5.182   3.977  18.102  0.00  0.00    +0.000 OA
BRANCH   9  12
ATOM     12  C   UNL     1       3.064   5.450  18.395  0.00  0.00    +0.000 A 
ATOM     13  C   UNL     1       2.844   5.005  19.704  0.00  0.00    +0.000 A 
ATOM     14  C   UNL     1       2.228   5.848  20.636  0.00  0.00    +0.000 A 
ATOM     15  C   UNL     1       1.846   7.144  20.268  0.00  0.00    +0.000 A 
ATOM     16 CL   UNL     1       1.120   8.143  21.478  0.00  0.00    +0.000 Cl
ATOM     17  C   UNL     1       2.079   7.593  18.962  0.00  0.00    +0.000 A 
ATOM     18 CL   UNL     1       1.681   9.198  18.456  0.00  0.00    +0.000 Cl
ATOM     19  C   UNL     1       2.689   6.749  18.026  0.00  0.00    +0.000 A 
ENDBRANCH   9  12
ENDBRANCH   7   9
BRANCH   1  20
ATOM     20  C   UNL     1       5.689   3.718  14.623  0.00  0.00    +0.000 C 
BRANCH  20  21
ATOM     21  C   UNL     1       5.752   3.643  13.116  0.00  0.00    +0.000 C 
ATOM     22  O   UNL     1       6.788   3.572  12.467  0.00  0.00    +0.000 OA
BRANCH  21  23
ATOM     23  O   UNL     1       4.504   3.745  12.582  0.00  0.00    +0.000 OA
BRANCH  23  25
ATOM     24  C   UNL     1       3.416   3.773  10.451  0.00  0.00    +0.000 C 
ATOM     25  C   UNL     1       4.313   2.979  11.384  0.00  0.00    +0.000 C 
ENDBRANCH  23  25
ENDBRANCH  21  23
ENDBRANCH  20  21
ENDBRANCH   1  20
TORSDOF 6
ENDMDL
MODEL 5
REMARK VINA RESULT:      -6.1      3.909      6.657
REMARK  Name = 
REMARK  7 active torsions:
REMARK  status: ('A' for Active; 'I' for Inactive)
REMARK    1  A    between atoms: C_1  and  C_2
REMARK    2  A    between atoms: C_2  and  O_3
REMARK    3  A    between atoms: O_3  and  C_4
REMARK    4  A    between atoms: C_4  and  C_6
REMARK    5  A    between atoms: C_6  and  C_7
REMARK    6  A    between atoms: N_13  and  S_14
REMARK    7  A    between atoms: S_14  and  C_17
REMARK                            x       y       z     vdW  Elec       q    Type
REMARK                         _______ _______ _______ _____ _____    ______ ____
ROOT
ATOM      1  C   UNL     1       6.148   5.124  16.770  0.00  0.00    +0.000 C 
ATOM      2  C   UNL     1       7.467   4.616  17.381  0.00  0.00    +0.000 C 
ATOM      3  O   UNL     1       8.309   3.998  16.721  0.00  0.00    +0.000 OA
ATOM      4  N   UNL     1       7.761   4.949  18.673  0.00  0.00    +0.000 N 
ATOM      5  C   UNL     1       6.762   5.485  19.566  0.00  0.00    +0.000 C 
ATOM      6  C   UNL     1       5.826   6.456  18.836  0.00  0.00    +0.000 C 
ATOM      7  N   UNL     1       5.114   5.769  17.702  0.00  0.00    +0.000 NA
ATOM      8  H   UNL     1       8.562   4.456  19.053  0.00  0.00    +0.000 HD
ENDROOT
BRANCH   7   9
ATOM      9  S   UNL     1       3.698   4.921  18.152  0.00  0.00    +0.000 S 
ATOM     10  O   UNL     1       2.998   4.483  16.962  0.00  0.00    +0.000 OA
ATOM     11  O   UNL     1       4.024   4.004  19.215  0.00  0.00    +0.000 OA
BRANCH   9  12
ATOM     12  C   UNL     1       2.626   6.167  18.878  0.00  0.00    +0.000 A 
ATOM     13  C   UNL     1       2.159   5.995  20.186  0.00  0.00    +0.000 A 
ATOM     14  C   UNL     1       1.510   7.048  20.842  0.00  0.00    +0.000 A 
ATOM     15  C   UNL     1       1.341   8.280  20.199  0.00  0.00    +0.000 A 
ATOM     16 CL   UNL     1       0.561   9.546  21.079  0.00  0.00    +0.000 Cl
ATOM     17  C   UNL     1       1.822   8.456  18.895  0.00  0.00    +0.000 A 
ATOM     18 CL   UNL     1       1.695   9.966  18.062  0.00  0.00    +0.000 Cl
ATOM     19  C   UNL     1       2.465   7.401  18.234  0.00  0.00    +0.000 A 
ENDBRANCH   9  12
ENDBRANCH   7   9
BRANCH   1  20
ATOM     20  C   UNL     1       5.650   4.088  15.757  0.00  0.00    +0.000 C 
BRANCH  20  21
ATOM     21  C   UNL     1       6.275   4.308  14.400  0.00  0.00    +0.000 C 
ATOM     22  O   UNL     1       6.805   5.351  14.040  0.00  0.00    +0.000 OA
BRANCH  21  23
ATOM     23  O   UNL     1       6.097   3.212  13.611  0.00  0.00    +0.000 OA
BRANCH  23  25
ATOM     24  C   UNL     1       5.542   2.209  11.511  0.00  0.00    +0.000 C 
ATOM     25  C   UNL     1       5.637   3.511  12.285  0.00  0.00    +0.000 C 
ENDBRANCH  23  25
ENDBRANCH  21  23
ENDBRANCH  20  21
ENDBRANCH   1  20
TORSDOF 6
ENDMDL
MODEL 6
REMARK VINA RESULT:      -6.0      1.352      1.897
REMARK  Name = 
REMARK  7 active torsions:
REMARK  status: ('A' for Active; 'I' for Inactive)
REMARK    1  A    between atoms: C_1  and  C_2
REMARK    2  A    between atoms: C_2  and  O_3
REMARK    3  A    between atoms: O_3  and  C_4
REMARK    4  A    between atoms: C_4  and  C_6
REMARK    5  A    between atoms: C_6  and  C_7
REMARK    6  A    between atoms: N_13  and  S_14
REMARK    7  A    between atoms: S_14  and  C_17
REMARK                            x       y       z     vdW  Elec       q    Type
REMARK                         _______ _______ _______ _____ _____    ______ ____
ROOT
ATOM      1  C   UNL     1       2.172   4.426  19.266  0.00  0.00    +0.000 C 
ATOM      2  C   UNL     1       1.467   3.149  19.761  0.00  0.00    +0.000 C 
ATOM      3  O   UNL     1       0.705   3.148  20.734  0.00  0.00    +0.000 OA
ATOM      4  N   UNL     1       1.609   2.000  19.036  0.00  0.00    +0.000 N 
ATOM      5  C   UNL     1       2.624   1.863  18.019  0.00  0.00    +0.000 C 
ATOM      6  C   UNL     1       2.795   3.164  17.225  0.00  0.00    +0.000 C 
ATOM      7  N   UNL     1       3.194   4.298  18.130  0.00  0.00    +0.000 NA
ATOM      8  H   UNL     1       1.248   1.174  19.501  0.00  0.00    +0.000 HD
ENDROOT
BRANCH   7   9
ATOM      9  S   UNL     1       4.870   4.407  18.449  0.00  0.00    +0.000 S 
ATOM     10  O   UNL     1       5.131   5.567  19.277  0.00  0.00    +0.000 OA
ATOM     11  O   UNL     1       5.360   3.100  18.808  0.00  0.00    +0.000 OA
BRANCH   9  12
ATOM     12  C   UNL     1       5.618   4.802  16.864  0.00  0.00    +0.000 A 
ATOM     13  C   UNL     1       6.872   5.423  16.830  0.00  0.00    +0.000 A 
ATOM     14  C   UNL     1       7.563   5.537  15.618  0.00  0.00    +0.000 A 
ATOM     15  C   UNL     1       7.011   5.018  14.441  0.00  0.00    +0.000 A 
ATOM     16 CL   UNL     1       7.934   5.166  12.986  0.00  0.00    +0.000 Cl
ATOM     17  C   UNL     1       5.762   4.385  14.478  0.00  0.00    +0.000 A 
ATOM     18 CL   UNL     1       5.047   3.675  13.073  0.00  0.00    +0.000 Cl
ATOM     19  C   UNL     1       5.065   4.275  15.688  0.00  0.00    +0.000 A 
ENDBRANCH   9  12
ENDBRANCH   7   9
BRANCH   1  20
ATOM     20  C   UNL     1       2.556   5.272  20.484  0.00  0.00    +0.000 C 
BRANCH  20  21
ATOM     21  C   UNL     1       1.930   6.644  20.415  0.00  0.00    +0.000 C 
ATOM     22  O   UNL     1       1.145   7.091  21.242  0.00  0.00    +0.000 OA
BRANCH  21  23
ATOM     23  O   UNL     1       2.300   7.280  19.269  0.00  0.00    +0.000 OA
BRANCH  23  25
ATOM     24  C   UNL     1       1.557   8.950  17.726  0.00  0.00    +0.000 C 
ATOM     25  C   UNL     1       1.855   8.641  19.182  0.00  0.00    +0.000 C 
ENDBRANCH  23  25
ENDBRANCH  21  23
ENDBRANCH  20  21
ENDBRANCH   1  20
TORSDOF 6
ENDMDL
MODEL 7
REMARK VINA RESULT:      -6.0      3.882      5.960
REMARK  Name = 
REMARK  7 active torsions:
REMARK  status: ('A' for Active; 'I' for Inactive)
REMARK    1  A    between atoms: C_1  and  C_2
REMARK    2  A    between atoms: C_2  and  O_3
REMARK    3  A    between atoms: O_3  and  C_4
REMARK    4  A    between atoms: C_4  and  C_6
REMARK    5  A    between atoms: C_6  and  C_7
REMARK    6  A    between atoms: N_13  and  S_14
REMARK    7  A    between atoms: S_14  and  C_17
REMARK                            x       y       z     vdW  Elec       q    Type
REMARK                         _______ _______ _______ _____ _____    ______ ____
ROOT
ATOM      1  C   UNL     1       4.393   4.711  17.957  0.00  0.00    +0.000 C 
ATOM      2  C   UNL     1       4.777   3.447  17.165  0.00  0.00    +0.000 C 
ATOM      3  O   UNL     1       5.401   3.496  16.100  0.00  0.00    +0.000 OA
ATOM      4  N   UNL     1       4.508   2.225  17.714  0.00  0.00    +0.000 N 
ATOM      5  C   UNL     1       3.617   2.076  18.839  0.00  0.00    +0.000 C 
ATOM      6  C   UNL     1       3.794   3.220  19.845  0.00  0.00    +0.000 C 
ATOM      7  N   UNL     1       3.511   4.551  19.201  0.00  0.00    +0.000 NA
ATOM      8  H   UNL     1       4.647   1.449  17.076  0.00  0.00    +0.000 HD
ENDROOT
BRANCH   7   9
ATOM      9  S   UNL     1       1.859   4.993  19.162  0.00  0.00    +0.000 S 
ATOM     10  O   UNL     1       1.348   4.834  17.816  0.00  0.00    +0.000 OA
ATOM     11  O   UNL     1       1.193   4.402  20.295  0.00  0.00    +0.000 OA
BRANCH   9  12
ATOM     12  C   UNL     1       1.849   6.767  19.446  0.00  0.00    +0.000 A 
ATOM     13  C   UNL     1       1.909   7.639  18.354  0.00  0.00    +0.000 A 
ATOM     14  C   UNL     1       1.682   9.009  18.539  0.00  0.00    +0.000 A 
ATOM     15  C   UNL     1       1.379   9.507  19.812  0.00  0.00    +0.000 A 
ATOM     16 CL   UNL     1       1.078  11.202  19.962  0.00  0.00    +0.000 Cl
ATOM     17  C   UNL     1       1.307   8.630  20.902  0.00  0.00    +0.000 A 
ATOM     18 CL   UNL     1       0.885   9.169  22.490  0.00  0.00    +0.000 Cl
ATOM     19  C   UNL     1       1.540   7.261  20.721  0.00  0.00    +0.000 A 
ENDBRANCH   9  12
ENDBRANCH   7   9
BRANCH   1  20
ATOM     20  C   UNL     1       4.031   5.817  16.960  0.00  0.00    +0.000 C 
BRANCH  20  21
ATOM     21  C   UNL     1       5.255   6.590  16.533  0.00  0.00    +0.000 C 
ATOM     22  O   UNL     1       5.578   6.791  15.369  0.00  0.00    +0.000 OA
BRANCH  21  23
ATOM     23  O   UNL     1       5.987   6.962  17.620  0.00  0.00    +0.000 OA
BRANCH  23  25
ATOM     24  C   UNL     1       7.859   6.140  18.862  0.00  0.00    +0.000 C 
ATOM     25  C   UNL     1       7.386   6.661  17.517  0.00  0.00    +0.000 C 
ENDBRANCH  23  25
ENDBRANCH  21  23
ENDBRANCH  20  21
ENDBRANCH   1  20
TORSDOF 6
ENDMDL
MODEL 8
REMARK VINA RESULT:      -5.9      4.325      6.420
REMARK  Name = 
REMARK  7 active torsions:
REMARK  status: ('A' for Active; 'I' for Inactive)
REMARK    1  A    between atoms: C_1  and  C_2
REMARK    2  A    between atoms: C_2  and  O_3
REMARK    3  A    between atoms: O_3  and  C_4
REMARK    4  A    between atoms: C_4  and  C_6
REMARK    5  A    between atoms: C_6  and  C_7
REMARK    6  A    between atoms: N_13  and  S_14
REMARK    7  A    between atoms: S_14  and  C_17
REMARK                            x       y       z     vdW  Elec       q    Type
REMARK                         _______ _______ _______ _____ _____    ______ ____
ROOT
ATOM      1  C   UNL     1       5.765   5.800  18.676  0.00  0.00    +0.000 C 
ATOM      2  C   UNL     1       6.298   4.367  18.492  0.00  0.00    +0.000 C 
ATOM      3  O   UNL     1       7.445   4.132  18.098  0.00  0.00    +0.000 OA
ATOM      4  N   UNL     1       5.508   3.320  18.877  0.00  0.00    +0.000 N 
ATOM      5  C   UNL     1       4.102   3.490  19.153  0.00  0.00    +0.000 C 
ATOM      6  C   UNL     1       3.834   4.815  19.878  0.00  0.00    +0.000 C 
ATOM      7  N   UNL     1       4.289   5.985  19.049  0.00  0.00    +0.000 NA
ATOM      8  H   UNL     1       5.857   2.413  18.586  0.00  0.00    +0.000 HD
ENDROOT
BRANCH   7   9
ATOM      9  S   UNL     1       3.158   6.524  17.885  0.00  0.00    +0.000 S 
ATOM     10  O   UNL     1       3.861   7.047  16.732  0.00  0.00    +0.000 OA
ATOM     11  O   UNL     1       2.122   5.532  17.750  0.00  0.00    +0.000 OA
BRANCH   9  12
ATOM     12  C   UNL     1       2.378   7.961  18.631  0.00  0.00    +0.000 A 
ATOM     13  C   UNL     1       2.036   9.054  17.827  0.00  0.00    +0.000 A 
ATOM     14  C   UNL     1       1.236  10.080  18.344  0.00  0.00    +0.000 A 
ATOM     15  C   UNL     1       0.762  10.009  19.660  0.00  0.00    +0.000 A 
ATOM     16 CL   UNL     1      -0.246  11.295  20.222  0.00  0.00    +0.000 Cl
ATOM     17  C   UNL     1       1.094   8.908  20.460  0.00  0.00    +0.000 A 
ATOM     18 CL   UNL     1       0.500   8.730  22.074  0.00  0.00    +0.000 Cl
ATOM     19  C   UNL     1       1.900   7.883  19.947  0.00  0.00    +0.000 A 
ENDBRANCH   9  12
ENDBRANCH   7   9
BRANCH   1  20
ATOM     20  C   UNL     1       6.337   6.679  17.559  0.00  0.00    +0.000 C 
BRANCH  20  21
ATOM     21  C   UNL     1       7.650   7.300  17.971  0.00  0.00    +0.000 C 
ATOM     22  O   UNL     1       8.321   6.936  18.928  0.00  0.00    +0.000 OA
BRANCH  21  23
ATOM     23  O   UNL     1       7.941   8.369  17.178  0.00  0.00    +0.000 OA
BRANCH  23  25
ATOM     24  C   UNL     1       9.080  10.117  18.348  0.00  0.00    +0.000 C 
ATOM     25  C   UNL     1       7.742   9.641  17.811  0.00  0.00    +0.000 C 
ENDBRANCH  23  25
ENDBRANCH  21  23
ENDBRANCH  20  21
ENDBRANCH   1  20
TORSDOF 6
ENDMDL
MODEL 9
REMARK VINA RESULT:      -5.8      1.090      1.848
REMARK  Name = 
REMARK  7 active torsions:
REMARK  status: ('A' for Active; 'I' for Inactive)
REMARK    1  A    between atoms: C_1  and  C_2
REMARK    2  A    between atoms: C_2  and  O_3
REMARK    3  A    between atoms: O_3  and  C_4
REMARK    4  A    between atoms: C_4  and  C_6
REMARK    5  A    between atoms: C_6  and  C_7
REMARK    6  A    between atoms: N_13  and  S_14
REMARK    7  A    between atoms: S_14  and  C_17
REMARK                            x       y       z     vdW  Elec       q    Type
REMARK                         _______ _______ _______ _____ _____    ______ ____
ROOT
ATOM      1  C   UNL     1       2.563   5.294  18.735  0.00  0.00    +0.000 C 
ATOM      2  C   UNL     1       1.827   5.381  20.085  0.00  0.00    +0.000 C 
ATOM      3  O   UNL     1       1.768   6.426  20.742  0.00  0.00    +0.000 OA
ATOM      4  N   UNL     1       1.128   4.291  20.521  0.00  0.00    +0.000 N 
ATOM      5  C   UNL     1       1.305   2.987  19.928  0.00  0.00    +0.000 C 
ATOM      6  C   UNL     1       1.483   3.087  18.407  0.00  0.00    +0.000 C 
ATOM      7  N   UNL     1       2.685   3.923  18.060  0.00  0.00    +0.000 NA
ATOM      8  H   UNL     1       0.802   4.367  21.478  0.00  0.00    +0.000 HD
ENDROOT
BRANCH   7   9
ATOM      9  S   UNL     1       4.173   3.079  18.064  0.00  0.00    +0.000 S 
ATOM     10  O   UNL     1       4.907   3.398  19.271  0.00  0.00    +0.000 OA
ATOM     11  O   UNL     1       3.934   1.715  17.666  0.00  0.00    +0.000 OA
BRANCH   9  12
ATOM     12  C   UNL     1       5.130   3.825  16.739  0.00  0.00    +0.000 A 
ATOM     13  C   UNL     1       6.433   4.266  16.995  0.00  0.00    +0.000 A 
ATOM     14  C   UNL     1       7.266   4.644  15.935  0.00  0.00    +0.000 A 
ATOM     15  C   UNL     1       6.805   4.566  14.616  0.00  0.00    +0.000 A 
ATOM     16 CL   UNL     1       7.896   5.017  13.354  0.00  0.00    +0.000 Cl
ATOM     17  C   UNL     1       5.504   4.111  14.359  0.00  0.00    +0.000 A 
ATOM     18 CL   UNL     1       4.890   3.939  12.752  0.00  0.00    +0.000 Cl
ATOM     19  C   UNL     1       4.668   3.739  15.418  0.00  0.00    +0.000 A 
ENDBRANCH   9  12
ENDBRANCH   7   9
BRANCH   1  20
ATOM     20  C   UNL     1       3.818   6.171  18.808  0.00  0.00    +0.000 C 
BRANCH  20  21
ATOM     21  C   UNL     1       3.792   7.250  17.752  0.00  0.00    +0.000 C 
ATOM     22  O   UNL     1       2.798   7.893  17.440  0.00  0.00    +0.000 OA
BRANCH  21  23
ATOM     23  O   UNL     1       5.007   7.351  17.145  0.00  0.00    +0.000 OA
BRANCH  23  25
ATOM     24  C   UNL     1       7.321   7.906  17.386  0.00  0.00    +0.000 C 
ATOM     25  C   UNL     1       6.122   7.244  18.040  0.00  0.00    +0.000 C 
ENDBRANCH  23  25
ENDBRANCH  21  23
ENDBRANCH  20  21
ENDBRANCH   1  20
TORSDOF 6
ENDMDL
