MODEL 1
REMARK VINA RESULT:      -6.8      0.000      0.000
REMARK  Name = 
REMARK  3 active torsions:
REMARK  status: ('A' for Active; 'I' for Inactive)
REMARK    1  A    between atoms: C_1  and  N_2
REMARK    2  A    between atoms: C_3  and  C_5
REMARK    3  A    between atoms: C_8  and  C_9
REMARK                            x       y       z     vdW  Elec       q    Type
REMARK                         _______ _______ _______ _____ _____    ______ ____
ROOT
ATOM      1  C   UNL     1       6.583   4.757  15.917  0.00  0.00    +0.000 A 
ATOM      2  C   UNL     1       7.434   5.366  16.820  0.00  0.00    +0.000 A 
ATOM      3  S   UNL     1       6.780   5.301  18.392  0.00  0.00    +0.000 S 
ATOM      4  C   UNL     1       5.414   4.427  17.795  0.00  0.00    +0.000 A 
ATOM      5  N   UNL     1       5.412   4.235  16.485  0.00  0.00    +0.000 NA
ENDROOT
BRANCH   4   6
ATOM      6  C   UNL     1       4.346   3.995  18.718  0.00  0.00    +0.000 A 
ATOM      7  C   UNL     1       3.734   4.933  19.566  0.00  0.00    +0.000 A 
ATOM      8  C   UNL     1       2.734   4.545  20.466  0.00  0.00    +0.000 A 
ATOM      9  C   UNL     1       2.327   3.214  20.520  0.00  0.00    +0.000 A 
ATOM     10 CL   UNL     1       1.104   2.730  21.629  0.00  0.00    +0.000 Cl
ATOM     11  C   UNL     1       2.905   2.270  19.677  0.00  0.00    +0.000 A 
ATOM     12  C   UNL     1       3.905   2.661  18.780  0.00  0.00    +0.000 A 
ENDBRANCH   4   6
BRANCH   1  15
ATOM     13  C   UNL     1       6.369   3.432  12.429  0.00  0.00    +0.000 C 
ATOM     14  N   UNL     1       6.179   3.682  13.833  0.00  0.00    +0.000 N 
ATOM     15  C   UNL     1       6.880   4.669  14.485  0.00  0.00    +0.000 C 
ATOM     16  O   UNL     1       7.683   5.412  13.927  0.00  0.00    +0.000 OA
ATOM     17  H   UNL     1       5.592   3.081  14.402  0.00  0.00    +0.000 HD
ENDBRANCH   1  15
TORSDOF 2
ENDMDL
MODEL 2
REMARK VINA RESULT:      -6.8      0.579      1.125
REMARK  Name = 
REMARK  3 active torsions:
REMARK  status: ('A' for Active; 'I' for Inactive)
REMARK    1  A    between atoms: C_1  and  N_2
REMARK    2  A    between atoms: C_3  and  C_5
REMARK    3  A    between atoms: C_8  and  C_9
REMARK                            x       y       z     vdW  Elec       q    Type
REMARK                         _______ _______ _______ _____ _____    ______ ____
ROOT
ATOM      1  C   UNL     1       6.421   4.911  15.711  0.00  0.00    +0.000 A 
ATOM      2  C   UNL     1       7.187   5.709  16.538  0.00  0.00    +0.000 A 
ATOM      3  S   UNL     1       6.538   5.730  18.113  0.00  0.00    +0.000 S 
ATOM      4  C   UNL     1       5.292   4.639  17.621  0.00  0.00    +0.000 A 
ATOM      5  N   UNL     1       5.319   4.312  16.339  0.00  0.00    +0.000 NA
ENDROOT
BRANCH   4   6
ATOM      6  C   UNL     1       4.279   4.180  18.592  0.00  0.00    +0.000 A 
ATOM      7  C   UNL     1       4.547   3.070  19.410  0.00  0.00    +0.000 A 
ATOM      8  C   UNL     1       3.595   2.602  20.324  0.00  0.00    +0.000 A 
ATOM      9  C   UNL     1       2.366   3.247  20.438  0.00  0.00    +0.000 A 
ATOM     10 CL   UNL     1       1.190   2.672  21.553  0.00  0.00    +0.000 Cl
ATOM     11  C   UNL     1       2.084   4.360  19.652  0.00  0.00    +0.000 A 
ATOM     12  C   UNL     1       3.037   4.824  18.739  0.00  0.00    +0.000 A 
ENDBRANCH   4   6
BRANCH   1  15
ATOM     13  C   UNL     1       6.261   3.303  12.341  0.00  0.00    +0.000 C 
ATOM     14  N   UNL     1       6.054   3.663  13.717  0.00  0.00    +0.000 N 
ATOM     15  C   UNL     1       6.734   4.711  14.293  0.00  0.00    +0.000 C 
ATOM     16  O   UNL     1       7.531   5.417  13.683  0.00  0.00    +0.000 OA
ATOM     17  H   UNL     1       5.469   3.102  14.329  0.00  0.00    +0.000 HD
ENDBRANCH   1  15
TORSDOF 2
ENDMDL
MODEL 3
REMARK VINA RESULT:      -6.7      0.982      1.063
REMARK  Name = 
REMARK  3 active torsions:
REMARK  status: ('A' for Active; 'I' for Inactive)
REMARK    1  A    between atoms: C_1  and  N_2
REMARK    2  A    between atoms: C_3  and  C_5
REMARK    3  A    between atoms: C_8  and  C_9
REMARK                            x       y       z     vdW  Elec       q    Type
REMARK                         _______ _______ _______ _____ _____    ______ ____
ROOT
ATOM      1  C   UNL     1       6.540   4.508  15.366  0.00  0.00    +0.000 A 
ATOM      2  C   UNL     1       7.472   4.896  16.310  0.00  0.00    +0.000 A 
ATOM      3  S   UNL     1       6.805   4.806  17.876  0.00  0.00    +0.000 S 
ATOM      4  C   UNL     1       5.321   4.214  17.217  0.00  0.00    +0.000 A 
ATOM      5  N   UNL     1       5.297   4.134  15.896  0.00  0.00    +0.000 NA
ENDROOT
BRANCH   4   6
ATOM      6  C   UNL     1       4.192   3.884  18.108  0.00  0.00    +0.000 A 
ATOM      7  C   UNL     1       2.873   4.087  17.671  0.00  0.00    +0.000 A 
ATOM      8  C   UNL     1       1.785   3.802  18.505  0.00  0.00    +0.000 A 
ATOM      9  C   UNL     1       2.005   3.299  19.786  0.00  0.00    +0.000 A 
ATOM     10 CL   UNL     1       0.673   2.954  20.818  0.00  0.00    +0.000 Cl
ATOM     11  C   UNL     1       3.301   3.072  20.235  0.00  0.00    +0.000 A 
ATOM     12  C   UNL     1       4.386   3.359  19.399  0.00  0.00    +0.000 A 
ENDBRANCH   4   6
BRANCH   1  15
ATOM     13  C   UNL     1       6.472   3.239  11.851  0.00  0.00    +0.000 C 
ATOM     14  N   UNL     1       6.266   3.430  13.262  0.00  0.00    +0.000 N 
ATOM     15  C   UNL     1       6.829   4.492  13.929  0.00  0.00    +0.000 C 
ATOM     16  O   UNL     1       7.513   5.351  13.380  0.00  0.00    +0.000 OA
ATOM     17  H   UNL     1       5.775   2.741  13.823  0.00  0.00    +0.000 HD
ENDBRANCH   1  15
TORSDOF 2
ENDMDL
MODEL 4
REMARK VINA RESULT:      -6.7      1.265      1.667
REMARK  Name = 
REMARK  3 active torsions:
REMARK  status: ('A' for Active; 'I' for Inactive)
REMARK    1  A    between atoms: C_1  and  N_2
REMARK    2  A    between atoms: C_3  and  C_5
REMARK    3  A    between atoms: C_8  and  C_9
REMARK                            x       y       z     vdW  Elec       q    Type
REMARK                         _______ _______ _______ _____ _____    ______ ____
ROOT
ATOM      1  C   UNL     1       5.523   5.300  15.675  0.00  0.00    +0.000 A 
ATOM      2  C   UNL     1       5.237   6.630  15.923  0.00  0.00    +0.000 A 
ATOM      3  S   UNL     1       4.224   6.777  17.284  0.00  0.00    +0.000 S 
ATOM      4  C   UNL     1       4.252   5.062  17.499  0.00  0.00    +0.000 A 
ATOM      5  N   UNL     1       4.936   4.402  16.578  0.00  0.00    +0.000 NA
ENDROOT
BRANCH   4   6
ATOM      6  C   UNL     1       3.514   4.441  18.617  0.00  0.00    +0.000 A 
ATOM      7  C   UNL     1       3.989   3.251  19.192  0.00  0.00    +0.000 A 
ATOM      8  C   UNL     1       3.296   2.630  20.239  0.00  0.00    +0.000 A 
ATOM      9  C   UNL     1       2.123   3.200  20.728  0.00  0.00    +0.000 A 
ATOM     10 CL   UNL     1       1.263   2.438  22.009  0.00  0.00    +0.000 Cl
ATOM     11  C   UNL     1       1.643   4.388  20.187  0.00  0.00    +0.000 A 
ATOM     12  C   UNL     1       2.337   5.005  19.141  0.00  0.00    +0.000 A 
ENDBRANCH   4   6
BRANCH   1  15
ATOM     13  C   UNL     1       6.413   3.496  12.526  0.00  0.00    +0.000 C 
ATOM     14  N   UNL     1       5.727   4.041  13.666  0.00  0.00    +0.000 N 
ATOM     15  C   UNL     1       6.368   4.868  14.558  0.00  0.00    +0.000 C 
ATOM     16  O   UNL     1       7.540   5.215  14.439  0.00  0.00    +0.000 OA
ATOM     17  H   UNL     1       4.779   3.763  13.896  0.00  0.00    +0.000 HD
ENDBRANCH   1  15
TORSDOF 2
ENDMDL
MODEL 5
REMARK VINA RESULT:      -6.7      1.167      1.211
REMARK  Name = 
REMARK  3 active torsions:
REMARK  status: ('A' for Active; 'I' for Inactive)
REMARK    1  A    between atoms: C_1  and  N_2
REMARK    2  A    between atoms: C_3  and  C_5
REMARK    3  A    between atoms: C_8  and  C_9
REMARK                            x       y       z     vdW  Elec       q    Type
REMARK                         _______ _______ _______ _____ _____    ______ ____
ROOT
ATOM      1  C   UNL     1       5.549   5.313  15.682  0.00  0.00    +0.000 A 
ATOM      2  C   UNL     1       5.298   6.639  15.979  0.00  0.00    +0.000 A 
ATOM      3  S   UNL     1       4.285   6.761  17.344  0.00  0.00    +0.000 S 
ATOM      4  C   UNL     1       4.267   5.039  17.493  0.00  0.00    +0.000 A 
ATOM      5  N   UNL     1       4.935   4.397  16.549  0.00  0.00    +0.000 NA
ENDROOT
BRANCH   4   6
ATOM      6  C   UNL     1       3.509   4.395  18.584  0.00  0.00    +0.000 A 
ATOM      7  C   UNL     1       2.991   5.175  19.631  0.00  0.00    +0.000 A 
ATOM      8  C   UNL     1       2.288   4.586  20.689  0.00  0.00    +0.000 A 
ATOM      9  C   UNL     1       2.086   3.208  20.705  0.00  0.00    +0.000 A 
ATOM     10 CL   UNL     1       1.229   2.477  22.006  0.00  0.00    +0.000 Cl
ATOM     11  C   UNL     1       2.574   2.416  19.671  0.00  0.00    +0.000 A 
ATOM     12  C   UNL     1       3.277   3.008  18.616  0.00  0.00    +0.000 A 
ENDBRANCH   4   6
BRANCH   1  15
ATOM     13  C   UNL     1       6.439   3.508  12.533  0.00  0.00    +0.000 C 
ATOM     14  N   UNL     1       5.757   4.039  13.682  0.00  0.00    +0.000 N 
ATOM     15  C   UNL     1       6.385   4.901  14.550  0.00  0.00    +0.000 C 
ATOM     16  O   UNL     1       7.538   5.293  14.400  0.00  0.00    +0.000 OA
ATOM     17  H   UNL     1       4.826   3.726  13.937  0.00  0.00    +0.000 HD
ENDBRANCH   1  15
TORSDOF 2
ENDMDL
MODEL 6
REMARK VINA RESULT:      -6.5      1.040      1.078
REMARK  Name = 
REMARK  3 active torsions:
REMARK  status: ('A' for Active; 'I' for Inactive)
REMARK    1  A    between atoms: C_1  and  N_2
REMARK    2  A    between atoms: C_3  and  C_5
REMARK    3  A    between atoms: C_8  and  C_9
REMARK                            x       y       z     vdW  Elec       q    Type
REMARK                         _______ _______ _______ _____ _____    ______ ____
ROOT
ATOM      1  C   UNL     1       6.380   4.852  15.909  0.00  0.00    +0.000 A 
ATOM      2  C   UNL     1       7.094   5.709  16.725  0.00  0.00    +0.000 A 
ATOM      3  S   UNL     1       6.421   5.739  18.290  0.00  0.00    +0.000 S 
ATOM      4  C   UNL     1       5.238   4.574  17.811  0.00  0.00    +0.000 A 
ATOM      5  N   UNL     1       5.301   4.216  16.539  0.00  0.00    +0.000 NA
ENDROOT
BRANCH   4   6
ATOM      6  C   UNL     1       4.235   4.091  18.781  0.00  0.00    +0.000 A 
ATOM      7  C   UNL     1       3.581   5.004  19.623  0.00  0.00    +0.000 A 
ATOM      8  C   UNL     1       2.641   4.569  20.567  0.00  0.00    +0.000 A 
ATOM      9  C   UNL     1       2.339   3.214  20.670  0.00  0.00    +0.000 A 
ATOM     10 CL   UNL     1       1.191   2.672  21.832  0.00  0.00    +0.000 Cl
ATOM     11  C   UNL     1       2.960   2.292  19.834  0.00  0.00    +0.000 A 
ATOM     12  C   UNL     1       3.898   2.730  18.893  0.00  0.00    +0.000 A 
ENDBRANCH   4   6
BRANCH   1  15
ATOM     13  C   UNL     1       8.118   5.439  12.652  0.00  0.00    +0.000 C 
ATOM     14  N   UNL     1       7.681   5.492  14.022  0.00  0.00    +0.000 N 
ATOM     15  C   UNL     1       6.724   4.629  14.501  0.00  0.00    +0.000 C 
ATOM     16  O   UNL     1       6.200   3.752  13.821  0.00  0.00    +0.000 OA
ATOM     17  H   UNL     1       7.999   6.223  14.650  0.00  0.00    +0.000 HD
ENDBRANCH   1  15
TORSDOF 2
ENDMDL
MODEL 7
REMARK VINA RESULT:      -6.4      1.091      1.608
REMARK  Name = 
REMARK  3 active torsions:
REMARK  status: ('A' for Active; 'I' for Inactive)
REMARK    1  A    between atoms: C_1  and  N_2
REMARK    2  A    between atoms: C_3  and  C_5
REMARK    3  A    between atoms: C_8  and  C_9
REMARK                            x       y       z     vdW  Elec       q    Type
REMARK                         _______ _______ _______ _____ _____    ______ ____
ROOT
ATOM      1  C   UNL     1       6.409   4.891  16.030  0.00  0.00    +0.000 A 
ATOM      2  C   UNL     1       7.219   5.651  16.852  0.00  0.00    +0.000 A 
ATOM      3  S   UNL     1       6.608   5.662  18.443  0.00  0.00    +0.000 S 
ATOM      4  C   UNL     1       5.319   4.618  17.962  0.00  0.00    +0.000 A 
ATOM      5  N   UNL     1       5.306   4.314  16.674  0.00  0.00    +0.000 NA
ENDROOT
BRANCH   4   6
ATOM      6  C   UNL     1       4.316   4.171  18.950  0.00  0.00    +0.000 A 
ATOM      7  C   UNL     1       4.268   2.822  19.337  0.00  0.00    +0.000 A 
ATOM      8  C   UNL     1       3.314   2.368  20.256  0.00  0.00    +0.000 A 
ATOM      9  C   UNL     1       2.401   3.265  20.807  0.00  0.00    +0.000 A 
ATOM     10 CL   UNL     1       1.221   2.713  21.930  0.00  0.00    +0.000 Cl
ATOM     11  C   UNL     1       2.440   4.610  20.453  0.00  0.00    +0.000 A 
ATOM     12  C   UNL     1       3.395   5.059  19.534  0.00  0.00    +0.000 A 
ENDBRANCH   4   6
BRANCH   1  15
ATOM     13  C   UNL     1       8.100   5.455  12.745  0.00  0.00    +0.000 C 
ATOM     14  N   UNL     1       7.715   5.484  14.130  0.00  0.00    +0.000 N 
ATOM     15  C   UNL     1       6.682   4.707  14.601  0.00  0.00    +0.000 C 
ATOM     16  O   UNL     1       6.043   3.931  13.898  0.00  0.00    +0.000 OA
ATOM     17  H   UNL     1       8.132   6.140  14.782  0.00  0.00    +0.000 HD
ENDBRANCH   1  15
TORSDOF 2
ENDMDL
MODEL 8
REMARK VINA RESULT:      -6.4      1.603      2.204
REMARK  Name = 
REMARK  3 active torsions:
REMARK  status: ('A' for Active; 'I' for Inactive)
REMARK    1  A    between atoms: C_1  and  N_2
REMARK    2  A    between atoms: C_3  and  C_5
REMARK    3  A    between atoms: C_8  and  C_9
REMARK                            x       y       z     vdW  Elec       q    Type
REMARK                         _______ _______ _______ _____ _____    ______ ____
ROOT
ATOM      1  C   UNL     1       6.301   4.200  14.155  0.00  0.00    +0.000 A 
ATOM      2  C   UNL     1       7.224   4.962  14.844  0.00  0.00    +0.000 A 
ATOM      3  S   UNL     1       6.628   5.366  16.389  0.00  0.00    +0.000 S 
ATOM      4  C   UNL     1       5.185   4.469  16.074  0.00  0.00    +0.000 A 
ATOM      5  N   UNL     1       5.120   3.936  14.864  0.00  0.00    +0.000 NA
ENDROOT
BRANCH   4   6
ATOM      6  C   UNL     1       4.127   4.379  17.099  0.00  0.00    +0.000 A 
ATOM      7  C   UNL     1       3.702   3.122  17.558  0.00  0.00    +0.000 A 
ATOM      8  C   UNL     1       2.685   3.009  18.514  0.00  0.00    +0.000 A 
ATOM      9  C   UNL     1       2.088   4.157  19.030  0.00  0.00    +0.000 A 
ATOM     10 CL   UNL     1       0.833   4.024  20.199  0.00  0.00    +0.000 Cl
ATOM     11  C   UNL     1       2.504   5.414  18.606  0.00  0.00    +0.000 A 
ATOM     12  C   UNL     1       3.520   5.523  17.650  0.00  0.00    +0.000 A 
ENDBRANCH   4   6
BRANCH   1  15
ATOM     13  C   UNL     1       6.051   1.882  11.234  0.00  0.00    +0.000 C 
ATOM     14  N   UNL     1       5.905   2.523  12.513  0.00  0.00    +0.000 N 
ATOM     15  C   UNL     1       6.537   3.712  12.793  0.00  0.00    +0.000 C 
ATOM     16  O   UNL     1       7.236   4.315  11.984  0.00  0.00    +0.000 OA
ATOM     17  H   UNL     1       5.406   2.075  13.275  0.00  0.00    +0.000 HD
ENDBRANCH   1  15
TORSDOF 2
ENDMDL
MODEL 9
REMARK VINA RESULT:      -6.4      1.574      1.651
REMARK  Name = 
REMARK  3 active torsions:
REMARK  status: ('A' for Active; 'I' for Inactive)
REMARK    1  A    between atoms: C_1  and  N_2
REMARK    2  A    between atoms: C_3  and  C_5
REMARK    3  A    between atoms: C_8  and  C_9
REMARK                            x       y       z     vdW  Elec       q    Type
REMARK                         _______ _______ _______ _____ _____    ______ ____
ROOT
ATOM      1  C   UNL     1       5.546   5.091  15.548  0.00  0.00    +0.000 A 
ATOM      2  C   UNL     1       5.369   6.424  15.865  0.00  0.00    +0.000 A 
ATOM      3  S   UNL     1       4.408   6.580  17.264  0.00  0.00    +0.000 S 
ATOM      4  C   UNL     1       4.312   4.860  17.398  0.00  0.00    +0.000 A 
ATOM      5  N   UNL     1       4.918   4.197  16.426  0.00  0.00    +0.000 NA
ENDROOT
BRANCH   4   6
ATOM      6  C   UNL     1       3.561   4.242  18.508  0.00  0.00    +0.000 A 
ATOM      7  C   UNL     1       2.233   4.625  18.753  0.00  0.00    +0.000 A 
ATOM      8  C   UNL     1       1.505   4.070  19.813  0.00  0.00    +0.000 A 
ATOM      9  C   UNL     1       2.098   3.114  20.635  0.00  0.00    +0.000 A 
ATOM     10 CL   UNL     1       1.213   2.434  21.944  0.00  0.00    +0.000 Cl
ATOM     11  C   UNL     1       3.407   2.705  20.402  0.00  0.00    +0.000 A 
ATOM     12  C   UNL     1       4.131   3.263  19.343  0.00  0.00    +0.000 A 
ENDBRANCH   4   6
BRANCH   1  15
ATOM     13  C   UNL     1       8.222   5.224  12.942  0.00  0.00    +0.000 C 
ATOM     14  N   UNL     1       7.371   5.485  14.072  0.00  0.00    +0.000 N 
ATOM     15  C   UNL     1       6.323   4.651  14.386  0.00  0.00    +0.000 C 
ATOM     16  O   UNL     1       6.057   3.632  13.756  0.00  0.00    +0.000 OA
ATOM     17  H   UNL     1       7.462   6.336  14.617  0.00  0.00    +0.000 HD
ENDBRANCH   1  15
TORSDOF 2
ENDMDL
