MODEL 1
REMARK VINA RESULT:      -7.2      0.000      0.000
REMARK  Name = 
REMARK  2 active torsions:
REMARK  status: ('A' for Active; 'I' for Inactive)
REMARK    1  A    between atoms: C_5  and  C_6
REMARK    2  A    between atoms: N_20  and  C_21
REMARK                            x       y       z     vdW  Elec       q    Type
REMARK                         _______ _______ _______ _____ _____    ______ ____
ROOT
ATOM      1  C   UNL     1      -0.510  11.981  21.542  0.00  0.00    +0.000 A 
ATOM      2  N   UNL     1       0.658  12.579  21.335  0.00  0.00    +0.000 NA
ATOM      3  C   UNL     1       0.816  13.178  20.145  0.00  0.00    +0.000 A 
ATOM      4  N   UNL     1       2.105  13.644  19.860  0.00  0.00    +0.000 N 
ATOM      5  C   UNL     1       2.168  14.638  18.791  0.00  0.00    +0.000 C 
ATOM      6  C   UNL     1       3.609  15.135  18.592  0.00  0.00    +0.000 C 
ATOM      7  O   UNL     1       4.158  15.642  19.817  0.00  0.00    +0.000 OA
ATOM      8  C   UNL     1       4.257  14.583  20.775  0.00  0.00    +0.000 C 
ATOM      9  C   UNL     1       2.893  13.940  21.076  0.00  0.00    +0.000 C 
ATOM     10  N   UNL     1      -0.214  13.234  19.251  0.00  0.00    +0.000 NA
ATOM     11  C   UNL     1      -1.302  12.461  19.487  0.00  0.00    +0.000 A 
ATOM     12  C   UNL     1      -1.138  11.488  20.443  0.00  0.00    +0.000 A 
ATOM     13  C   UNL     1      -0.683  10.339  19.548  0.00  0.00    +0.000 C 
ATOM     14  C   UNL     1      -1.364  10.688  18.198  0.00  0.00    +0.000 C 
ATOM     15  N   UNL     1      -2.159  11.940  18.415  0.00  0.00    +0.000 N 
ENDROOT
BRANCH   1  20
ATOM     16  N   UNL     1      -3.761  14.684  25.216  0.00  0.00    +0.000 N 
ATOM     17  C   UNL     1      -2.941  13.977  24.365  0.00  0.00    +0.000 A 
ATOM     18  N   UNL     1      -1.768  14.527  24.052  0.00  0.00    +0.000 NA
ATOM     19  C   UNL     1      -0.993  13.841  23.184  0.00  0.00    +0.000 A 
ATOM     20  C   UNL     1      -1.329  12.625  22.603  0.00  0.00    +0.000 A 
ATOM     21  C   UNL     1      -2.569  12.172  23.003  0.00  0.00    +0.000 A 
ATOM     22  N   UNL     1      -3.393  12.821  23.868  0.00  0.00    +0.000 NA
ATOM     23  H   UNL     1      -3.513  15.663  25.189  0.00  0.00    +0.000 HD
ATOM     24  H   UNL     1      -4.727  14.436  25.049  0.00  0.00    +0.000 HD
ENDBRANCH   1  20
BRANCH  15  25
ATOM     25  C   UNL     1      -3.548  11.579  18.873  0.00  0.00    +0.000 C 
ATOM     26  C   UNL     1      -4.343  12.625  19.655  0.00  0.00    +0.000 C 
ATOM     27  C   UNL     1      -5.758  12.062  19.585  0.00  0.00    +0.000 C 
ATOM     28  C   UNL     1      -5.864  11.590  18.147  0.00  0.00    +0.000 C 
ATOM     29  F   UNL     1      -6.384  12.575  17.378  0.00  0.00    +0.000 F 
ATOM     30  F   UNL     1      -6.688  10.526  18.049  0.00  0.00    +0.000 F 
ATOM     31  C   UNL     1      -4.455  11.250  17.679  0.00  0.00    +0.000 C 
ENDBRANCH  15  25
TORSDOF 2
ENDMDL
MODEL 2
REMARK VINA RESULT:      -6.8      3.948      6.540
REMARK  Name = 
REMARK  2 active torsions:
REMARK  status: ('A' for Active; 'I' for Inactive)
REMARK    1  A    between atoms: C_5  and  C_6
REMARK    2  A    between atoms: N_20  and  C_21
REMARK                            x       y       z     vdW  Elec       q    Type
REMARK                         _______ _______ _______ _____ _____    ______ ____
ROOT
ATOM      1  C   UNL     1      -1.731  11.152  19.683  0.00  0.00    +0.000 A 
ATOM      2  N   UNL     1      -1.706  12.452  19.960  0.00  0.00    +0.000 NA
ATOM      3  C   UNL     1      -0.492  13.007  20.094  0.00  0.00    +0.000 A 
ATOM      4  N   UNL     1      -0.470  14.325  20.564  0.00  0.00    +0.000 N 
ATOM      5  C   UNL     1       0.779  15.039  20.308  0.00  0.00    +0.000 C 
ATOM      6  C   UNL     1       0.688  16.492  20.803  0.00  0.00    +0.000 C 
ATOM      7  O   UNL     1      -0.436  17.169  20.224  0.00  0.00    +0.000 OA
ATOM      8  C   UNL     1      -1.650  16.549  20.660  0.00  0.00    +0.000 C 
ATOM      9  C   UNL     1      -1.718  15.063  20.273  0.00  0.00    +0.000 C 
ATOM     10  N   UNL     1       0.638  12.275  19.864  0.00  0.00    +0.000 NA
ATOM     11  C   UNL     1       0.511  10.931  19.748  0.00  0.00    +0.000 A 
ATOM     12  C   UNL     1      -0.694  10.414  20.158  0.00  0.00    +0.000 A 
ATOM     13  C   UNL     1      -0.352  10.120  21.615  0.00  0.00    +0.000 C 
ATOM     14  C   UNL     1       1.178   9.868  21.546  0.00  0.00    +0.000 C 
ATOM     15  N   UNL     1       1.582   9.993  20.108  0.00  0.00    +0.000 N 
ENDROOT
BRANCH   1  20
ATOM     16  N   UNL     1      -3.528  10.348  14.438  0.00  0.00    +0.000 N 
ATOM     17  C   UNL     1      -3.120  10.487  15.747  0.00  0.00    +0.000 A 
ATOM     18  N   UNL     1      -3.778  11.369  16.499  0.00  0.00    +0.000 NA
ATOM     19  C   UNL     1      -3.339  11.523  17.768  0.00  0.00    +0.000 A 
ATOM     20  C   UNL     1      -2.268  10.841  18.331  0.00  0.00    +0.000 A 
ATOM     21  C   UNL     1      -1.672   9.968  17.445  0.00  0.00    +0.000 A 
ATOM     22  N   UNL     1      -2.066   9.775  16.159  0.00  0.00    +0.000 NA
ATOM     23  H   UNL     1      -4.019  11.182  14.147  0.00  0.00    +0.000 HD
ATOM     24  H   UNL     1      -2.755  10.029  13.869  0.00  0.00    +0.000 HD
ENDBRANCH   1  20
BRANCH  15  25
ATOM     25  C   UNL     1       1.462   8.651  19.435  0.00  0.00    +0.000 C 
ATOM     26  C   UNL     1       2.292   8.400  18.175  0.00  0.00    +0.000 C 
ATOM     27  C   UNL     1       2.208   6.885  18.040  0.00  0.00    +0.000 C 
ATOM     28  C   UNL     1       2.385   6.406  19.469  0.00  0.00    +0.000 C 
ATOM     29  F   UNL     1       3.694   6.157  19.711  0.00  0.00    +0.000 F 
ATOM     30  F   UNL     1       1.711   5.256  19.678  0.00  0.00    +0.000 F 
ATOM     31  C   UNL     1       1.886   7.519  20.381  0.00  0.00    +0.000 C 
ENDBRANCH  15  25
TORSDOF 2
ENDMDL
MODEL 3
REMARK VINA RESULT:      -6.8      7.973     10.364
REMARK  Name = 
REMARK  2 active torsions:
REMARK  status: ('A' for Active; 'I' for Inactive)
REMARK    1  A    between atoms: C_5  and  C_6
REMARK    2  A    between atoms: N_20  and  C_21
REMARK                            x       y       z     vdW  Elec       q    Type
REMARK                         _______ _______ _______ _____ _____    ______ ____
ROOT
ATOM      1  C   UNL     1       6.509  15.509  20.986  0.00  0.00    +0.000 A 
ATOM      2  N   UNL     1       5.339  16.098  20.760  0.00  0.00    +0.000 NA
ATOM      3  C   UNL     1       4.876  16.035  19.502  0.00  0.00    +0.000 A 
ATOM      4  N   UNL     1       3.742  16.809  19.227  0.00  0.00    +0.000 N 
ATOM      5  C   UNL     1       3.017  16.415  18.021  0.00  0.00    +0.000 C 
ATOM      6  C   UNL     1       1.759  17.278  17.835  0.00  0.00    +0.000 C 
ATOM      7  O   UNL     1       0.917  17.227  18.996  0.00  0.00    +0.000 OA
ATOM      8  C   UNL     1       1.603  17.802  20.113  0.00  0.00    +0.000 C 
ATOM      9  C   UNL     1       2.919  17.074  20.427  0.00  0.00    +0.000 C 
ATOM     10  N   UNL     1       5.544  15.321  18.549  0.00  0.00    +0.000 NA
ATOM     11  C   UNL     1       6.798  14.897  18.837  0.00  0.00    +0.000 A 
ATOM     12  C   UNL     1       7.377  15.472  19.942  0.00  0.00    +0.000 A 
ATOM     13  C   UNL     1       8.074  16.650  19.269  0.00  0.00    +0.000 C 
ATOM     14  C   UNL     1       8.337  16.100  17.841  0.00  0.00    +0.000 C 
ATOM     15  N   UNL     1       7.827  14.691  17.810  0.00  0.00    +0.000 N 
ENDROOT
BRANCH   1  20
ATOM     16  N   UNL     1       6.345  11.304  24.683  0.00  0.00    +0.000 N 
ATOM     17  C   UNL     1       6.354  12.296  23.727  0.00  0.00    +0.000 A 
ATOM     18  N   UNL     1       7.502  12.513  23.085  0.00  0.00    +0.000 NA
ATOM     19  C   UNL     1       7.505  13.517  22.181  0.00  0.00    +0.000 A 
ATOM     20  C   UNL     1       6.416  14.325  21.880  0.00  0.00    +0.000 A 
ATOM     21  C   UNL     1       5.297  14.001  22.619  0.00  0.00    +0.000 A 
ATOM     22  N   UNL     1       5.237  13.007  23.545  0.00  0.00    +0.000 NA
ATOM     23  H   UNL     1       7.288  11.138  25.006  0.00  0.00    +0.000 HD
ATOM     24  H   UNL     1       5.635  11.499  25.376  0.00  0.00    +0.000 HD
ENDBRANCH   1  20
BRANCH  15  25
ATOM     25  C   UNL     1       8.924  13.751  18.233  0.00  0.00    +0.000 C 
ATOM     26  C   UNL     1       8.886  12.316  17.706  0.00  0.00    +0.000 C 
ATOM     27  C   UNL     1      10.298  11.831  18.011  0.00  0.00    +0.000 C 
ATOM     28  C   UNL     1      11.157  13.019  17.621  0.00  0.00    +0.000 C 
ATOM     29  F   UNL     1      11.558  12.893  16.334  0.00  0.00    +0.000 F 
ATOM     30  F   UNL     1      12.268  13.082  18.384  0.00  0.00    +0.000 F 
ATOM     31  C   UNL     1      10.299  14.267  17.781  0.00  0.00    +0.000 C 
ENDBRANCH  15  25
TORSDOF 2
ENDMDL
MODEL 4
REMARK VINA RESULT:      -6.6      3.523      5.946
REMARK  Name = 
REMARK  2 active torsions:
REMARK  status: ('A' for Active; 'I' for Inactive)
REMARK    1  A    between atoms: C_5  and  C_6
REMARK    2  A    between atoms: N_20  and  C_21
REMARK                            x       y       z     vdW  Elec       q    Type
REMARK                         _______ _______ _______ _____ _____    ______ ____
ROOT
ATOM      1  C   UNL     1      -1.434  12.181  19.164  0.00  0.00    +0.000 A 
ATOM      2  N   UNL     1      -0.567  11.245  18.789  0.00  0.00    +0.000 NA
ATOM      3  C   UNL     1      -0.029  10.506  19.771  0.00  0.00    +0.000 A 
ATOM      4  N   UNL     1       1.014   9.651  19.393  0.00  0.00    +0.000 N 
ATOM      5  C   UNL     1       1.293   8.578  20.344  0.00  0.00    +0.000 C 
ATOM      6  C   UNL     1       2.407   7.658  19.818  0.00  0.00    +0.000 C 
ATOM      7  O   UNL     1       2.084   7.142  18.519  0.00  0.00    +0.000 OA
ATOM      8  C   UNL     1       2.010   8.217  17.577  0.00  0.00    +0.000 C 
ATOM      9  C   UNL     1       0.953   9.263  17.967  0.00  0.00    +0.000 C 
ATOM     10  N   UNL     1      -0.434  10.666  21.064  0.00  0.00    +0.000 NA
ATOM     11  C   UNL     1      -1.195  11.746  21.363  0.00  0.00    +0.000 A 
ATOM     12  C   UNL     1      -1.241  12.721  20.396  0.00  0.00    +0.000 A 
ATOM     13  C   UNL     1      -0.072  13.583  20.861  0.00  0.00    +0.000 C 
ATOM     14  C   UNL     1      -0.057  13.314  22.390  0.00  0.00    +0.000 C 
ATOM     15  N   UNL     1      -1.194  12.383  22.685  0.00  0.00    +0.000 N 
ENDROOT
BRANCH   1  20
ATOM     16  N   UNL     1      -6.693  11.644  17.314  0.00  0.00    +0.000 N 
ATOM     17  C   UNL     1      -5.400  11.707  17.785  0.00  0.00    +0.000 A 
ATOM     18  N   UNL     1      -5.221  12.210  19.007  0.00  0.00    +0.000 NA
ATOM     19  C   UNL     1      -3.943  12.303  19.437  0.00  0.00    +0.000 A 
ATOM     20  C   UNL     1      -2.825  11.922  18.707  0.00  0.00    +0.000 A 
ATOM     21  C   UNL     1      -3.149  11.429  17.461  0.00  0.00    +0.000 A 
ATOM     22  N   UNL     1      -4.413  11.316  16.973  0.00  0.00    +0.000 NA
ATOM     23  H   UNL     1      -7.267  12.311  17.811  0.00  0.00    +0.000 HD
ATOM     24  H   UNL     1      -6.694  11.678  16.304  0.00  0.00    +0.000 HD
ENDBRANCH   1  20
BRANCH  15  25
ATOM     25  C   UNL     1      -2.436  13.186  22.971  0.00  0.00    +0.000 C 
ATOM     26  C   UNL     1      -3.589  12.493  23.699  0.00  0.00    +0.000 C 
ATOM     27  C   UNL     1      -4.443  13.678  24.136  0.00  0.00    +0.000 C 
ATOM     28  C   UNL     1      -3.410  14.680  24.618  0.00  0.00    +0.000 C 
ATOM     29  F   UNL     1      -3.212  14.530  25.949  0.00  0.00    +0.000 F 
ATOM     30  F   UNL     1      -3.835  15.944  24.414  0.00  0.00    +0.000 F 
ATOM     31  C   UNL     1      -2.119  14.396  23.862  0.00  0.00    +0.000 C 
ENDBRANCH  15  25
TORSDOF 2
ENDMDL
MODEL 5
REMARK VINA RESULT:      -6.5      8.388     10.584
REMARK  Name = 
REMARK  2 active torsions:
REMARK  status: ('A' for Active; 'I' for Inactive)
REMARK    1  A    between atoms: C_5  and  C_6
REMARK    2  A    between atoms: N_20  and  C_21
REMARK                            x       y       z     vdW  Elec       q    Type
REMARK                         _______ _______ _______ _____ _____    ______ ____
ROOT
ATOM      1  C   UNL     1       3.694   5.681  19.128  0.00  0.00    +0.000 A 
ATOM      2  N   UNL     1       2.936   6.705  19.505  0.00  0.00    +0.000 NA
ATOM      3  C   UNL     1       2.810   7.708  18.622  0.00  0.00    +0.000 A 
ATOM      4  N   UNL     1       2.166   8.859  19.091  0.00  0.00    +0.000 N 
ATOM      5  C   UNL     1       1.668   9.745  18.041  0.00  0.00    +0.000 C 
ATOM      6  C   UNL     1       0.925  10.947  18.648  0.00  0.00    +0.000 C 
ATOM      7  O   UNL     1      -0.129  10.519  19.522  0.00  0.00    +0.000 OA
ATOM      8  C   UNL     1       0.426   9.818  20.640  0.00  0.00    +0.000 C 
ATOM      9  C   UNL     1       1.240   8.587  20.211  0.00  0.00    +0.000 C 
ATOM     10  N   UNL     1       3.365   7.615  17.378  0.00  0.00    +0.000 NA
ATOM     11  C   UNL     1       4.247   6.612  17.151  0.00  0.00    +0.000 A 
ATOM     12  C   UNL     1       4.709   5.967  18.272  0.00  0.00    +0.000 A 
ATOM     13  C   UNL     1       5.949   6.812  18.547  0.00  0.00    +0.000 C 
ATOM     14  C   UNL     1       6.324   7.313  17.127  0.00  0.00    +0.000 C 
ATOM     15  N   UNL     1       5.337   6.713  16.172  0.00  0.00    +0.000 N 
ENDROOT
BRANCH   1  20
ATOM     16  N   UNL     1       0.585   1.035  18.778  0.00  0.00    +0.000 N 
ATOM     17  C   UNL     1       1.384   2.156  18.807  0.00  0.00    +0.000 A 
ATOM     18  N   UNL     1       2.398   2.161  19.673  0.00  0.00    +0.000 NA
ATOM     19  C   UNL     1       3.147   3.285  19.717  0.00  0.00    +0.000 A 
ATOM     20  C   UNL     1       2.936   4.416  18.939  0.00  0.00    +0.000 A 
ATOM     21  C   UNL     1       1.853   4.283  18.094  0.00  0.00    +0.000 A 
ATOM     22  N   UNL     1       1.062   3.181  18.010  0.00  0.00    +0.000 NA
ATOM     23  H   UNL     1       0.665   0.541  19.657  0.00  0.00    +0.000 HD
ATOM     24  H   UNL     1      -0.341   1.279  18.455  0.00  0.00    +0.000 HD
ENDBRANCH   1  20
BRANCH  15  25
ATOM     25  C   UNL     1       5.847   5.379  15.695  0.00  0.00    +0.000 C 
ATOM     26  C   UNL     1       4.981   4.144  15.946  0.00  0.00    +0.000 C 
ATOM     27  C   UNL     1       5.613   3.120  15.011  0.00  0.00    +0.000 C 
ATOM     28  C   UNL     1       5.871   3.925  13.751  0.00  0.00    +0.000 C 
ATOM     29  F   UNL     1       4.817   3.811  12.910  0.00  0.00    +0.000 F 
ATOM     30  F   UNL     1       6.958   3.462  13.098  0.00  0.00    +0.000 F 
ATOM     31  C   UNL     1       6.050   5.377  14.173  0.00  0.00    +0.000 C 
ENDBRANCH  15  25
TORSDOF 2
ENDMDL
MODEL 6
REMARK VINA RESULT:      -6.5      3.655      6.764
REMARK  Name = 
REMARK  2 active torsions:
REMARK  status: ('A' for Active; 'I' for Inactive)
REMARK    1  A    between atoms: C_5  and  C_6
REMARK    2  A    between atoms: N_20  and  C_21
REMARK                            x       y       z     vdW  Elec       q    Type
REMARK                         _______ _______ _______ _____ _____    ______ ____
ROOT
ATOM      1  C   UNL     1       0.053  11.961  20.780  0.00  0.00    +0.000 A 
ATOM      2  N   UNL     1      -0.588  11.445  19.735  0.00  0.00    +0.000 NA
ATOM      3  C   UNL     1      -1.870  11.811  19.585  0.00  0.00    +0.000 A 
ATOM      4  N   UNL     1      -2.590  11.127  18.598  0.00  0.00    +0.000 N 
ATOM      5  C   UNL     1      -3.812  11.801  18.164  0.00  0.00    +0.000 C 
ATOM      6  C   UNL     1      -4.500  11.011  17.039  0.00  0.00    +0.000 C 
ATOM      7  O   UNL     1      -3.605  10.781  15.941  0.00  0.00    +0.000 OA
ATOM      8  C   UNL     1      -2.519   9.953  16.370  0.00  0.00    +0.000 C 
ATOM      9  C   UNL     1      -1.728  10.582  17.528  0.00  0.00    +0.000 C 
ATOM     10  N   UNL     1      -2.434  12.732  20.420  0.00  0.00    +0.000 NA
ATOM     11  C   UNL     1      -1.754  13.072  21.542  0.00  0.00    +0.000 A 
ATOM     12  C   UNL     1      -0.706  12.247  21.870  0.00  0.00    +0.000 A 
ATOM     13  C   UNL     1      -1.441  11.265  22.776  0.00  0.00    +0.000 C 
ATOM     14  C   UNL     1      -2.590  12.142  23.343  0.00  0.00    +0.000 C 
ATOM     15  N   UNL     1      -2.417  13.517  22.774  0.00  0.00    +0.000 N 
ENDROOT
BRANCH   1  20
ATOM     16  N   UNL     1       4.463  15.201  19.588  0.00  0.00    +0.000 N 
ATOM     17  C   UNL     1       3.338  14.448  19.844  0.00  0.00    +0.000 A 
ATOM     18  N   UNL     1       2.771  14.589  21.043  0.00  0.00    +0.000 NA
ATOM     19  C   UNL     1       1.694  13.813  21.293  0.00  0.00    +0.000 A 
ATOM     20  C   UNL     1       1.147  12.895  20.406  0.00  0.00    +0.000 A 
ATOM     21  C   UNL     1       1.832  12.843  19.210  0.00  0.00    +0.000 A 
ATOM     22  N   UNL     1       2.923  13.594  18.904  0.00  0.00    +0.000 NA
ATOM     23  H   UNL     1       4.895  15.471  20.461  0.00  0.00    +0.000 HD
ATOM     24  H   UNL     1       5.039  14.737  18.899  0.00  0.00    +0.000 HD
ENDBRANCH   1  20
BRANCH  15  25
ATOM     25  C   UNL     1      -1.528  14.327  23.681  0.00  0.00    +0.000 C 
ATOM     26  C   UNL     1      -1.025  15.680  23.177  0.00  0.00    +0.000 C 
ATOM     27  C   UNL     1      -0.525  16.329  24.462  0.00  0.00    +0.000 C 
ATOM     28  C   UNL     1      -1.606  15.971  25.465  0.00  0.00    +0.000 C 
ATOM     29  F   UNL     1      -2.533  16.956  25.512  0.00  0.00    +0.000 F 
ATOM     30  F   UNL     1      -1.089  15.846  26.705  0.00  0.00    +0.000 F 
ATOM     31  C   UNL     1      -2.245  14.672  24.994  0.00  0.00    +0.000 C 
ENDBRANCH  15  25
TORSDOF 2
ENDMDL
MODEL 7
REMARK VINA RESULT:      -6.4      2.719      3.719
REMARK  Name = 
REMARK  2 active torsions:
REMARK  status: ('A' for Active; 'I' for Inactive)
REMARK    1  A    between atoms: C_5  and  C_6
REMARK    2  A    between atoms: N_20  and  C_21
REMARK                            x       y       z     vdW  Elec       q    Type
REMARK                         _______ _______ _______ _____ _____    ______ ____
ROOT
ATOM      1  C   UNL     1      -2.125  12.697  23.022  0.00  0.00    +0.000 A 
ATOM      2  N   UNL     1      -1.539  13.771  23.541  0.00  0.00    +0.000 NA
ATOM      3  C   UNL     1      -0.970  14.617  22.669  0.00  0.00    +0.000 A 
ATOM      4  N   UNL     1      -0.199  15.645  23.226  0.00  0.00    +0.000 N 
ATOM      5  C   UNL     1       0.051  16.770  22.328  0.00  0.00    +0.000 C 
ATOM      6  C   UNL     1       0.850  17.871  23.043  0.00  0.00    +0.000 C 
ATOM      7  O   UNL     1       0.191  18.293  24.246  0.00  0.00    +0.000 OA
ATOM      8  C   UNL     1       0.141  17.205  25.175  0.00  0.00    +0.000 C 
ATOM      9  C   UNL     1      -0.605  15.987  24.606  0.00  0.00    +0.000 C 
ATOM     10  N   UNL     1      -1.081  14.410  21.324  0.00  0.00    +0.000 NA
ATOM     11  C   UNL     1      -1.553  13.211  20.904  0.00  0.00    +0.000 A 
ATOM     12  C   UNL     1      -1.601  12.227  21.860  0.00  0.00    +0.000 A 
ATOM     13  C   UNL     1      -0.223  11.608  21.645  0.00  0.00    +0.000 C 
ATOM     14  C   UNL     1       0.036  11.905  20.143  0.00  0.00    +0.000 C 
ATOM     15  N   UNL     1      -1.177  12.612  19.617  0.00  0.00    +0.000 N 
ENDROOT
BRANCH   1  20
ATOM     16  N   UNL     1      -7.678  12.198  23.555  0.00  0.00    +0.000 N 
ATOM     17  C   UNL     1      -6.318  12.387  23.447  0.00  0.00    +0.000 A 
ATOM     18  N   UNL     1      -5.830  12.616  22.227  0.00  0.00    +0.000 NA
ATOM     19  C   UNL     1      -4.490  12.758  22.132  0.00  0.00    +0.000 A 
ATOM     20  C   UNL     1      -3.601  12.681  23.197  0.00  0.00    +0.000 A 
ATOM     21  C   UNL     1      -4.234  12.432  24.398  0.00  0.00    +0.000 A 
ATOM     22  N   UNL     1      -5.576  12.275  24.552  0.00  0.00    +0.000 NA
ATOM     23  H   UNL     1      -8.051  11.904  22.663  0.00  0.00    +0.000 HD
ATOM     24  H   UNL     1      -7.884  11.628  24.365  0.00  0.00    +0.000 HD
ENDBRANCH   1  20
BRANCH  15  25
ATOM     25  C   UNL     1      -2.168  11.596  19.111  0.00  0.00    +0.000 C 
ATOM     26  C   UNL     1      -3.589  12.069  18.800  0.00  0.00    +0.000 C 
ATOM     27  C   UNL     1      -4.134  10.908  17.977  0.00  0.00    +0.000 C 
ATOM     28  C   UNL     1      -2.970  10.562  17.066  0.00  0.00    +0.000 C 
ATOM     29  F   UNL     1      -3.083  11.240  15.900  0.00  0.00    +0.000 F 
ATOM     30  F   UNL     1      -2.967   9.246  16.768  0.00  0.00    +0.000 F 
ATOM     31  C   UNL     1      -1.695  10.974  17.789  0.00  0.00    +0.000 C 
ENDBRANCH  15  25
TORSDOF 2
ENDMDL
MODEL 8
REMARK VINA RESULT:      -6.4      2.179      2.396
REMARK  Name = 
REMARK  2 active torsions:
REMARK  status: ('A' for Active; 'I' for Inactive)
REMARK    1  A    between atoms: C_5  and  C_6
REMARK    2  A    between atoms: N_20  and  C_21
REMARK                            x       y       z     vdW  Elec       q    Type
REMARK                         _______ _______ _______ _____ _____    ______ ____
ROOT
ATOM      1  C   UNL     1      -0.400  12.975  22.194  0.00  0.00    +0.000 A 
ATOM      2  N   UNL     1       0.331  14.075  22.344  0.00  0.00    +0.000 NA
ATOM      3  C   UNL     1       0.505  14.827  21.247  0.00  0.00    +0.000 A 
ATOM      4  N   UNL     1       1.421  15.880  21.365  0.00  0.00    +0.000 N 
ATOM      5  C   UNL     1       1.289  16.915  20.342  0.00  0.00    +0.000 C 
ATOM      6  C   UNL     1       2.291  18.055  20.588  0.00  0.00    +0.000 C 
ATOM      7  O   UNL     1       2.150  18.596  21.909  0.00  0.00    +0.000 OA
ATOM      8  C   UNL     1       2.478  17.594  22.878  0.00  0.00    +0.000 C 
ATOM      9  C   UNL     1       1.582  16.351  22.757  0.00  0.00    +0.000 C 
ATOM     10  N   UNL     1      -0.119  14.506  20.076  0.00  0.00    +0.000 NA
ATOM     11  C   UNL     1      -0.705  13.288  19.983  0.00  0.00    +0.000 A 
ATOM     12  C   UNL     1      -0.365  12.392  20.967  0.00  0.00    +0.000 A 
ATOM     13  C   UNL     1       0.826  11.722  20.288  0.00  0.00    +0.000 C 
ATOM     14  C   UNL     1       0.475  11.881  18.784  0.00  0.00    +0.000 C 
ATOM     15  N   UNL     1      -0.854  12.569  18.711  0.00  0.00    +0.000 N 
ENDROOT
BRANCH   1  20
ATOM     16  N   UNL     1      -5.465  13.213  24.573  0.00  0.00    +0.000 N 
ATOM     17  C   UNL     1      -4.193  13.136  24.050  0.00  0.00    +0.000 A 
ATOM     18  N   UNL     1      -3.541  14.284  23.863  0.00  0.00    +0.000 NA
ATOM     19  C   UNL     1      -2.311  14.194  23.311  0.00  0.00    +0.000 A 
ATOM     20  C   UNL     1      -1.690  13.011  22.930  0.00  0.00    +0.000 A 
ATOM     21  C   UNL     1      -2.475  11.902  23.170  0.00  0.00    +0.000 A 
ATOM     22  N   UNL     1      -3.719  11.932  23.717  0.00  0.00    +0.000 NA
ATOM     23  H   UNL     1      -5.846  14.133  24.399  0.00  0.00    +0.000 HD
ATOM     24  H   UNL     1      -6.007  12.412  24.278  0.00  0.00    +0.000 HD
ENDBRANCH   1  20
BRANCH  15  25
ATOM     25  C   UNL     1      -1.953  11.539  18.725  0.00  0.00    +0.000 C 
ATOM     26  C   UNL     1      -3.400  12.029  18.795  0.00  0.00    +0.000 C 
ATOM     27  C   UNL     1      -4.176  10.779  18.398  0.00  0.00    +0.000 C 
ATOM     28  C   UNL     1      -3.360  10.225  17.245  0.00  0.00    +0.000 C 
ATOM     29  F   UNL     1      -3.837  10.705  16.073  0.00  0.00    +0.000 F 
ATOM     30  F   UNL     1      -3.450   8.879  17.195  0.00  0.00    +0.000 F 
ATOM     31  C   UNL     1      -1.922  10.681  17.451  0.00  0.00    +0.000 C 
ENDBRANCH  15  25
TORSDOF 2
ENDMDL
MODEL 9
REMARK VINA RESULT:      -6.3      2.489      2.982
REMARK  Name = 
REMARK  2 active torsions:
REMARK  status: ('A' for Active; 'I' for Inactive)
REMARK    1  A    between atoms: C_5  and  C_6
REMARK    2  A    between atoms: N_20  and  C_21
REMARK                            x       y       z     vdW  Elec       q    Type
REMARK                         _______ _______ _______ _____ _____    ______ ____
ROOT
ATOM      1  C   UNL     1      -1.434  12.865  22.267  0.00  0.00    +0.000 A 
ATOM      2  N   UNL     1      -0.808  13.987  22.608  0.00  0.00    +0.000 NA
ATOM      3  C   UNL     1      -0.457  14.801  21.600  0.00  0.00    +0.000 A 
ATOM      4  N   UNL     1       0.359  15.885  21.945  0.00  0.00    +0.000 N 
ATOM      5  C   UNL     1       0.380  16.965  20.961  0.00  0.00    +0.000 C 
ATOM      6  C   UNL     1       1.251  18.133  21.451  0.00  0.00    +0.000 C 
ATOM      7  O   UNL     1       0.819  18.599  22.737  0.00  0.00    +0.000 OA
ATOM      8  C   UNL     1       0.998  17.565  23.710  0.00  0.00    +0.000 C 
ATOM      9  C   UNL     1       0.212  16.291  23.359  0.00  0.00    +0.000 C 
ATOM     10  N   UNL     1      -0.816  14.513  20.315  0.00  0.00    +0.000 NA
ATOM     11  C   UNL     1      -1.306  13.277  20.055  0.00  0.00    +0.000 A 
ATOM     12  C   UNL     1      -1.124  12.348  21.049  0.00  0.00    +0.000 A 
ATOM     13  C   UNL     1       0.213  11.766  20.600  0.00  0.00    +0.000 C 
ATOM     14  C   UNL     1       0.163  11.986  19.063  0.00  0.00    +0.000 C 
ATOM     15  N   UNL     1      -1.159  12.618  18.751  0.00  0.00    +0.000 N 
ENDROOT
BRANCH   1  20
ATOM     16  N   UNL     1      -6.647  12.963  24.315  0.00  0.00    +0.000 N 
ATOM     17  C   UNL     1      -5.387  12.893  23.763  0.00  0.00    +0.000 A 
ATOM     18  N   UNL     1      -4.487  12.137  24.393  0.00  0.00    +0.000 NA
ATOM     19  C   UNL     1      -3.245  12.112  23.862  0.00  0.00    +0.000 A 
ATOM     20  C   UNL     1      -2.847  12.808  22.727  0.00  0.00    +0.000 A 
ATOM     21  C   UNL     1      -3.869  13.555  22.180  0.00  0.00    +0.000 A 
ATOM     22  N   UNL     1      -5.134  13.623  22.672  0.00  0.00    +0.000 NA
ATOM     23  H   UNL     1      -6.599  12.727  25.297  0.00  0.00    +0.000 HD
ATOM     24  H   UNL     1      -7.087  13.836  24.058  0.00  0.00    +0.000 HD
ENDBRANCH   1  20
BRANCH  15  25
ATOM     25  C   UNL     1      -2.182  11.542  18.498  0.00  0.00    +0.000 C 
ATOM     26  C   UNL     1      -3.661  11.913  18.610  0.00  0.00    +0.000 C 
ATOM     27  C   UNL     1      -4.336  10.731  17.925  0.00  0.00    +0.000 C 
ATOM     28  C   UNL     1      -3.451  10.490  16.715  0.00  0.00    +0.000 C 
ATOM     29  F   UNL     1      -3.928  11.180  15.653  0.00  0.00    +0.000 F 
ATOM     30  F   UNL     1      -3.443   9.184  16.377  0.00  0.00    +0.000 F 
ATOM     31  C   UNL     1      -2.055  10.982  17.074  0.00  0.00    +0.000 C 
ENDBRANCH  15  25
TORSDOF 2
ENDMDL
