MODEL 1
REMARK VINA RESULT:      -6.7      0.000      0.000
REMARK  Name = 
REMARK  7 active torsions:
REMARK  status: ('A' for Active; 'I' for Inactive)
REMARK    1  A    between atoms: C_2  and  C_3
REMARK    2  A    between atoms: C_9  and  N_10
REMARK    3  A    between atoms: C_13  and  C_14
REMARK    4  A    between atoms: C_16  and  C_17
REMARK    5  A    between atoms: N_24  and  C_25
REMARK    6  A    between atoms: C_25  and  C_26
REMARK    7  A    between atoms: C_26  and  N_27
REMARK                            x       y       z     vdW  Elec       q    Type
REMARK                         _______ _______ _______ _____ _____    ______ ____
ROOT
ATOM      1  N   UNL     1      -1.784  12.238  21.831  0.00  0.00    +0.000 N 
ATOM      2  C   UNL     1      -1.825  12.854  20.493  0.00  0.00    +0.000 C 
ATOM      3  C   UNL     1      -1.887  11.722  19.469  0.00  0.00    +0.000 C 
ATOM      4  C   UNL     1      -0.720  10.734  19.615  0.00  0.00    +0.000 C 
ATOM      5  C   UNL     1      -0.521  10.308  21.081  0.00  0.00    +0.000 C 
ATOM      6  C   UNL     1      -0.533  11.492  22.057  0.00  0.00    +0.000 C 
ENDROOT
BRANCH   1  13
ATOM      7  C   UNL     1      -3.533  13.373  23.107  0.00  0.00    +0.000 A 
ATOM      8  C   UNL     1      -3.811  14.333  24.070  0.00  0.00    +0.000 A 
ATOM      9  N   UNL     1      -5.107  14.754  24.371  0.00  0.00    +0.000 N 
ATOM     10  N   UNL     1      -2.855  15.003  24.731  0.00  0.00    +0.000 NA
ATOM     11  C   UNL     1      -1.597  14.690  24.415  0.00  0.00    +0.000 A 
ATOM     12  N   UNL     1      -1.220  13.776  23.518  0.00  0.00    +0.000 NA
ATOM     13  C   UNL     1      -2.188  13.108  22.853  0.00  0.00    +0.000 A 
ATOM     14  H   UNL     1      -5.772  14.000  24.512  0.00  0.00    +0.000 HD
ATOM     15  H   UNL     1      -5.056  15.387  25.167  0.00  0.00    +0.000 HD
BRANCH   7  17
ATOM     16  N   UNL     1      -5.508  12.266  21.855  0.00  0.00    +0.000 NA
ATOM     17  C   UNL     1      -4.596  12.731  22.401  0.00  0.00    +0.000 C 
ENDBRANCH   7  17
ENDBRANCH   1  13
BRANCH   4  18
ATOM     18  C   UNL     1       0.540  11.334  19.056  0.00  0.00    +0.000 A 
ATOM     19  N   UNL     1       0.907  12.586  19.245  0.00  0.00    +0.000 NA
ATOM     20  C   UNL     1       2.070  12.769  18.550  0.00  0.00    +0.000 A 
ATOM     21  C   UNL     1       2.440  11.586  17.943  0.00  0.00    +0.000 A 
ATOM     22  N   UNL     1       1.458  10.691  18.262  0.00  0.00    +0.000 N 
BRANCH  20  23
ATOM     23  C   UNL     1       2.739  14.053  18.478  0.00  0.00    +0.000 A 
ATOM     24  C   UNL     1       1.996  15.232  18.645  0.00  0.00    +0.000 A 
ATOM     25  C   UNL     1       2.605  16.482  18.521  0.00  0.00    +0.000 A 
ATOM     26  C   UNL     1       3.965  16.564  18.232  0.00  0.00    +0.000 A 
ATOM     27  C   UNL     1       4.717  15.400  18.075  0.00  0.00    +0.000 A 
ATOM     28  C   UNL     1       4.109  14.151  18.202  0.00  0.00    +0.000 A 
ENDBRANCH  20  23
BRANCH  22  29
ATOM     29  C   UNL     1       1.464   9.293  17.879  0.00  0.00    +0.000 C 
BRANCH  29  30
ATOM     30  C   UNL     1       2.076   8.365  18.935  0.00  0.00    +0.000 C 
BRANCH  30  31
ATOM     31  N   UNL     1       2.349   7.064  18.312  0.00  0.00    +0.000 NA
ATOM     32  C   UNL     1       3.718   7.006  17.727  0.00  0.00    +0.000 C 
ATOM     33  C   UNL     1       3.771   5.546  18.232  0.00  0.00    +0.000 C 
ATOM     34  C   UNL     1       2.809   6.063  19.322  0.00  0.00    +0.000 C 
ENDBRANCH  30  31
ENDBRANCH  29  30
ENDBRANCH  22  29
ENDBRANCH   4  18
TORSDOF 7
ENDMDL
MODEL 2
REMARK VINA RESULT:      -6.7      3.320      9.104
REMARK  Name = 
REMARK  7 active torsions:
REMARK  status: ('A' for Active; 'I' for Inactive)
REMARK    1  A    between atoms: C_2  and  C_3
REMARK    2  A    between atoms: C_9  and  N_10
REMARK    3  A    between atoms: C_13  and  C_14
REMARK    4  A    between atoms: C_16  and  C_17
REMARK    5  A    between atoms: N_24  and  C_25
REMARK    6  A    between atoms: C_25  and  C_26
REMARK    7  A    between atoms: C_26  and  N_27
REMARK                            x       y       z     vdW  Elec       q    Type
REMARK                         _______ _______ _______ _____ _____    ______ ____
ROOT
ATOM      1  N   UNL     1       2.364   6.606  19.085  0.00  0.00    +0.000 N 
ATOM      2  C   UNL     1       2.020   7.383  17.881  0.00  0.00    +0.000 C 
ATOM      3  C   UNL     1       2.581   8.792  18.069  0.00  0.00    +0.000 C 
ATOM      4  C   UNL     1       2.068   9.460  19.354  0.00  0.00    +0.000 C 
ATOM      5  C   UNL     1       2.187   8.519  20.566  0.00  0.00    +0.000 C 
ATOM      6  C   UNL     1       1.663   7.104  20.282  0.00  0.00    +0.000 C 
ENDROOT
BRANCH   1  13
ATOM      7  C   UNL     1       3.495   4.446  18.925  0.00  0.00    +0.000 A 
ATOM      8  C   UNL     1       3.365   3.103  18.594  0.00  0.00    +0.000 A 
ATOM      9  N   UNL     1       4.451   2.229  18.526  0.00  0.00    +0.000 N 
ATOM     10  N   UNL     1       2.199   2.552  18.226  0.00  0.00    +0.000 NA
ATOM     11  C   UNL     1       1.147   3.372  18.197  0.00  0.00    +0.000 A 
ATOM     12  N   UNL     1       1.160   4.670  18.509  0.00  0.00    +0.000 NA
ATOM     13  C   UNL     1       2.338   5.220  18.876  0.00  0.00    +0.000 A 
ATOM     14  H   UNL     1       5.076   2.272  19.324  0.00  0.00    +0.000 HD
ATOM     15  H   UNL     1       4.091   1.292  18.360  0.00  0.00    +0.000 HD
BRANCH   7  17
ATOM     16  N   UNL     1       5.837   5.349  19.555  0.00  0.00    +0.000 NA
ATOM     17  C   UNL     1       4.775   4.984  19.261  0.00  0.00    +0.000 C 
ENDBRANCH   7  17
ENDBRANCH   1  13
BRANCH   4  18
ATOM     18  C   UNL     1       0.648   9.918  19.168  0.00  0.00    +0.000 A 
ATOM     19  N   UNL     1      -0.030   9.782  18.046  0.00  0.00    +0.000 NA
ATOM     20  C   UNL     1      -1.255  10.354  18.249  0.00  0.00    +0.000 A 
ATOM     21  C   UNL     1      -1.339  10.827  19.542  0.00  0.00    +0.000 A 
ATOM     22  N   UNL     1      -0.125  10.555  20.109  0.00  0.00    +0.000 N 
BRANCH  20  23
ATOM     23  C   UNL     1      -2.253  10.446  17.201  0.00  0.00    +0.000 A 
ATOM     24  C   UNL     1      -3.391  11.245  17.397  0.00  0.00    +0.000 A 
ATOM     25  C   UNL     1      -4.395  11.304  16.429  0.00  0.00    +0.000 A 
ATOM     26  C   UNL     1      -4.268  10.567  15.255  0.00  0.00    +0.000 A 
ATOM     27  C   UNL     1      -3.137   9.778  15.043  0.00  0.00    +0.000 A 
ATOM     28  C   UNL     1      -2.133   9.721  16.009  0.00  0.00    +0.000 A 
ENDBRANCH  20  23
BRANCH  22  29
ATOM     29  C   UNL     1       0.219  10.830  21.490  0.00  0.00    +0.000 C 
BRANCH  29  30
ATOM     30  C   UNL     1      -0.882  10.452  22.488  0.00  0.00    +0.000 C 
BRANCH  30  31
ATOM     31  N   UNL     1      -1.174  11.621  23.326  0.00  0.00    +0.000 NA
ATOM     32  C   UNL     1      -0.817  12.896  22.641  0.00  0.00    +0.000 C 
ATOM     33  C   UNL     1      -2.095  13.487  23.278  0.00  0.00    +0.000 C 
ATOM     34  C   UNL     1      -2.605  12.033  23.204  0.00  0.00    +0.000 C 
ENDBRANCH  30  31
ENDBRANCH  29  30
ENDBRANCH  22  29
ENDBRANCH   4  18
TORSDOF 7
ENDMDL
MODEL 3
REMARK VINA RESULT:      -6.6      3.195      9.033
REMARK  Name = 
REMARK  7 active torsions:
REMARK  status: ('A' for Active; 'I' for Inactive)
REMARK    1  A    between atoms: C_2  and  C_3
REMARK    2  A    between atoms: C_9  and  N_10
REMARK    3  A    between atoms: C_13  and  C_14
REMARK    4  A    between atoms: C_16  and  C_17
REMARK    5  A    between atoms: N_24  and  C_25
REMARK    6  A    between atoms: C_25  and  C_26
REMARK    7  A    between atoms: C_26  and  N_27
REMARK                            x       y       z     vdW  Elec       q    Type
REMARK                         _______ _______ _______ _____ _____    ______ ____
ROOT
ATOM      1  N   UNL     1       2.154   6.737  19.717  0.00  0.00    +0.000 N 
ATOM      2  C   UNL     1       1.836   7.366  18.423  0.00  0.00    +0.000 C 
ATOM      3  C   UNL     1       2.360   8.800  18.470  0.00  0.00    +0.000 C 
ATOM      4  C   UNL     1       1.788   9.595  19.654  0.00  0.00    +0.000 C 
ATOM      5  C   UNL     1       1.885   8.798  20.968  0.00  0.00    +0.000 C 
ATOM      6  C   UNL     1       1.401   7.348  20.827  0.00  0.00    +0.000 C 
ENDROOT
BRANCH   1  13
ATOM      7  C   UNL     1       3.232   4.628  19.115  0.00  0.00    +0.000 A 
ATOM      8  C   UNL     1       3.084   3.250  19.017  0.00  0.00    +0.000 A 
ATOM      9  N   UNL     1       4.038   2.425  18.420  0.00  0.00    +0.000 N 
ATOM     10  N   UNL     1       1.976   2.605  19.407  0.00  0.00    +0.000 NA
ATOM     11  C   UNL     1       1.002   3.366  19.911  0.00  0.00    +0.000 A 
ATOM     12  N   UNL     1       1.046   4.692  20.062  0.00  0.00    +0.000 NA
ATOM     13  C   UNL     1       2.164   5.336  19.664  0.00  0.00    +0.000 A 
ATOM     14  H   UNL     1       4.991   2.594  18.724  0.00  0.00    +0.000 HD
ATOM     15  H   UNL     1       3.748   1.459  18.554  0.00  0.00    +0.000 HD
BRANCH   7  17
ATOM     16  N   UNL     1       5.376   5.828  18.305  0.00  0.00    +0.000 NA
ATOM     17  C   UNL     1       4.418   5.262  18.635  0.00  0.00    +0.000 C 
ENDBRANCH   7  17
ENDBRANCH   1  13
BRANCH   4  18
ATOM     18  C   UNL     1       0.366   9.994  19.372  0.00  0.00    +0.000 A 
ATOM     19  N   UNL     1      -0.221   9.852  18.200  0.00  0.00    +0.000 NA
ATOM     20  C   UNL     1      -1.482  10.365  18.322  0.00  0.00    +0.000 A 
ATOM     21  C   UNL     1      -1.682  10.806  19.614  0.00  0.00    +0.000 A 
ATOM     22  N   UNL     1      -0.501  10.576  20.264  0.00  0.00    +0.000 N 
BRANCH  20  23
ATOM     23  C   UNL     1      -2.405  10.435  17.206  0.00  0.00    +0.000 A 
ATOM     24  C   UNL     1      -2.118   9.733  16.025  0.00  0.00    +0.000 A 
ATOM     25  C   UNL     1      -2.960   9.831  14.915  0.00  0.00    +0.000 A 
ATOM     26  C   UNL     1      -4.098  10.630  14.979  0.00  0.00    +0.000 A 
ATOM     27  C   UNL     1      -4.400  11.324  16.150  0.00  0.00    +0.000 A 
ATOM     28  C   UNL     1      -3.561  11.223  17.259  0.00  0.00    +0.000 A 
ENDBRANCH  20  23
BRANCH  22  29
ATOM     29  C   UNL     1      -0.273  10.836  21.671  0.00  0.00    +0.000 C 
BRANCH  29  30
ATOM     30  C   UNL     1      -0.343  12.322  22.045  0.00  0.00    +0.000 C 
BRANCH  30  31
ATOM     31  N   UNL     1      -1.196  12.464  23.232  0.00  0.00    +0.000 NA
ATOM     32  C   UNL     1      -1.554  13.888  23.489  0.00  0.00    +0.000 C 
ATOM     33  C   UNL     1      -2.951  13.366  23.895  0.00  0.00    +0.000 C 
ATOM     34  C   UNL     1      -2.634  12.231  22.899  0.00  0.00    +0.000 C 
ENDBRANCH  30  31
ENDBRANCH  29  30
ENDBRANCH  22  29
ENDBRANCH   4  18
TORSDOF 7
ENDMDL
MODEL 4
REMARK VINA RESULT:      -6.6      1.609      7.741
REMARK  Name = 
REMARK  7 active torsions:
REMARK  status: ('A' for Active; 'I' for Inactive)
REMARK    1  A    between atoms: C_2  and  C_3
REMARK    2  A    between atoms: C_9  and  N_10
REMARK    3  A    between atoms: C_13  and  C_14
REMARK    4  A    between atoms: C_16  and  C_17
REMARK    5  A    between atoms: N_24  and  C_25
REMARK    6  A    between atoms: C_25  and  C_26
REMARK    7  A    between atoms: C_26  and  N_27
REMARK                            x       y       z     vdW  Elec       q    Type
REMARK                         _______ _______ _______ _____ _____    ______ ____
ROOT
ATOM      1  N   UNL     1       1.640   8.147  18.773  0.00  0.00    +0.000 N 
ATOM      2  C   UNL     1       1.691   8.626  20.166  0.00  0.00    +0.000 C 
ATOM      3  C   UNL     1       0.269   9.011  20.571  0.00  0.00    +0.000 C 
ATOM      4  C   UNL     1      -0.348  10.052  19.625  0.00  0.00    +0.000 C 
ATOM      5  C   UNL     1      -0.149   9.662  18.149  0.00  0.00    +0.000 C 
ATOM      6  C   UNL     1       1.288   9.225  17.832  0.00  0.00    +0.000 C 
ENDROOT
BRANCH   1  13
ATOM      7  C   UNL     1       2.964   6.109  19.030  0.00  0.00    +0.000 A 
ATOM      8  C   UNL     1       4.137   5.451  18.683  0.00  0.00    +0.000 A 
ATOM      9  N   UNL     1       4.534   4.248  19.268  0.00  0.00    +0.000 N 
ATOM     10  N   UNL     1       5.031   5.957  17.822  0.00  0.00    +0.000 NA
ATOM     11  C   UNL     1       4.730   7.148  17.299  0.00  0.00    +0.000 A 
ATOM     12  N   UNL     1       3.628   7.857  17.552  0.00  0.00    +0.000 NA
ATOM     13  C   UNL     1       2.733   7.343  18.423  0.00  0.00    +0.000 A 
ATOM     14  H   UNL     1       3.807   3.542  19.313  0.00  0.00    +0.000 HD
ATOM     15  H   UNL     1       5.368   3.922  18.785  0.00  0.00    +0.000 HD
BRANCH   7  17
ATOM     16  N   UNL     1       1.417   5.043  20.809  0.00  0.00    +0.000 NA
ATOM     17  C   UNL     1       2.076   5.540  19.993  0.00  0.00    +0.000 C 
ENDBRANCH   7  17
ENDBRANCH   1  13
BRANCH   4  18
ATOM     18  C   UNL     1       0.230  11.411  19.902  0.00  0.00    +0.000 A 
ATOM     19  N   UNL     1       0.868  12.138  19.006  0.00  0.00    +0.000 NA
ATOM     20  C   UNL     1       1.281  13.278  19.639  0.00  0.00    +0.000 A 
ATOM     21  C   UNL     1       0.857  13.260  20.952  0.00  0.00    +0.000 A 
ATOM     22  N   UNL     1       0.204  12.070  21.108  0.00  0.00    +0.000 N 
BRANCH  20  23
ATOM     23  C   UNL     1       2.075  14.293  18.974  0.00  0.00    +0.000 A 
ATOM     24  C   UNL     1       3.315  13.946  18.415  0.00  0.00    +0.000 A 
ATOM     25  C   UNL     1       4.124  14.916  17.821  0.00  0.00    +0.000 A 
ATOM     26  C   UNL     1       3.699  16.241  17.778  0.00  0.00    +0.000 A 
ATOM     27  C   UNL     1       2.463  16.596  18.319  0.00  0.00    +0.000 A 
ATOM     28  C   UNL     1       1.654  15.627  18.910  0.00  0.00    +0.000 A 
ENDBRANCH  20  23
BRANCH  22  29
ATOM     29  C   UNL     1      -0.461  11.650  22.326  0.00  0.00    +0.000 C 
BRANCH  29  30
ATOM     30  C   UNL     1      -1.297  12.752  22.986  0.00  0.00    +0.000 C 
BRANCH  30  31
ATOM     31  N   UNL     1      -2.682  12.278  23.106  0.00  0.00    +0.000 NA
ATOM     32  C   UNL     1      -3.502  13.177  23.967  0.00  0.00    +0.000 C 
ATOM     33  C   UNL     1      -4.656  12.923  22.971  0.00  0.00    +0.000 C 
ATOM     34  C   UNL     1      -3.514  12.734  21.951  0.00  0.00    +0.000 C 
ENDBRANCH  30  31
ENDBRANCH  29  30
ENDBRANCH  22  29
ENDBRANCH   4  18
TORSDOF 7
ENDMDL
MODEL 5
REMARK VINA RESULT:      -6.6      1.624      7.859
REMARK  Name = 
REMARK  7 active torsions:
REMARK  status: ('A' for Active; 'I' for Inactive)
REMARK    1  A    between atoms: C_2  and  C_3
REMARK    2  A    between atoms: C_9  and  N_10
REMARK    3  A    between atoms: C_13  and  C_14
REMARK    4  A    between atoms: C_16  and  C_17
REMARK    5  A    between atoms: N_24  and  C_25
REMARK    6  A    between atoms: C_25  and  C_26
REMARK    7  A    between atoms: C_26  and  N_27
REMARK                            x       y       z     vdW  Elec       q    Type
REMARK                         _______ _______ _______ _____ _____    ______ ____
ROOT
ATOM      1  N   UNL     1       1.755   8.081  18.793  0.00  0.00    +0.000 N 
ATOM      2  C   UNL     1       1.795   8.493  20.208  0.00  0.00    +0.000 C 
ATOM      3  C   UNL     1       0.386   8.939  20.595  0.00  0.00    +0.000 C 
ATOM      4  C   UNL     1      -0.147  10.055  19.684  0.00  0.00    +0.000 C 
ATOM      5  C   UNL     1       0.070   9.722  18.196  0.00  0.00    +0.000 C 
ATOM      6  C   UNL     1       1.489   9.219  17.895  0.00  0.00    +0.000 C 
ENDROOT
BRANCH   1  13
ATOM      7  C   UNL     1       2.981   5.979  19.019  0.00  0.00    +0.000 A 
ATOM      8  C   UNL     1       4.123   5.273  18.664  0.00  0.00    +0.000 A 
ATOM      9  N   UNL     1       4.460   4.042  19.229  0.00  0.00    +0.000 N 
ATOM     10  N   UNL     1       5.044   5.752  17.816  0.00  0.00    +0.000 NA
ATOM     11  C   UNL     1       4.802   6.964  17.313  0.00  0.00    +0.000 A 
ATOM     12  N   UNL     1       3.733   7.720  17.575  0.00  0.00    +0.000 NA
ATOM     13  C   UNL     1       2.811   7.233  18.434  0.00  0.00    +0.000 A 
ATOM     14  H   UNL     1       3.700   3.370  19.259  0.00  0.00    +0.000 HD
ATOM     15  H   UNL     1       5.281   3.686  18.743  0.00  0.00    +0.000 HD
BRANCH   7  17
ATOM     16  N   UNL     1       1.293   4.943  20.682  0.00  0.00    +0.000 NA
ATOM     17  C   UNL     1       2.062   5.435  19.968  0.00  0.00    +0.000 C 
ENDBRANCH   7  17
ENDBRANCH   1  13
BRANCH   4  18
ATOM     18  C   UNL     1       0.498  11.366  20.038  0.00  0.00    +0.000 A 
ATOM     19  N   UNL     1       1.400  11.970  19.291  0.00  0.00    +0.000 NA
ATOM     20  C   UNL     1       1.780  13.100  19.959  0.00  0.00    +0.000 A 
ATOM     21  C   UNL     1       1.067  13.206  21.137  0.00  0.00    +0.000 A 
ATOM     22  N   UNL     1       0.269  12.097  21.179  0.00  0.00    +0.000 N 
BRANCH  20  23
ATOM     23  C   UNL     1       2.812  13.989  19.462  0.00  0.00    +0.000 A 
ATOM     24  C   UNL     1       2.809  14.366  18.110  0.00  0.00    +0.000 A 
ATOM     25  C   UNL     1       3.824  15.173  17.593  0.00  0.00    +0.000 A 
ATOM     26  C   UNL     1       4.849  15.613  18.425  0.00  0.00    +0.000 A 
ATOM     27  C   UNL     1       4.857  15.256  19.773  0.00  0.00    +0.000 A 
ATOM     28  C   UNL     1       3.842  14.452  20.290  0.00  0.00    +0.000 A 
ENDBRANCH  20  23
BRANCH  22  29
ATOM     29  C   UNL     1      -0.699  11.820  22.222  0.00  0.00    +0.000 C 
BRANCH  29  30
ATOM     30  C   UNL     1      -1.125  13.060  23.016  0.00  0.00    +0.000 C 
BRANCH  30  31
ATOM     31  N   UNL     1      -2.575  13.234  22.867  0.00  0.00    +0.000 NA
ATOM     32  C   UNL     1      -3.338  12.307  23.750  0.00  0.00    +0.000 C 
ATOM     33  C   UNL     1      -4.322  13.478  23.971  0.00  0.00    +0.000 C 
ATOM     34  C   UNL     1      -3.078  14.355  23.718  0.00  0.00    +0.000 C 
ENDBRANCH  30  31
ENDBRANCH  29  30
ENDBRANCH  22  29
ENDBRANCH   4  18
TORSDOF 7
ENDMDL
MODEL 6
REMARK VINA RESULT:      -6.5      3.065      9.210
REMARK  Name = 
REMARK  7 active torsions:
REMARK  status: ('A' for Active; 'I' for Inactive)
REMARK    1  A    between atoms: C_2  and  C_3
REMARK    2  A    between atoms: C_9  and  N_10
REMARK    3  A    between atoms: C_13  and  C_14
REMARK    4  A    between atoms: C_16  and  C_17
REMARK    5  A    between atoms: N_24  and  C_25
REMARK    6  A    between atoms: C_25  and  C_26
REMARK    7  A    between atoms: C_26  and  N_27
REMARK                            x       y       z     vdW  Elec       q    Type
REMARK                         _______ _______ _______ _____ _____    ______ ____
ROOT
ATOM      1  N   UNL     1       2.417   7.062  18.924  0.00  0.00    +0.000 N 
ATOM      2  C   UNL     1       2.135   8.022  17.842  0.00  0.00    +0.000 C 
ATOM      3  C   UNL     1       2.482   9.416  18.364  0.00  0.00    +0.000 C 
ATOM      4  C   UNL     1       1.726   9.763  19.655  0.00  0.00    +0.000 C 
ATOM      5  C   UNL     1       1.807   8.618  20.682  0.00  0.00    +0.000 C 
ATOM      6  C   UNL     1       1.509   7.242  20.071  0.00  0.00    +0.000 C 
ENDROOT
BRANCH   1  13
ATOM      7  C   UNL     1       3.782   5.334  17.865  0.00  0.00    +0.000 A 
ATOM      8  C   UNL     1       3.806   4.043  17.352  0.00  0.00    +0.000 A 
ATOM      9  N   UNL     1       4.898   3.522  16.657  0.00  0.00    +0.000 N 
ATOM     10  N   UNL     1       2.750   3.218  17.403  0.00  0.00    +0.000 NA
ATOM     11  C   UNL     1       1.654   3.706  17.988  0.00  0.00    +0.000 A 
ATOM     12  N   UNL     1       1.529   4.922  18.524  0.00  0.00    +0.000 NA
ATOM     13  C   UNL     1       2.595   5.749  18.466  0.00  0.00    +0.000 A 
ATOM     14  H   UNL     1       5.794   3.672  17.108  0.00  0.00    +0.000 HD
ATOM     15  H   UNL     1       4.712   2.539  16.469  0.00  0.00    +0.000 HD
BRANCH   7  17
ATOM     16  N   UNL     1       5.874   6.827  17.567  0.00  0.00    +0.000 NA
ATOM     17  C   UNL     1       4.924   6.182  17.734  0.00  0.00    +0.000 C 
ENDBRANCH   7  17
ENDBRANCH   1  13
BRANCH   4  18
ATOM     18  C   UNL     1       0.295  10.102  19.343  0.00  0.00    +0.000 A 
ATOM     19  N   UNL     1      -0.261   9.934  18.160  0.00  0.00    +0.000 NA
ATOM     20  C   UNL     1      -1.545  10.395  18.255  0.00  0.00    +0.000 A 
ATOM     21  C   UNL     1      -1.789  10.832  19.541  0.00  0.00    +0.000 A 
ATOM     22  N   UNL     1      -0.613  10.651  20.215  0.00  0.00    +0.000 N 
BRANCH  20  23
ATOM     23  C   UNL     1      -2.446  10.425  17.119  0.00  0.00    +0.000 A 
ATOM     24  C   UNL     1      -2.126   9.699  15.962  0.00  0.00    +0.000 A 
ATOM     25  C   UNL     1      -2.948   9.757  14.834  0.00  0.00    +0.000 A 
ATOM     26  C   UNL     1      -4.098  10.541  14.856  0.00  0.00    +0.000 A 
ATOM     27  C   UNL     1      -4.434  11.258  16.005  0.00  0.00    +0.000 A 
ATOM     28  C   UNL     1      -3.614  11.197  17.132  0.00  0.00    +0.000 A 
ENDBRANCH  20  23
BRANCH  22  29
ATOM     29  C   UNL     1      -0.425  10.925  21.626  0.00  0.00    +0.000 C 
BRANCH  29  30
ATOM     30  C   UNL     1      -0.182  12.405  21.942  0.00  0.00    +0.000 C 
BRANCH  30  31
ATOM     31  N   UNL     1      -1.471  13.032  22.261  0.00  0.00    +0.000 NA
ATOM     32  C   UNL     1      -2.367  12.106  23.010  0.00  0.00    +0.000 C 
ATOM     33  C   UNL     1      -2.804  13.341  23.829  0.00  0.00    +0.000 C 
ATOM     34  C   UNL     1      -1.384  13.851  23.508  0.00  0.00    +0.000 C 
ENDBRANCH  30  31
ENDBRANCH  29  30
ENDBRANCH  22  29
ENDBRANCH   4  18
TORSDOF 7
ENDMDL
MODEL 7
REMARK VINA RESULT:      -6.5      1.761      7.677
REMARK  Name = 
REMARK  7 active torsions:
REMARK  status: ('A' for Active; 'I' for Inactive)
REMARK    1  A    between atoms: C_2  and  C_3
REMARK    2  A    between atoms: C_9  and  N_10
REMARK    3  A    between atoms: C_13  and  C_14
REMARK    4  A    between atoms: C_16  and  C_17
REMARK    5  A    between atoms: N_24  and  C_25
REMARK    6  A    between atoms: C_25  and  C_26
REMARK    7  A    between atoms: C_26  and  N_27
REMARK                            x       y       z     vdW  Elec       q    Type
REMARK                         _______ _______ _______ _____ _____    ______ ____
ROOT
ATOM      1  N   UNL     1       1.701   8.140  18.837  0.00  0.00    +0.000 N 
ATOM      2  C   UNL     1       1.792   8.557  20.248  0.00  0.00    +0.000 C 
ATOM      3  C   UNL     1       0.404   9.030  20.677  0.00  0.00    +0.000 C 
ATOM      4  C   UNL     1      -0.138  10.151  19.777  0.00  0.00    +0.000 C 
ATOM      5  C   UNL     1       0.026   9.807  18.286  0.00  0.00    +0.000 C 
ATOM      6  C   UNL     1       1.427   9.279  17.943  0.00  0.00    +0.000 C 
ENDROOT
BRANCH   1  13
ATOM      7  C   UNL     1       2.886   6.011  19.022  0.00  0.00    +0.000 A 
ATOM      8  C   UNL     1       4.005   5.283  18.638  0.00  0.00    +0.000 A 
ATOM      9  N   UNL     1       4.328   4.042  19.187  0.00  0.00    +0.000 N 
ATOM     10  N   UNL     1       4.917   5.749  17.772  0.00  0.00    +0.000 NA
ATOM     11  C   UNL     1       4.690   6.969  17.283  0.00  0.00    +0.000 A 
ATOM     12  N   UNL     1       3.644   7.746  17.574  0.00  0.00    +0.000 NA
ATOM     13  C   UNL     1       2.730   7.272  18.449  0.00  0.00    +0.000 A 
ATOM     14  H   UNL     1       3.555   3.386  19.229  0.00  0.00    +0.000 HD
ATOM     15  H   UNL     1       5.130   3.672  18.681  0.00  0.00    +0.000 HD
BRANCH   7  17
ATOM     16  N   UNL     1       1.287   5.077  20.828  0.00  0.00    +0.000 NA
ATOM     17  C   UNL     1       1.977   5.480  19.988  0.00  0.00    +0.000 C 
ENDBRANCH   7  17
ENDBRANCH   1  13
BRANCH   4  18
ATOM     18  C   UNL     1       0.540  11.452  20.106  0.00  0.00    +0.000 A 
ATOM     19  N   UNL     1       1.461  12.015  19.349  0.00  0.00    +0.000 NA
ATOM     20  C   UNL     1       1.868  13.149  19.994  0.00  0.00    +0.000 A 
ATOM     21  C   UNL     1       1.154  13.300  21.165  0.00  0.00    +0.000 A 
ATOM     22  N   UNL     1       0.326  12.214  21.229  0.00  0.00    +0.000 N 
BRANCH  20  23
ATOM     23  C   UNL     1       2.925  13.999  19.482  0.00  0.00    +0.000 A 
ATOM     24  C   UNL     1       3.847  14.571  20.372  0.00  0.00    +0.000 A 
ATOM     25  C   UNL     1       4.838  15.439  19.911  0.00  0.00    +0.000 A 
ATOM     26  C   UNL     1       4.918  15.741  18.554  0.00  0.00    +0.000 A 
ATOM     27  C   UNL     1       4.015  15.169  17.657  0.00  0.00    +0.000 A 
ATOM     28  C   UNL     1       3.027  14.300  18.118  0.00  0.00    +0.000 A 
ENDBRANCH  20  23
BRANCH  22  29
ATOM     29  C   UNL     1      -0.654  11.986  22.273  0.00  0.00    +0.000 C 
BRANCH  29  30
ATOM     30  C   UNL     1      -1.760  13.046  22.325  0.00  0.00    +0.000 C 
BRANCH  30  31
ATOM     31  N   UNL     1      -2.994  12.459  21.788  0.00  0.00    +0.000 NA
ATOM     32  C   UNL     1      -4.181  13.320  22.058  0.00  0.00    +0.000 C 
ATOM     33  C   UNL     1      -4.673  12.923  20.648  0.00  0.00    +0.000 C 
ATOM     34  C   UNL     1      -3.168  12.788  20.340  0.00  0.00    +0.000 C 
ENDBRANCH  30  31
ENDBRANCH  29  30
ENDBRANCH  22  29
ENDBRANCH   4  18
TORSDOF 7
ENDMDL
MODEL 8
REMARK VINA RESULT:      -6.4      1.777      7.920
REMARK  Name = 
REMARK  7 active torsions:
REMARK  status: ('A' for Active; 'I' for Inactive)
REMARK    1  A    between atoms: C_2  and  C_3
REMARK    2  A    between atoms: C_9  and  N_10
REMARK    3  A    between atoms: C_13  and  C_14
REMARK    4  A    between atoms: C_16  and  C_17
REMARK    5  A    between atoms: N_24  and  C_25
REMARK    6  A    between atoms: C_25  and  C_26
REMARK    7  A    between atoms: C_26  and  N_27
REMARK                            x       y       z     vdW  Elec       q    Type
REMARK                         _______ _______ _______ _____ _____    ______ ____
ROOT
ATOM      1  N   UNL     1       1.703   8.148  18.807  0.00  0.00    +0.000 N 
ATOM      2  C   UNL     1       1.788   8.548  20.223  0.00  0.00    +0.000 C 
ATOM      3  C   UNL     1       0.400   9.022  20.649  0.00  0.00    +0.000 C 
ATOM      4  C   UNL     1      -0.131  10.157  19.759  0.00  0.00    +0.000 C 
ATOM      5  C   UNL     1       0.041   9.830  18.265  0.00  0.00    +0.000 C 
ATOM      6  C   UNL     1       1.441   9.299  17.924  0.00  0.00    +0.000 C 
ENDROOT
BRANCH   1  13
ATOM      7  C   UNL     1       2.893   6.021  18.991  0.00  0.00    +0.000 A 
ATOM      8  C   UNL     1       4.009   5.293  18.602  0.00  0.00    +0.000 A 
ATOM      9  N   UNL     1       4.337   4.054  19.154  0.00  0.00    +0.000 N 
ATOM     10  N   UNL     1       4.915   5.756  17.728  0.00  0.00    +0.000 NA
ATOM     11  C   UNL     1       4.683   6.974  17.236  0.00  0.00    +0.000 A 
ATOM     12  N   UNL     1       3.638   7.751  17.531  0.00  0.00    +0.000 NA
ATOM     13  C   UNL     1       2.731   7.280  18.414  0.00  0.00    +0.000 A 
ATOM     14  H   UNL     1       3.565   3.398  19.203  0.00  0.00    +0.000 HD
ATOM     15  H   UNL     1       5.136   3.683  18.643  0.00  0.00    +0.000 HD
BRANCH   7  17
ATOM     16  N   UNL     1       1.267   4.994  20.722  0.00  0.00    +0.000 NA
ATOM     17  C   UNL     1       1.991   5.493  19.965  0.00  0.00    +0.000 C 
ENDBRANCH   7  17
ENDBRANCH   1  13
BRANCH   4  18
ATOM     18  C   UNL     1       0.552  11.450  20.107  0.00  0.00    +0.000 A 
ATOM     19  N   UNL     1       1.551  11.965  19.418  0.00  0.00    +0.000 NA
ATOM     20  C   UNL     1       1.930  13.110  20.062  0.00  0.00    +0.000 A 
ATOM     21  C   UNL     1       1.121  13.316  21.161  0.00  0.00    +0.000 A 
ATOM     22  N   UNL     1       0.261  12.253  21.183  0.00  0.00    +0.000 N 
BRANCH  20  23
ATOM     23  C   UNL     1       3.051  13.916  19.620  0.00  0.00    +0.000 A 
ATOM     24  C   UNL     1       3.812  14.623  20.564  0.00  0.00    +0.000 A 
ATOM     25  C   UNL     1       4.859  15.452  20.159  0.00  0.00    +0.000 A 
ATOM     26  C   UNL     1       5.157  15.580  18.804  0.00  0.00    +0.000 A 
ATOM     27  C   UNL     1       4.416  14.874  17.857  0.00  0.00    +0.000 A 
ATOM     28  C   UNL     1       3.372  14.043  18.262  0.00  0.00    +0.000 A 
ENDBRANCH  20  23
BRANCH  22  29
ATOM     29  C   UNL     1      -0.812  12.084  22.144  0.00  0.00    +0.000 C 
BRANCH  29  30
ATOM     30  C   UNL     1      -1.660  13.344  22.353  0.00  0.00    +0.000 C 
BRANCH  30  31
ATOM     31  N   UNL     1      -1.610  13.709  23.774  0.00  0.00    +0.000 NA
ATOM     32  C   UNL     1      -1.159  15.116  23.969  0.00  0.00    +0.000 C 
ATOM     33  C   UNL     1      -2.198  15.192  25.111  0.00  0.00    +0.000 C 
ATOM     34  C   UNL     1      -2.952  14.139  24.272  0.00  0.00    +0.000 C 
ENDBRANCH  30  31
ENDBRANCH  29  30
ENDBRANCH  22  29
ENDBRANCH   4  18
TORSDOF 7
ENDMDL
MODEL 9
REMARK VINA RESULT:      -6.3      1.279      1.447
REMARK  Name = 
REMARK  7 active torsions:
REMARK  status: ('A' for Active; 'I' for Inactive)
REMARK    1  A    between atoms: C_2  and  C_3
REMARK    2  A    between atoms: C_9  and  N_10
REMARK    3  A    between atoms: C_13  and  C_14
REMARK    4  A    between atoms: C_16  and  C_17
REMARK    5  A    between atoms: N_24  and  C_25
REMARK    6  A    between atoms: C_25  and  C_26
REMARK    7  A    between atoms: C_26  and  N_27
REMARK                            x       y       z     vdW  Elec       q    Type
REMARK                         _______ _______ _______ _____ _____    ______ ____
ROOT
ATOM      1  N   UNL     1      -2.249  13.073  21.669  0.00  0.00    +0.000 N 
ATOM      2  C   UNL     1      -2.242  12.861  20.210  0.00  0.00    +0.000 C 
ATOM      3  C   UNL     1      -1.866  11.401  19.960  0.00  0.00    +0.000 C 
ATOM      4  C   UNL     1      -0.524  11.023  20.605  0.00  0.00    +0.000 C 
ATOM      5  C   UNL     1      -0.445  11.500  22.067  0.00  0.00    +0.000 C 
ATOM      6  C   UNL     1      -0.899  12.955  22.249  0.00  0.00    +0.000 C 
ENDROOT
BRANCH   1  13
ATOM      7  C   UNL     1      -3.961  14.104  23.074  0.00  0.00    +0.000 A 
ATOM      8  C   UNL     1      -4.726  15.240  23.305  0.00  0.00    +0.000 A 
ATOM      9  N   UNL     1      -5.769  15.279  24.232  0.00  0.00    +0.000 N 
ATOM     10  N   UNL     1      -4.587  16.370  22.596  0.00  0.00    +0.000 NA
ATOM     11  C   UNL     1      -3.654  16.351  21.642  0.00  0.00    +0.000 A 
ATOM     12  N   UNL     1      -2.858  15.321  21.348  0.00  0.00    +0.000 NA
ATOM     13  C   UNL     1      -3.006  14.185  22.063  0.00  0.00    +0.000 A 
ATOM     14  H   UNL     1      -5.537  14.894  25.142  0.00  0.00    +0.000 HD
ATOM     15  H   UNL     1      -6.108  16.236  24.284  0.00  0.00    +0.000 HD
BRANCH   7  17
ATOM     16  N   UNL     1      -4.421  11.992  24.495  0.00  0.00    +0.000 NA
ATOM     17  C   UNL     1      -4.192  12.914  23.830  0.00  0.00    +0.000 C 
ENDBRANCH   7  17
ENDBRANCH   1  13
BRANCH   4  18
ATOM     18  C   UNL     1       0.614  11.582  19.797  0.00  0.00    +0.000 A 
ATOM     19  N   UNL     1       1.125  12.784  19.976  0.00  0.00    +0.000 NA
ATOM     20  C   UNL     1       2.101  12.947  19.033  0.00  0.00    +0.000 A 
ATOM     21  C   UNL     1       2.209  11.800  18.273  0.00  0.00    +0.000 A 
ATOM     22  N   UNL     1       1.256  10.949  18.760  0.00  0.00    +0.000 N 
BRANCH  20  23
ATOM     23  C   UNL     1       2.844  14.183  18.887  0.00  0.00    +0.000 A 
ATOM     24  C   UNL     1       2.318  15.374  19.412  0.00  0.00    +0.000 A 
ATOM     25  C   UNL     1       2.985  16.587  19.234  0.00  0.00    +0.000 A 
ATOM     26  C   UNL     1       4.187  16.619  18.532  0.00  0.00    +0.000 A 
ATOM     27  C   UNL     1       4.726  15.441  18.016  0.00  0.00    +0.000 A 
ATOM     28  C   UNL     1       4.061  14.229  18.196  0.00  0.00    +0.000 A 
ENDBRANCH  20  23
BRANCH  22  29
ATOM     29  C   UNL     1       1.047   9.593  18.292  0.00  0.00    +0.000 C 
BRANCH  29  30
ATOM     30  C   UNL     1       2.327   8.901  17.810  0.00  0.00    +0.000 C 
BRANCH  30  31
ATOM     31  N   UNL     1       2.219   7.466  18.100  0.00  0.00    +0.000 NA
ATOM     32  C   UNL     1       3.521   6.764  17.919  0.00  0.00    +0.000 C 
ATOM     33  C   UNL     1       3.139   5.931  19.163  0.00  0.00    +0.000 C 
ATOM     34  C   UNL     1       2.352   7.196  19.564  0.00  0.00    +0.000 C 
ENDBRANCH  30  31
ENDBRANCH  29  30
ENDBRANCH  22  29
ENDBRANCH   4  18
TORSDOF 7
ENDMDL
