MODEL 1
REMARK VINA RESULT:      -6.5      0.000      0.000
REMARK  Name = 
REMARK  2 active torsions:
REMARK  status: ('A' for Active; 'I' for Inactive)
REMARK    1  A    between atoms: C_1  and  C_2
REMARK    2  A    between atoms: C_3  and  C_4
REMARK                            x       y       z     vdW  Elec       q    Type
REMARK                         _______ _______ _______ _____ _____    ______ ____
ROOT
ATOM      1  C   UNL     1       4.068   4.235  18.317  0.00  0.00    +0.000 C 
ATOM      2  O   UNL     1       3.982   3.119  18.829  0.00  0.00    +0.000 OA
ATOM      3  N   UNL     1       3.192   5.255  18.687  0.00  0.00    +0.000 N 
ATOM      4  C   UNL     1       2.198   4.966  19.741  0.00  0.00    +0.000 C 
ATOM      5  C   UNL     1       2.016   6.165  20.702  0.00  0.00    +0.000 C 
ATOM      6  N   UNL     1       1.654   7.343  19.895  0.00  0.00    +0.000 N 
ATOM      7  C   UNL     1       1.140   8.438  20.591  0.00  0.00    +0.000 A 
ATOM      8  C   UNL     1       0.359   9.383  19.910  0.00  0.00    +0.000 A 
ATOM      9  N   UNL     1      -0.217  10.468  20.482  0.00  0.00    +0.000 NA
ATOM     10  C   UNL     1       0.008  10.588  21.804  0.00  0.00    +0.000 A 
ATOM     11  C   UNL     1       0.768   9.665  22.508  0.00  0.00    +0.000 A 
ATOM     12  N   UNL     1       1.341   8.583  21.922  0.00  0.00    +0.000 NA
ATOM     13  C   UNL     1       2.715   7.694  18.927  0.00  0.00    +0.000 C 
ATOM     14  C   UNL     1       2.916   6.508  17.961  0.00  0.00    +0.000 C 
ENDROOT
BRANCH   1  17
ATOM     15  C   UNL     1       6.786   5.465  19.044  0.00  0.00    +0.000 C 
ATOM     16  C   UNL     1       6.347   5.070  17.660  0.00  0.00    +0.000 C 
ATOM     17  C   UNL     1       5.162   4.524  17.303  0.00  0.00    +0.000 C 
ATOM     18  O   UNL     1       4.866   4.335  15.962  0.00  0.00    +0.000 OA
ATOM     19  C   UNL     1       6.006   3.881  15.245  0.00  0.00    +0.000 C 
ATOM     20  C   UNL     1       7.247   4.725  15.472  0.00  0.00    +0.000 C 
ATOM     21  O   UNL     1       7.336   5.363  16.740  0.00  0.00    +0.000 OA
ENDBRANCH   1  17
TORSDOF 1
ENDMDL
MODEL 2
REMARK VINA RESULT:      -6.5      1.119      1.297
REMARK  Name = 
REMARK  2 active torsions:
REMARK  status: ('A' for Active; 'I' for Inactive)
REMARK    1  A    between atoms: C_1  and  C_2
REMARK    2  A    between atoms: C_3  and  C_4
REMARK                            x       y       z     vdW  Elec       q    Type
REMARK                         _______ _______ _______ _____ _____    ______ ____
ROOT
ATOM      1  C   UNL     1       4.159   5.025  18.746  0.00  0.00    +0.000 C 
ATOM      2  O   UNL     1       4.158   4.161  19.624  0.00  0.00    +0.000 OA
ATOM      3  N   UNL     1       3.216   6.053  18.762  0.00  0.00    +0.000 N 
ATOM      4  C   UNL     1       2.257   6.097  19.885  0.00  0.00    +0.000 C 
ATOM      5  C   UNL     1       2.001   7.545  20.364  0.00  0.00    +0.000 C 
ATOM      6  N   UNL     1       1.548   8.334  19.205  0.00  0.00    +0.000 N 
ATOM      7  C   UNL     1       0.965   9.570  19.487  0.00  0.00    +0.000 A 
ATOM      8  C   UNL     1       0.111  10.160  18.543  0.00  0.00    +0.000 A 
ATOM      9  N   UNL     1      -0.535  11.339  18.714  0.00  0.00    +0.000 NA
ATOM     10  C   UNL     1      -0.303  11.936  19.898  0.00  0.00    +0.000 A 
ATOM     11  C   UNL     1       0.527  11.374  20.857  0.00  0.00    +0.000 A 
ATOM     12  N   UNL     1       1.170  10.192  20.672  0.00  0.00    +0.000 NA
ATOM     13  C   UNL     1       2.570   8.383  18.139  0.00  0.00    +0.000 C 
ATOM     14  C   UNL     1       2.844   6.945  17.650  0.00  0.00    +0.000 C 
ENDROOT
BRANCH   1  17
ATOM     15  C   UNL     1       7.112   5.716  19.226  0.00  0.00    +0.000 C 
ATOM     16  C   UNL     1       6.511   5.316  17.906  0.00  0.00    +0.000 C 
ATOM     17  C   UNL     1       5.218   5.001  17.658  0.00  0.00    +0.000 C 
ATOM     18  O   UNL     1       4.801   4.776  16.356  0.00  0.00    +0.000 OA
ATOM     19  C   UNL     1       5.775   4.041  15.626  0.00  0.00    +0.000 C 
ATOM     20  C   UNL     1       7.173   4.625  15.716  0.00  0.00    +0.000 C 
ATOM     21  O   UNL     1       7.474   5.326  16.915  0.00  0.00    +0.000 OA
ENDBRANCH   1  17
TORSDOF 1
ENDMDL
MODEL 3
REMARK VINA RESULT:      -6.5      1.621      2.438
REMARK  Name = 
REMARK  2 active torsions:
REMARK  status: ('A' for Active; 'I' for Inactive)
REMARK    1  A    between atoms: C_1  and  C_2
REMARK    2  A    between atoms: C_3  and  C_4
REMARK                            x       y       z     vdW  Elec       q    Type
REMARK                         _______ _______ _______ _____ _____    ______ ____
ROOT
ATOM      1  C   UNL     1       3.334   5.305  19.621  0.00  0.00    +0.000 C 
ATOM      2  O   UNL     1       3.186   4.555  20.586  0.00  0.00    +0.000 OA
ATOM      3  N   UNL     1       2.533   6.438  19.475  0.00  0.00    +0.000 N 
ATOM      4  C   UNL     1       1.545   6.731  20.533  0.00  0.00    +0.000 C 
ATOM      5  C   UNL     1       1.461   8.245  20.837  0.00  0.00    +0.000 C 
ATOM      6  N   UNL     1       1.160   8.945  19.576  0.00  0.00    +0.000 N 
ATOM      7  C   UNL     1       0.734  10.269  19.690  0.00  0.00    +0.000 A 
ATOM      8  C   UNL     1       0.001  10.849  18.643  0.00  0.00    +0.000 A 
ATOM      9  N   UNL     1      -0.492  12.111  18.649  0.00  0.00    +0.000 NA
ATOM     10  C   UNL     1      -0.231  12.807  19.772  0.00  0.00    +0.000 A 
ATOM     11  C   UNL     1       0.482  12.259  20.829  0.00  0.00    +0.000 A 
ATOM     12  N   UNL     1       0.971  10.993  20.809  0.00  0.00    +0.000 NA
ATOM     13  C   UNL     1       2.220   8.743  18.567  0.00  0.00    +0.000 C 
ATOM     14  C   UNL     1       2.324   7.236  18.253  0.00  0.00    +0.000 C 
ENDROOT
BRANCH   1  17
ATOM     15  C   UNL     1       2.971   3.433  17.214  0.00  0.00    +0.000 C 
ATOM     16  C   UNL     1       4.227   4.189  17.553  0.00  0.00    +0.000 C 
ATOM     17  C   UNL     1       4.422   5.024  18.600  0.00  0.00    +0.000 C 
ATOM     18  O   UNL     1       5.684   5.544  18.840  0.00  0.00    +0.000 OA
ATOM     19  C   UNL     1       6.330   5.902  17.626  0.00  0.00    +0.000 C 
ATOM     20  C   UNL     1       6.325   4.799  16.584  0.00  0.00    +0.000 C 
ATOM     21  O   UNL     1       5.221   3.904  16.636  0.00  0.00    +0.000 OA
ENDBRANCH   1  17
TORSDOF 1
ENDMDL
MODEL 4
REMARK VINA RESULT:      -6.3      2.315      4.057
REMARK  Name = 
REMARK  2 active torsions:
REMARK  status: ('A' for Active; 'I' for Inactive)
REMARK    1  A    between atoms: C_1  and  C_2
REMARK    2  A    between atoms: C_3  and  C_4
REMARK                            x       y       z     vdW  Elec       q    Type
REMARK                         _______ _______ _______ _____ _____    ______ ____
ROOT
ATOM      1  C   UNL     1       2.873   5.927  18.331  0.00  0.00    +0.000 C 
ATOM      2  O   UNL     1       3.419   5.805  17.234  0.00  0.00    +0.000 OA
ATOM      3  N   UNL     1       2.457   7.180  18.781  0.00  0.00    +0.000 N 
ATOM      4  C   UNL     1       2.647   8.337  17.883  0.00  0.00    +0.000 C 
ATOM      5  C   UNL     1       1.443   9.306  17.933  0.00  0.00    +0.000 C 
ATOM      6  N   UNL     1       1.241   9.709  19.336  0.00  0.00    +0.000 N 
ATOM      7  C   UNL     1       0.417  10.814  19.552  0.00  0.00    +0.000 A 
ATOM      8  C   UNL     1       0.533  11.537  20.748  0.00  0.00    +0.000 A 
ATOM      9  N   UNL     1      -0.188  12.641  21.058  0.00  0.00    +0.000 NA
ATOM     10  C   UNL     1      -1.059  13.026  20.106  0.00  0.00    +0.000 A 
ATOM     11  C   UNL     1      -1.190  12.338  18.908  0.00  0.00    +0.000 A 
ATOM     12  N   UNL     1      -0.462  11.232  18.611  0.00  0.00    +0.000 NA
ATOM     13  C   UNL     1       0.930   8.552  20.202  0.00  0.00    +0.000 C 
ATOM     14  C   UNL     1       2.119   7.569  20.162  0.00  0.00    +0.000 C 
ENDROOT
BRANCH   1  17
ATOM     15  C   UNL     1       5.082   4.055  19.354  0.00  0.00    +0.000 C 
ATOM     16  C   UNL     1       3.609   3.897  19.618  0.00  0.00    +0.000 C 
ATOM     17  C   UNL     1       2.610   4.701  19.188  0.00  0.00    +0.000 C 
ATOM     18  O   UNL     1       1.291   4.342  19.414  0.00  0.00    +0.000 OA
ATOM     19  C   UNL     1       1.128   3.779  20.709  0.00  0.00    +0.000 C 
ATOM     20  C   UNL     1       2.113   2.668  21.021  0.00  0.00    +0.000 C 
ATOM     21  O   UNL     1       3.376   2.763  20.373  0.00  0.00    +0.000 OA
ENDBRANCH   1  17
TORSDOF 1
ENDMDL
MODEL 5
REMARK VINA RESULT:      -6.2      2.114      3.484
REMARK  Name = 
REMARK  2 active torsions:
REMARK  status: ('A' for Active; 'I' for Inactive)
REMARK    1  A    between atoms: C_1  and  C_2
REMARK    2  A    between atoms: C_3  and  C_4
REMARK                            x       y       z     vdW  Elec       q    Type
REMARK                         _______ _______ _______ _____ _____    ______ ____
ROOT
ATOM      1  C   UNL     1       2.927   5.667  18.028  0.00  0.00    +0.000 C 
ATOM      2  O   UNL     1       3.526   6.024  17.013  0.00  0.00    +0.000 OA
ATOM      3  N   UNL     1       2.494   6.608  18.963  0.00  0.00    +0.000 N 
ATOM      4  C   UNL     1       2.733   8.036  18.672  0.00  0.00    +0.000 C 
ATOM      5  C   UNL     1       1.531   8.916  19.089  0.00  0.00    +0.000 C 
ATOM      6  N   UNL     1       1.262   8.669  20.517  0.00  0.00    +0.000 N 
ATOM      7  C   UNL     1       0.432   9.589  21.158  0.00  0.00    +0.000 A 
ATOM      8  C   UNL     1       0.491   9.713  22.555  0.00  0.00    +0.000 A 
ATOM      9  N   UNL     1      -0.240  10.589  23.286  0.00  0.00    +0.000 NA
ATOM     10  C   UNL     1      -1.061  11.373  22.561  0.00  0.00    +0.000 A 
ATOM     11  C   UNL     1      -1.135  11.282  21.179  0.00  0.00    +0.000 A 
ATOM     12  N   UNL     1      -0.398  10.398  20.459  0.00  0.00    +0.000 NA
ATOM     13  C   UNL     1       0.903   7.259  20.774  0.00  0.00    +0.000 C 
ATOM     14  C   UNL     1       2.088   6.363  20.359  0.00  0.00    +0.000 C 
ENDROOT
BRANCH   1  17
ATOM     15  C   UNL     1       4.924   3.664  19.222  0.00  0.00    +0.000 C 
ATOM     16  C   UNL     1       3.524   3.342  18.776  0.00  0.00    +0.000 C 
ATOM     17  C   UNL     1       2.616   4.197  18.250  0.00  0.00    +0.000 C 
ATOM     18  O   UNL     1       1.409   3.712  17.771  0.00  0.00    +0.000 OA
ATOM     19  C   UNL     1       0.893   2.696  18.620  0.00  0.00    +0.000 C 
ATOM     20  C   UNL     1       1.894   1.601  18.940  0.00  0.00    +0.000 C 
ATOM     21  O   UNL     1       3.260   1.997  18.953  0.00  0.00    +0.000 OA
ENDBRANCH   1  17
TORSDOF 1
ENDMDL
MODEL 6
REMARK VINA RESULT:      -6.1      3.928      7.612
REMARK  Name = 
REMARK  2 active torsions:
REMARK  status: ('A' for Active; 'I' for Inactive)
REMARK    1  A    between atoms: C_1  and  C_2
REMARK    2  A    between atoms: C_3  and  C_4
REMARK                            x       y       z     vdW  Elec       q    Type
REMARK                         _______ _______ _______ _____ _____    ______ ____
ROOT
ATOM      1  C   UNL     1       0.274   9.307  20.439  0.00  0.00    +0.000 C 
ATOM      2  O   UNL     1      -0.054   8.987  21.582  0.00  0.00    +0.000 OA
ATOM      3  N   UNL     1       1.324   8.654  19.794  0.00  0.00    +0.000 N 
ATOM      4  C   UNL     1       1.989   7.542  20.503  0.00  0.00    +0.000 C 
ATOM      5  C   UNL     1       2.331   6.375  19.547  0.00  0.00    +0.000 C 
ATOM      6  N   UNL     1       3.151   6.913  18.448  0.00  0.00    +0.000 N 
ATOM      7  C   UNL     1       3.822   5.977  17.660  0.00  0.00    +0.000 A 
ATOM      8  C   UNL     1       4.949   6.376  16.925  0.00  0.00    +0.000 A 
ATOM      9  N   UNL     1       5.699   5.555  16.151  0.00  0.00    +0.000 NA
ATOM     10  C   UNL     1       5.285   4.274  16.131  0.00  0.00    +0.000 A 
ATOM     11  C   UNL     1       4.181   3.845  16.854  0.00  0.00    +0.000 A 
ATOM     12  N   UNL     1       3.437   4.679  17.625  0.00  0.00    +0.000 NA
ATOM     13  C   UNL     1       2.425   7.938  17.670  0.00  0.00    +0.000 C 
ATOM     14  C   UNL     1       2.070   9.111  18.607  0.00  0.00    +0.000 C 
ENDROOT
BRANCH   1  17
ATOM     15  C   UNL     1       0.794  12.310  20.810  0.00  0.00    +0.000 C 
ATOM     16  C   UNL     1      -0.239  11.708  19.896  0.00  0.00    +0.000 C 
ATOM     17  C   UNL     1      -0.494  10.393  19.705  0.00  0.00    +0.000 C 
ATOM     18  O   UNL     1      -1.568  10.006  18.920  0.00  0.00    +0.000 OA
ATOM     19  C   UNL     1      -1.694  10.841  17.777  0.00  0.00    +0.000 C 
ATOM     20  C   UNL     1      -1.691  12.324  18.100  0.00  0.00    +0.000 C 
ATOM     21  O   UNL     1      -0.953  12.702  19.255  0.00  0.00    +0.000 OA
ENDBRANCH   1  17
TORSDOF 1
ENDMDL
MODEL 7
REMARK VINA RESULT:      -6.0      2.358      3.748
REMARK  Name = 
REMARK  2 active torsions:
REMARK  status: ('A' for Active; 'I' for Inactive)
REMARK    1  A    between atoms: C_1  and  C_2
REMARK    2  A    between atoms: C_3  and  C_4
REMARK                            x       y       z     vdW  Elec       q    Type
REMARK                         _______ _______ _______ _____ _____    ______ ____
ROOT
ATOM      1  C   UNL     1       3.471   6.184  17.976  0.00  0.00    +0.000 C 
ATOM      2  O   UNL     1       4.052   6.324  16.899  0.00  0.00    +0.000 OA
ATOM      3  N   UNL     1       2.809   7.259  18.569  0.00  0.00    +0.000 N 
ATOM      4  C   UNL     1       2.787   8.546  17.845  0.00  0.00    +0.000 C 
ATOM      5  C   UNL     1       1.416   9.251  17.968  0.00  0.00    +0.000 C 
ATOM      6  N   UNL     1       1.111   9.406  19.401  0.00  0.00    +0.000 N 
ATOM      7  C   UNL     1       0.083  10.292  19.724  0.00  0.00    +0.000 A 
ATOM      8  C   UNL     1       0.031  10.848  21.011  0.00  0.00    +0.000 A 
ATOM      9  N   UNL     1      -0.898  11.740  21.432  0.00  0.00    +0.000 NA
ATOM     10  C   UNL     1      -1.807  12.081  20.499  0.00  0.00    +0.000 A 
ATOM     11  C   UNL     1      -1.777  11.557  19.215  0.00  0.00    +0.000 A 
ATOM     12  N   UNL     1      -0.841  10.663  18.807  0.00  0.00    +0.000 NA
ATOM     13  C   UNL     1       1.014   8.101  20.088  0.00  0.00    +0.000 C 
ATOM     14  C   UNL     1       2.373   7.378  19.973  0.00  0.00    +0.000 C 
ENDROOT
BRANCH   1  17
ATOM     15  C   UNL     1       1.216   4.140  17.566  0.00  0.00    +0.000 C 
ATOM     16  C   UNL     1       2.422   3.948  18.445  0.00  0.00    +0.000 C 
ATOM     17  C   UNL     1       3.434   4.822  18.647  0.00  0.00    +0.000 C 
ATOM     18  O   UNL     1       4.409   4.541  19.591  0.00  0.00    +0.000 OA
ATOM     19  C   UNL     1       4.766   3.166  19.565  0.00  0.00    +0.000 C 
ATOM     20  C   UNL     1       3.577   2.225  19.634  0.00  0.00    +0.000 C 
ATOM     21  O   UNL     1       2.366   2.719  19.076  0.00  0.00    +0.000 OA
ENDBRANCH   1  17
TORSDOF 1
ENDMDL
MODEL 8
REMARK VINA RESULT:      -6.0      1.146      1.844
REMARK  Name = 
REMARK  2 active torsions:
REMARK  status: ('A' for Active; 'I' for Inactive)
REMARK    1  A    between atoms: C_1  and  C_2
REMARK    2  A    between atoms: C_3  and  C_4
REMARK                            x       y       z     vdW  Elec       q    Type
REMARK                         _______ _______ _______ _____ _____    ______ ____
ROOT
ATOM      1  C   UNL     1       3.746   4.415  19.550  0.00  0.00    +0.000 C 
ATOM      2  O   UNL     1       3.465   3.385  20.163  0.00  0.00    +0.000 OA
ATOM      3  N   UNL     1       2.885   5.513  19.576  0.00  0.00    +0.000 N 
ATOM      4  C   UNL     1       1.662   5.415  20.398  0.00  0.00    +0.000 C 
ATOM      5  C   UNL     1       1.356   6.741  21.132  0.00  0.00    +0.000 C 
ATOM      6  N   UNL     1       1.273   7.811  20.123  0.00  0.00    +0.000 N 
ATOM      7  C   UNL     1       0.697   9.012  20.539  0.00  0.00    +0.000 A 
ATOM      8  C   UNL     1       0.161   9.887  19.582  0.00  0.00    +0.000 A 
ATOM      9  N   UNL     1      -0.449  11.063  19.864  0.00  0.00    +0.000 NA
ATOM     10  C   UNL     1      -0.518  11.356  21.176  0.00  0.00    +0.000 A 
ATOM     11  C   UNL     1      -0.007  10.507  22.148  0.00  0.00    +0.000 A 
ATOM     12  N   UNL     1       0.603   9.332  21.851  0.00  0.00    +0.000 NA
ATOM     13  C   UNL     1       2.546   7.979  19.392  0.00  0.00    +0.000 C 
ATOM     14  C   UNL     1       2.872   6.664  18.655  0.00  0.00    +0.000 C 
ENDROOT
BRANCH   1  17
ATOM     15  C   UNL     1       4.039   3.769  16.562  0.00  0.00    +0.000 C 
ATOM     16  C   UNL     1       5.149   4.217  17.473  0.00  0.00    +0.000 C 
ATOM     17  C   UNL     1       5.058   4.514  18.790  0.00  0.00    +0.000 C 
ATOM     18  O   UNL     1       6.205   4.790  19.517  0.00  0.00    +0.000 OA
ATOM     19  C   UNL     1       7.112   5.580  18.759  0.00  0.00    +0.000 C 
ATOM     20  C   UNL     1       7.397   5.024  17.376  0.00  0.00    +0.000 C 
ATOM     21  O   UNL     1       6.345   4.275  16.782  0.00  0.00    +0.000 OA
ENDBRANCH   1  17
TORSDOF 1
ENDMDL
MODEL 9
REMARK VINA RESULT:      -5.8      2.982      4.731
REMARK  Name = 
REMARK  2 active torsions:
REMARK  status: ('A' for Active; 'I' for Inactive)
REMARK    1  A    between atoms: C_1  and  C_2
REMARK    2  A    between atoms: C_3  and  C_4
REMARK                            x       y       z     vdW  Elec       q    Type
REMARK                         _______ _______ _______ _____ _____    ______ ____
ROOT
ATOM      1  C   UNL     1       2.554   6.109  18.839  0.00  0.00    +0.000 C 
ATOM      2  O   UNL     1       3.235   5.882  17.838  0.00  0.00    +0.000 OA
ATOM      3  N   UNL     1       2.203   7.416  19.176  0.00  0.00    +0.000 N 
ATOM      4  C   UNL     1       2.629   8.503  18.273  0.00  0.00    +0.000 C 
ATOM      5  C   UNL     1       1.529   9.579  18.111  0.00  0.00    +0.000 C 
ATOM      6  N   UNL     1       1.173  10.070  19.454  0.00  0.00    +0.000 N 
ATOM      7  C   UNL     1       0.438  11.255  19.505  0.00  0.00    +0.000 A 
ATOM      8  C   UNL     1       0.454  12.025  20.678  0.00  0.00    +0.000 A 
ATOM      9  N   UNL     1      -0.192  13.205  20.838  0.00  0.00    +0.000 NA
ATOM     10  C   UNL     1      -0.879  13.617  19.756  0.00  0.00    +0.000 A 
ATOM     11  C   UNL     1      -0.906  12.884  18.578  0.00  0.00    +0.000 A 
ATOM     12  N   UNL     1      -0.255  11.702  18.432  0.00  0.00    +0.000 NA
ATOM     13  C   UNL     1       0.632   8.992  20.308  0.00  0.00    +0.000 C 
ATOM     14  C   UNL     1       1.713   7.905  20.478  0.00  0.00    +0.000 C 
ENDROOT
BRANCH   1  17
ATOM     15  C   UNL     1       1.103   3.649  17.711  0.00  0.00    +0.000 C 
ATOM     16  C   UNL     1       1.416   3.890  19.162  0.00  0.00    +0.000 C 
ATOM     17  C   UNL     1       2.055   4.957  19.695  0.00  0.00    +0.000 C 
ATOM     18  O   UNL     1       2.151   5.087  21.071  0.00  0.00    +0.000 OA
ATOM     19  C   UNL     1       2.408   3.832  21.687  0.00  0.00    +0.000 C 
ATOM     20  C   UNL     1       1.457   2.732  21.253  0.00  0.00    +0.000 C 
ATOM     21  O   UNL     1       0.932   2.853  19.937  0.00  0.00    +0.000 OA
ENDBRANCH   1  17
TORSDOF 1
ENDMDL
