MODEL 1
REMARK VINA RESULT:      -7.2      0.000      0.000
REMARK  Name = 
REMARK  3 active torsions:
REMARK  status: ('A' for Active; 'I' for Inactive)
REMARK    1  A    between atoms: C_2  and  C_17
REMARK    2  A    between atoms: N_3  and  C_4
REMARK    3  A    between atoms: C_10  and  N_11
REMARK                            x       y       z     vdW  Elec       q    Type
REMARK                         _______ _______ _______ _____ _____    ______ ____
ROOT
ATOM      1  C   UNL     1       3.915   6.038  18.184  0.00  0.00    +0.000 A 
ATOM      2  C   UNL     1       4.728   6.759  17.291  0.00  0.00    +0.000 A 
ATOM      3  C   UNL     1       5.312   6.133  16.195  0.00  0.00    +0.000 A 
ATOM      4  C   UNL     1       5.073   4.775  16.001  0.00  0.00    +0.000 A 
ATOM      5 CL   UNL     1       5.762   3.981  14.636  0.00  0.00    +0.000 Cl
ATOM      6  C   UNL     1       4.282   4.037  16.900  0.00  0.00    +0.000 A 
ATOM      7  C   UNL     1       3.684   4.645  18.018  0.00  0.00    +0.000 A 
ENDROOT
BRANCH   7   8
ATOM      8  N   UNL     1       2.886   3.925  18.904  0.00  0.00    +0.000 N 
ATOM      9  C   UNL     1       1.447   3.711  18.673  0.00  0.00    +0.000 C 
ATOM     10  C   UNL     1       0.753   3.632  20.050  0.00  0.00    +0.000 C 
ATOM     11  O   UNL     1       1.333   2.623  20.900  0.00  0.00    +0.000 OA
ATOM     12  C   UNL     1       2.749   2.835  21.056  0.00  0.00    +0.000 C 
ATOM     13  C   UNL     1       3.453   2.807  19.691  0.00  0.00    +0.000 C 
ENDBRANCH   7   8
BRANCH   1  16
ATOM     14  O   UNL     1       1.865   7.942  17.775  0.00  0.00    +0.000 OA
ATOM     15  C   UNL     1       2.288   7.708  18.905  0.00  0.00    +0.000 C 
ATOM     16  N   UNL     1       3.237   6.738  19.205  0.00  0.00    +0.000 N 
ATOM     17  H   UNL     1       3.778   6.905  20.049  0.00  0.00    +0.000 HD
BRANCH  15  18
ATOM     18  C   UNL     1       1.818   8.488  20.144  0.00  0.00    +0.000 C 
ATOM     19  C   UNL     1       0.921   7.651  21.048  0.00  0.00    +0.000 C 
ATOM     20  C   UNL     1      -0.042   8.663  21.610  0.00  0.00    +0.000 C 
ATOM     21  C   UNL     1      -0.201   9.617  20.451  0.00  0.00    +0.000 C 
ATOM     22  O   UNL     1       1.072   9.668  19.787  0.00  0.00    +0.000 OA
ENDBRANCH  15  18
ENDBRANCH   1  16
TORSDOF 3
ENDMDL
MODEL 2
REMARK VINA RESULT:      -6.9      2.985      5.628
REMARK  Name = 
REMARK  3 active torsions:
REMARK  status: ('A' for Active; 'I' for Inactive)
REMARK    1  A    between atoms: C_2  and  C_17
REMARK    2  A    between atoms: N_3  and  C_4
REMARK    3  A    between atoms: C_10  and  N_11
REMARK                            x       y       z     vdW  Elec       q    Type
REMARK                         _______ _______ _______ _____ _____    ______ ____
ROOT
ATOM      1  C   UNL     1       2.653   6.731  18.267  0.00  0.00    +0.000 A 
ATOM      2  C   UNL     1       2.403   8.113  18.346  0.00  0.00    +0.000 A 
ATOM      3  C   UNL     1       1.841   8.670  19.490  0.00  0.00    +0.000 A 
ATOM      4  C   UNL     1       1.532   7.829  20.557  0.00  0.00    +0.000 A 
ATOM      5 CL   UNL     1       0.861   8.498  21.994  0.00  0.00    +0.000 Cl
ATOM      6  C   UNL     1       1.755   6.442  20.480  0.00  0.00    +0.000 A 
ATOM      7  C   UNL     1       2.317   5.853  19.334  0.00  0.00    +0.000 A 
ENDROOT
BRANCH   7   8
ATOM      8  N   UNL     1       2.556   4.484  19.256  0.00  0.00    +0.000 N 
ATOM      9  C   UNL     1       3.408   3.776  20.228  0.00  0.00    +0.000 C 
ATOM     10  C   UNL     1       4.086   2.599  19.494  0.00  0.00    +0.000 C 
ATOM     11  O   UNL     1       3.133   1.727  18.856  0.00  0.00    +0.000 OA
ATOM     12  C   UNL     1       2.284   2.465  17.956  0.00  0.00    +0.000 C 
ATOM     13  C   UNL     1       1.528   3.569  18.711  0.00  0.00    +0.000 C 
ENDBRANCH   7   8
BRANCH   1  16
ATOM     14  O   UNL     1       5.454   6.380  18.093  0.00  0.00    +0.000 OA
ATOM     15  C   UNL     1       4.732   6.154  17.125  0.00  0.00    +0.000 C 
ATOM     16  N   UNL     1       3.344   6.228  17.144  0.00  0.00    +0.000 N 
ATOM     17  H   UNL     1       2.906   6.415  16.246  0.00  0.00    +0.000 HD
BRANCH  15  18
ATOM     18  C   UNL     1       5.291   5.770  15.745  0.00  0.00    +0.000 C 
ATOM     19  C   UNL     1       5.069   4.299  15.420  0.00  0.00    +0.000 C 
ATOM     20  C   UNL     1       6.284   3.937  14.609  0.00  0.00    +0.000 C 
ATOM     21  C   UNL     1       7.351   4.791  15.251  0.00  0.00    +0.000 C 
ATOM     22  O   UNL     1       6.708   6.012  15.653  0.00  0.00    +0.000 OA
ENDBRANCH  15  18
ENDBRANCH   1  16
TORSDOF 3
ENDMDL
MODEL 3
REMARK VINA RESULT:      -6.8      0.520      1.095
REMARK  Name = 
REMARK  3 active torsions:
REMARK  status: ('A' for Active; 'I' for Inactive)
REMARK    1  A    between atoms: C_2  and  C_17
REMARK    2  A    between atoms: N_3  and  C_4
REMARK    3  A    between atoms: C_10  and  N_11
REMARK                            x       y       z     vdW  Elec       q    Type
REMARK                         _______ _______ _______ _____ _____    ______ ____
ROOT
ATOM      1  C   UNL     1       3.938   6.167  18.052  0.00  0.00    +0.000 A 
ATOM      2  C   UNL     1       4.799   6.860  17.182  0.00  0.00    +0.000 A 
ATOM      3  C   UNL     1       5.389   6.213  16.101  0.00  0.00    +0.000 A 
ATOM      4  C   UNL     1       5.107   4.865  15.897  0.00  0.00    +0.000 A 
ATOM      5 CL   UNL     1       5.803   4.049  14.550  0.00  0.00    +0.000 Cl
ATOM      6  C   UNL     1       4.267   4.155  16.775  0.00  0.00    +0.000 A 
ATOM      7  C   UNL     1       3.662   4.783  17.878  0.00  0.00    +0.000 A 
ENDROOT
BRANCH   7   8
ATOM      8  N   UNL     1       2.817   4.092  18.741  0.00  0.00    +0.000 N 
ATOM      9  C   UNL     1       3.023   4.074  20.200  0.00  0.00    +0.000 C 
ATOM     10  C   UNL     1       2.512   2.718  20.734  0.00  0.00    +0.000 C 
ATOM     11  O   UNL     1       1.143   2.463  20.366  0.00  0.00    +0.000 OA
ATOM     12  C   UNL     1       0.972   2.543  18.938  0.00  0.00    +0.000 C 
ATOM     13  C   UNL     1       1.380   3.931  18.423  0.00  0.00    +0.000 C 
ENDBRANCH   7   8
BRANCH   1  16
ATOM     14  O   UNL     1       1.838   8.007  17.603  0.00  0.00    +0.000 OA
ATOM     15  C   UNL     1       2.282   7.826  18.734  0.00  0.00    +0.000 C 
ATOM     16  N   UNL     1       3.258   6.890  19.056  0.00  0.00    +0.000 N 
ATOM     17  H   UNL     1       3.807   7.102  19.884  0.00  0.00    +0.000 HD
BRANCH  15  18
ATOM     18  C   UNL     1       1.813   8.641  19.950  0.00  0.00    +0.000 C 
ATOM     19  C   UNL     1       1.083   7.783  20.975  0.00  0.00    +0.000 C 
ATOM     20  C   UNL     1       0.051   8.722  21.540  0.00  0.00    +0.000 C 
ATOM     21  C   UNL     1      -0.297   9.561  20.335  0.00  0.00    +0.000 C 
ATOM     22  O   UNL     1       0.912   9.701  19.572  0.00  0.00    +0.000 OA
ENDBRANCH  15  18
ENDBRANCH   1  16
TORSDOF 3
ENDMDL
MODEL 4
REMARK VINA RESULT:      -6.8      3.150      5.726
REMARK  Name = 
REMARK  3 active torsions:
REMARK  status: ('A' for Active; 'I' for Inactive)
REMARK    1  A    between atoms: C_2  and  C_17
REMARK    2  A    between atoms: N_3  and  C_4
REMARK    3  A    between atoms: C_10  and  N_11
REMARK                            x       y       z     vdW  Elec       q    Type
REMARK                         _______ _______ _______ _____ _____    ______ ____
ROOT
ATOM      1  C   UNL     1       3.533   6.276  17.712  0.00  0.00    +0.000 A 
ATOM      2  C   UNL     1       3.468   7.672  17.549  0.00  0.00    +0.000 A 
ATOM      3  C   UNL     1       2.687   8.451  18.396  0.00  0.00    +0.000 A 
ATOM      4  C   UNL     1       1.971   7.820  19.410  0.00  0.00    +0.000 A 
ATOM      5 CL   UNL     1       1.019   8.766  20.488  0.00  0.00    +0.000 Cl
ATOM      6  C   UNL     1       2.008   6.423  19.567  0.00  0.00    +0.000 A 
ATOM      7  C   UNL     1       2.787   5.611  18.722  0.00  0.00    +0.000 A 
ENDROOT
BRANCH   7   8
ATOM      8  N   UNL     1       2.841   4.229  18.882  0.00  0.00    +0.000 N 
ATOM      9  C   UNL     1       3.432   3.596  20.074  0.00  0.00    +0.000 C 
ATOM     10  C   UNL     1       4.043   2.246  19.640  0.00  0.00    +0.000 C 
ATOM     11  O   UNL     1       3.084   1.395  18.981  0.00  0.00    +0.000 OA
ATOM     12  C   UNL     1       2.489   2.070  17.855  0.00  0.00    +0.000 C 
ATOM     13  C   UNL     1       1.790   3.361  18.306  0.00  0.00    +0.000 C 
ENDBRANCH   7   8
BRANCH   1  16
ATOM     14  O   UNL     1       6.108   5.432  18.523  0.00  0.00    +0.000 OA
ATOM     15  C   UNL     1       5.712   5.227  17.378  0.00  0.00    +0.000 C 
ATOM     16  N   UNL     1       4.438   5.539  16.917  0.00  0.00    +0.000 N 
ATOM     17  H   UNL     1       4.364   5.698  15.917  0.00  0.00    +0.000 HD
BRANCH  15  18
ATOM     18  C   UNL     1       6.603   4.602  16.292  0.00  0.00    +0.000 C 
ATOM     19  C   UNL     1       7.020   5.613  15.232  0.00  0.00    +0.000 C 
ATOM     20  C   UNL     1       7.082   4.789  13.974  0.00  0.00    +0.000 C 
ATOM     21  C   UNL     1       5.964   3.800  14.195  0.00  0.00    +0.000 C 
ATOM     22  O   UNL     1       5.937   3.523  15.606  0.00  0.00    +0.000 OA
ENDBRANCH  15  18
ENDBRANCH   1  16
TORSDOF 3
ENDMDL
MODEL 5
REMARK VINA RESULT:      -6.8      2.958      5.584
REMARK  Name = 
REMARK  3 active torsions:
REMARK  status: ('A' for Active; 'I' for Inactive)
REMARK    1  A    between atoms: C_2  and  C_17
REMARK    2  A    between atoms: N_3  and  C_4
REMARK    3  A    between atoms: C_10  and  N_11
REMARK                            x       y       z     vdW  Elec       q    Type
REMARK                         _______ _______ _______ _____ _____    ______ ____
ROOT
ATOM      1  C   UNL     1       2.638   7.039  18.229  0.00  0.00    +0.000 A 
ATOM      2  C   UNL     1       2.173   8.325  17.898  0.00  0.00    +0.000 A 
ATOM      3  C   UNL     1       1.564   9.129  18.854  0.00  0.00    +0.000 A 
ATOM      4  C   UNL     1       1.424   8.634  20.148  0.00  0.00    +0.000 A 
ATOM      5 CL   UNL     1       0.697   9.620  21.358  0.00  0.00    +0.000 Cl
ATOM      6  C   UNL     1       1.862   7.340  20.486  0.00  0.00    +0.000 A 
ATOM      7  C   UNL     1       2.478   6.505  19.536  0.00  0.00    +0.000 A 
ENDROOT
BRANCH   7   8
ATOM      8  N   UNL     1       2.929   5.230  19.866  0.00  0.00    +0.000 N 
ATOM      9  C   UNL     1       4.354   4.858  19.809  0.00  0.00    +0.000 C 
ATOM     10  C   UNL     1       4.437   3.359  19.448  0.00  0.00    +0.000 C 
ATOM     11  O   UNL     1       3.687   2.532  20.357  0.00  0.00    +0.000 OA
ATOM     12  C   UNL     1       2.313   2.961  20.427  0.00  0.00    +0.000 C 
ATOM     13  C   UNL     1       2.228   4.423  20.890  0.00  0.00    +0.000 C 
ENDBRANCH   7   8
BRANCH   1  16
ATOM     14  O   UNL     1       5.356   7.462  17.571  0.00  0.00    +0.000 OA
ATOM     15  C   UNL     1       4.684   6.635  16.960  0.00  0.00    +0.000 C 
ATOM     16  N   UNL     1       3.367   6.309  17.265  0.00  0.00    +0.000 N 
ATOM     17  H   UNL     1       2.819   5.945  16.491  0.00  0.00    +0.000 HD
BRANCH  15  18
ATOM     18  C   UNL     1       5.227   5.855  15.751  0.00  0.00    +0.000 C 
ATOM     19  C   UNL     1       4.951   4.361  15.854  0.00  0.00    +0.000 C 
ATOM     20  C   UNL     1       6.151   3.741  15.191  0.00  0.00    +0.000 C 
ATOM     21  C   UNL     1       7.249   4.704  15.573  0.00  0.00    +0.000 C 
ATOM     22  O   UNL     1       6.652   6.010  15.606  0.00  0.00    +0.000 OA
ENDBRANCH  15  18
ENDBRANCH   1  16
TORSDOF 3
ENDMDL
MODEL 6
REMARK VINA RESULT:      -6.7      3.013      5.505
REMARK  Name = 
REMARK  3 active torsions:
REMARK  status: ('A' for Active; 'I' for Inactive)
REMARK    1  A    between atoms: C_2  and  C_17
REMARK    2  A    between atoms: N_3  and  C_4
REMARK    3  A    between atoms: C_10  and  N_11
REMARK                            x       y       z     vdW  Elec       q    Type
REMARK                         _______ _______ _______ _____ _____    ______ ____
ROOT
ATOM      1  C   UNL     1       2.965   6.558  18.191  0.00  0.00    +0.000 A 
ATOM      2  C   UNL     1       3.009   7.921  17.847  0.00  0.00    +0.000 A 
ATOM      3  C   UNL     1       2.328   8.869  18.604  0.00  0.00    +0.000 A 
ATOM      4  C   UNL     1       1.603   8.439  19.712  0.00  0.00    +0.000 A 
ATOM      5 CL   UNL     1       0.774   9.596  20.681  0.00  0.00    +0.000 Cl
ATOM      6  C   UNL     1       1.530   7.076  20.052  0.00  0.00    +0.000 A 
ATOM      7  C   UNL     1       2.205   6.097  19.301  0.00  0.00    +0.000 A 
ENDROOT
BRANCH   7   8
ATOM      8  N   UNL     1       2.152   4.748  19.641  0.00  0.00    +0.000 N 
ATOM      9  C   UNL     1       2.238   4.283  21.037  0.00  0.00    +0.000 C 
ATOM     10  C   UNL     1       2.921   2.898  21.033  0.00  0.00    +0.000 C 
ATOM     11  O   UNL     1       2.248   1.955  20.176  0.00  0.00    +0.000 OA
ATOM     12  C   UNL     1       2.136   2.470  18.835  0.00  0.00    +0.000 C 
ATOM     13  C   UNL     1       1.361   3.796  18.829  0.00  0.00    +0.000 C 
ENDBRANCH   7   8
BRANCH   1  16
ATOM     14  O   UNL     1       5.466   5.566  19.061  0.00  0.00    +0.000 OA
ATOM     15  C   UNL     1       5.024   5.269  17.954  0.00  0.00    +0.000 C 
ATOM     16  N   UNL     1       3.774   5.649  17.477  0.00  0.00    +0.000 N 
ATOM     17  H   UNL     1       3.691   5.696  16.466  0.00  0.00    +0.000 HD
BRANCH  15  18
ATOM     18  C   UNL     1       5.822   4.436  16.937  0.00  0.00    +0.000 C 
ATOM     19  C   UNL     1       6.958   5.230  16.303  0.00  0.00    +0.000 C 
ATOM     20  C   UNL     1       7.027   4.678  14.905  0.00  0.00    +0.000 C 
ATOM     21  C   UNL     1       5.576   4.379  14.617  0.00  0.00    +0.000 C 
ATOM     22  O   UNL     1       4.991   3.959  15.861  0.00  0.00    +0.000 OA
ENDBRANCH  15  18
ENDBRANCH   1  16
TORSDOF 3
ENDMDL
MODEL 7
REMARK VINA RESULT:      -6.7      4.009      7.039
REMARK  Name = 
REMARK  3 active torsions:
REMARK  status: ('A' for Active; 'I' for Inactive)
REMARK    1  A    between atoms: C_2  and  C_17
REMARK    2  A    between atoms: N_3  and  C_4
REMARK    3  A    between atoms: C_10  and  N_11
REMARK                            x       y       z     vdW  Elec       q    Type
REMARK                         _______ _______ _______ _____ _____    ______ ____
ROOT
ATOM      1  C   UNL     1       4.482   3.710  17.383  0.00  0.00    +0.000 A 
ATOM      2  C   UNL     1       3.345   2.883  17.314  0.00  0.00    +0.000 A 
ATOM      3  C   UNL     1       2.269   3.080  18.172  0.00  0.00    +0.000 A 
ATOM      4  C   UNL     1       2.341   4.115  19.102  0.00  0.00    +0.000 A 
ATOM      5 CL   UNL     1       1.010   4.396  20.159  0.00  0.00    +0.000 Cl
ATOM      6  C   UNL     1       3.482   4.932  19.198  0.00  0.00    +0.000 A 
ATOM      7  C   UNL     1       4.585   4.751  18.345  0.00  0.00    +0.000 A 
ENDROOT
BRANCH   7   8
ATOM      8  N   UNL     1       5.711   5.566  18.422  0.00  0.00    +0.000 N 
ATOM      9  C   UNL     1       5.739   6.928  17.861  0.00  0.00    +0.000 C 
ATOM     10  C   UNL     1       7.183   7.221  17.401  0.00  0.00    +0.000 C 
ATOM     11  O   UNL     1       8.145   7.040  18.458  0.00  0.00    +0.000 OA
ATOM     12  C   UNL     1       8.049   5.715  19.017  0.00  0.00    +0.000 C 
ATOM     13  C   UNL     1       6.639   5.464  19.571  0.00  0.00    +0.000 C 
ENDBRANCH   7   8
BRANCH   1  16
ATOM     14  O   UNL     1       4.820   5.362  15.113  0.00  0.00    +0.000 OA
ATOM     15  C   UNL     1       5.538   4.381  15.287  0.00  0.00    +0.000 C 
ATOM     16  N   UNL     1       5.492   3.560  16.408  0.00  0.00    +0.000 N 
ATOM     17  H   UNL     1       5.818   2.609  16.264  0.00  0.00    +0.000 HD
BRANCH  15  18
ATOM     18  C   UNL     1       6.586   3.926  14.258  0.00  0.00    +0.000 C 
ATOM     19  C   UNL     1       7.242   5.101  13.543  0.00  0.00    +0.000 C 
ATOM     20  C   UNL     1       7.500   4.563  12.161  0.00  0.00    +0.000 C 
ATOM     21  C   UNL     1       6.315   3.652  11.956  0.00  0.00    +0.000 C 
ATOM     22  O   UNL     1       6.011   3.083  13.241  0.00  0.00    +0.000 OA
ENDBRANCH  15  18
ENDBRANCH   1  16
TORSDOF 3
ENDMDL
MODEL 8
REMARK VINA RESULT:      -6.7      2.981      5.516
REMARK  Name = 
REMARK  3 active torsions:
REMARK  status: ('A' for Active; 'I' for Inactive)
REMARK    1  A    between atoms: C_2  and  C_17
REMARK    2  A    between atoms: N_3  and  C_4
REMARK    3  A    between atoms: C_10  and  N_11
REMARK                            x       y       z     vdW  Elec       q    Type
REMARK                         _______ _______ _______ _____ _____    ______ ____
ROOT
ATOM      1  C   UNL     1       2.779   6.665  18.170  0.00  0.00    +0.000 A 
ATOM      2  C   UNL     1       2.500   8.043  18.227  0.00  0.00    +0.000 A 
ATOM      3  C   UNL     1       1.925   8.605  19.361  0.00  0.00    +0.000 A 
ATOM      4  C   UNL     1       1.632   7.775  20.441  0.00  0.00    +0.000 A 
ATOM      5 CL   UNL     1       0.946   8.452  21.867  0.00  0.00    +0.000 Cl
ATOM      6  C   UNL     1       1.884   6.392  20.386  0.00  0.00    +0.000 A 
ATOM      7  C   UNL     1       2.461   5.797  19.249  0.00  0.00    +0.000 A 
ENDROOT
BRANCH   7   8
ATOM      8  N   UNL     1       2.728   4.432  19.194  0.00  0.00    +0.000 N 
ATOM      9  C   UNL     1       2.000   3.522  18.291  0.00  0.00    +0.000 C 
ATOM     10  C   UNL     1       1.924   2.139  18.973  0.00  0.00    +0.000 C 
ATOM     11  O   UNL     1       3.223   1.633  19.337  0.00  0.00    +0.000 OA
ATOM     12  C   UNL     1       3.924   2.574  20.173  0.00  0.00    +0.000 C 
ATOM     13  C   UNL     1       4.092   3.919  19.449  0.00  0.00    +0.000 C 
ENDBRANCH   7   8
BRANCH   1  16
ATOM     14  O   UNL     1       5.581   6.793  17.809  0.00  0.00    +0.000 OA
ATOM     15  C   UNL     1       4.856   6.328  16.932  0.00  0.00    +0.000 C 
ATOM     16  N   UNL     1       3.482   6.159  17.055  0.00  0.00    +0.000 N 
ATOM     17  H   UNL     1       2.964   6.157  16.181  0.00  0.00    +0.000 HD
BRANCH  15  18
ATOM     18  C   UNL     1       5.392   5.885  15.561  0.00  0.00    +0.000 C 
ATOM     19  C   UNL     1       5.062   4.430  15.254  0.00  0.00    +0.000 C 
ATOM     20  C   UNL     1       6.252   3.967  14.456  0.00  0.00    +0.000 C 
ATOM     21  C   UNL     1       7.375   4.747  15.093  0.00  0.00    +0.000 C 
ATOM     22  O   UNL     1       6.824   6.018  15.474  0.00  0.00    +0.000 OA
ENDBRANCH  15  18
ENDBRANCH   1  16
TORSDOF 3
ENDMDL
MODEL 9
REMARK VINA RESULT:      -6.7      4.114      6.892
REMARK  Name = 
REMARK  3 active torsions:
REMARK  status: ('A' for Active; 'I' for Inactive)
REMARK    1  A    between atoms: C_2  and  C_17
REMARK    2  A    between atoms: N_3  and  C_4
REMARK    3  A    between atoms: C_10  and  N_11
REMARK                            x       y       z     vdW  Elec       q    Type
REMARK                         _______ _______ _______ _____ _____    ______ ____
ROOT
ATOM      1  C   UNL     1       3.729   3.805  17.302  0.00  0.00    +0.000 A 
ATOM      2  C   UNL     1       2.707   2.844  17.410  0.00  0.00    +0.000 A 
ATOM      3  C   UNL     1       2.184   2.498  18.651  0.00  0.00    +0.000 A 
ATOM      4  C   UNL     1       2.693   3.126  19.786  0.00  0.00    +0.000 A 
ATOM      5 CL   UNL     1       2.043   2.736  21.331  0.00  0.00    +0.000 Cl
ATOM      6  C   UNL     1       3.731   4.071  19.693  0.00  0.00    +0.000 A 
ATOM      7  C   UNL     1       4.281   4.435  18.450  0.00  0.00    +0.000 A 
ENDROOT
BRANCH   7   8
ATOM      8  N   UNL     1       5.297   5.380  18.349  0.00  0.00    +0.000 N 
ATOM      9  C   UNL     1       5.063   6.735  17.818  0.00  0.00    +0.000 C 
ATOM     10  C   UNL     1       6.360   7.201  17.122  0.00  0.00    +0.000 C 
ATOM     11  O   UNL     1       7.505   7.140  17.994  0.00  0.00    +0.000 OA
ATOM     12  C   UNL     1       7.667   5.814  18.535  0.00  0.00    +0.000 C 
ATOM     13  C   UNL     1       6.415   5.394  19.319  0.00  0.00    +0.000 C 
ENDBRANCH   7   8
BRANCH   1  16
ATOM     14  O   UNL     1       6.175   3.115  16.061  0.00  0.00    +0.000 OA
ATOM     15  C   UNL     1       5.391   3.888  15.516  0.00  0.00    +0.000 C 
ATOM     16  N   UNL     1       4.138   4.222  16.016  0.00  0.00    +0.000 N 
ATOM     17  H   UNL     1       3.777   5.124  15.718  0.00  0.00    +0.000 HD
BRANCH  15  18
ATOM     18  C   UNL     1       5.715   4.603  14.194  0.00  0.00    +0.000 C 
ATOM     19  C   UNL     1       5.924   3.626  13.043  0.00  0.00    +0.000 C 
ATOM     20  C   UNL     1       6.972   4.303  12.202  0.00  0.00    +0.000 C 
ATOM     21  C   UNL     1       7.813   4.992  13.248  0.00  0.00    +0.000 C 
ATOM     22  O   UNL     1       6.913   5.398  14.292  0.00  0.00    +0.000 OA
ENDBRANCH  15  18
ENDBRANCH   1  16
TORSDOF 3
ENDMDL
