MODEL 1
REMARK VINA RESULT:      -7.7      0.000      0.000
REMARK  Name = 
REMARK  3 active torsions:
REMARK  status: ('A' for Active; 'I' for Inactive)
REMARK    1  A    between atoms: C_1  and  C_2
REMARK    2  A    between atoms: N_10  and  C_11
REMARK    3  A    between atoms: C_14  and  C_15
REMARK                            x       y       z     vdW  Elec       q    Type
REMARK                         _______ _______ _______ _____ _____    ______ ____
ROOT
ATOM      1  C   UNL     1       1.859   6.388  20.642  0.00  0.00    +0.000 C 
ATOM      2  C   UNL     1       1.988   4.919  20.386  0.00  0.00    +0.000 A 
ATOM      3  C   UNL     1       1.271   3.982  21.150  0.00  0.00    +0.000 A 
ATOM      4  C   UNL     1       1.376   2.599  20.898  0.00  0.00    +0.000 A 
ATOM      5  C   UNL     1       2.185   2.122  19.868  0.00  0.00    +0.000 A 
ATOM      6  C   UNL     1       2.878   3.060  19.123  0.00  0.00    +0.000 A 
ATOM      7  C   UNL     1       2.803   4.413  19.379  0.00  0.00    +0.000 A 
ATOM      8  C   UNL     1       3.679   5.084  18.413  0.00  0.00    +0.000 C 
ATOM      9  O   UNL     1       3.812   6.296  18.390  0.00  0.00    +0.000 OA
ATOM     10  N   UNL     1       4.215   4.105  17.600  0.00  0.00    +0.000 N 
ATOM     11  C   UNL     1       3.765   2.860  17.982  0.00  0.00    +0.000 C 
ATOM     12  O   UNL     1       4.007   1.745  17.556  0.00  0.00    +0.000 OA
ENDROOT
BRANCH  10  13
ATOM     13  C   UNL     1       5.092   4.345  16.505  0.00  0.00    +0.000 A 
ATOM     14  C   UNL     1       6.407   4.794  16.705  0.00  0.00    +0.000 A 
ATOM     15  C   UNL     1       7.267   5.031  15.623  0.00  0.00    +0.000 A 
ATOM     16  C   UNL     1       6.819   4.842  14.313  0.00  0.00    +0.000 A 
ATOM     17  C   UNL     1       5.511   4.410  14.096  0.00  0.00    +0.000 A 
ATOM     18  C   UNL     1       4.665   4.153  15.183  0.00  0.00    +0.000 A 
BRANCH  16  19
ATOM     19  C   UNL     1       7.729   5.118  13.167  0.00  0.00    +0.000 C 
ATOM     20  N   UNL     1       8.790   5.856  13.270  0.00  0.00    +0.000 NA
ATOM     21  N   UNL     1       7.480   4.583  11.940  0.00  0.00    +0.000 N 
ATOM     22  H   UNL     1       8.880   6.256  14.208  0.00  0.00    +0.000 HD
ATOM     23  H   UNL     1       7.099   3.644  11.932  0.00  0.00    +0.000 HD
ATOM     24  H   UNL     1       8.291   4.680  11.337  0.00  0.00    +0.000 HD
ENDBRANCH  16  19
ENDBRANCH  10  13
TORSDOF 2
ENDMDL
MODEL 2
REMARK VINA RESULT:      -7.7      0.049      1.050
REMARK  Name = 
REMARK  3 active torsions:
REMARK  status: ('A' for Active; 'I' for Inactive)
REMARK    1  A    between atoms: C_1  and  C_2
REMARK    2  A    between atoms: N_10  and  C_11
REMARK    3  A    between atoms: C_14  and  C_15
REMARK                            x       y       z     vdW  Elec       q    Type
REMARK                         _______ _______ _______ _____ _____    ______ ____
ROOT
ATOM      1  C   UNL     1       1.795   6.369  20.624  0.00  0.00    +0.000 C 
ATOM      2  C   UNL     1       1.937   4.902  20.359  0.00  0.00    +0.000 A 
ATOM      3  C   UNL     1       1.226   3.955  21.115  0.00  0.00    +0.000 A 
ATOM      4  C   UNL     1       1.343   2.574  20.855  0.00  0.00    +0.000 A 
ATOM      5  C   UNL     1       2.160   2.111  19.825  0.00  0.00    +0.000 A 
ATOM      6  C   UNL     1       2.848   3.058  19.089  0.00  0.00    +0.000 A 
ATOM      7  C   UNL     1       2.760   4.410  19.353  0.00  0.00    +0.000 A 
ATOM      8  C   UNL     1       3.634   5.093  18.394  0.00  0.00    +0.000 C 
ATOM      9  O   UNL     1       3.757   6.307  18.378  0.00  0.00    +0.000 OA
ATOM     10  N   UNL     1       4.181   4.124  17.576  0.00  0.00    +0.000 N 
ATOM     11  C   UNL     1       3.740   2.872  17.950  0.00  0.00    +0.000 C 
ATOM     12  O   UNL     1       3.993   1.762  17.518  0.00  0.00    +0.000 OA
ENDROOT
BRANCH  10  13
ATOM     13  C   UNL     1       5.060   4.378  16.486  0.00  0.00    +0.000 A 
ATOM     14  C   UNL     1       4.658   4.164  15.157  0.00  0.00    +0.000 A 
ATOM     15  C   UNL     1       5.527   4.414  14.086  0.00  0.00    +0.000 A 
ATOM     16  C   UNL     1       6.827   4.866  14.324  0.00  0.00    +0.000 A 
ATOM     17  C   UNL     1       7.247   5.070  15.638  0.00  0.00    +0.000 A 
ATOM     18  C   UNL     1       6.366   4.840  16.703  0.00  0.00    +0.000 A 
BRANCH  16  19
ATOM     19  C   UNL     1       7.753   5.107  13.183  0.00  0.00    +0.000 C 
ATOM     20  N   UNL     1       8.820   5.836  13.282  0.00  0.00    +0.000 NA
ATOM     21  N   UNL     1       7.512   4.547  11.966  0.00  0.00    +0.000 N 
ATOM     22  H   UNL     1       8.904   6.255  14.211  0.00  0.00    +0.000 HD
ATOM     23  H   UNL     1       7.121   3.613  11.973  0.00  0.00    +0.000 HD
ATOM     24  H   UNL     1       8.331   4.623  11.369  0.00  0.00    +0.000 HD
ENDBRANCH  16  19
ENDBRANCH  10  13
TORSDOF 2
ENDMDL
MODEL 3
REMARK VINA RESULT:      -7.4      2.750      4.239
REMARK  Name = 
REMARK  3 active torsions:
REMARK  status: ('A' for Active; 'I' for Inactive)
REMARK    1  A    between atoms: C_1  and  C_2
REMARK    2  A    between atoms: N_10  and  C_11
REMARK    3  A    between atoms: C_14  and  C_15
REMARK                            x       y       z     vdW  Elec       q    Type
REMARK                         _______ _______ _______ _____ _____    ______ ____
ROOT
ATOM      1  C   UNL     1       0.236  10.958  18.632  0.00  0.00    +0.000 C 
ATOM      2  C   UNL     1       0.430   9.874  19.646  0.00  0.00    +0.000 A 
ATOM      3  C   UNL     1      -0.282   9.877  20.857  0.00  0.00    +0.000 A 
ATOM      4  C   UNL     1      -0.117   8.847  21.806  0.00  0.00    +0.000 A 
ATOM      5  C   UNL     1       0.751   7.785  21.558  0.00  0.00    +0.000 A 
ATOM      6  C   UNL     1       1.438   7.796  20.358  0.00  0.00    +0.000 A 
ATOM      7  C   UNL     1       1.302   8.813  19.435  0.00  0.00    +0.000 A 
ATOM      8  C   UNL     1       2.192   8.497  18.313  0.00  0.00    +0.000 C 
ATOM      9  O   UNL     1       2.281   9.218  17.333  0.00  0.00    +0.000 OA
ATOM     10  N   UNL     1       2.796   7.288  18.598  0.00  0.00    +0.000 N 
ATOM     11  C   UNL     1       2.377   6.816  19.823  0.00  0.00    +0.000 C 
ATOM     12  O   UNL     1       2.677   5.817  20.451  0.00  0.00    +0.000 OA
ENDROOT
BRANCH  10  13
ATOM     13  C   UNL     1       3.707   6.610  17.740  0.00  0.00    +0.000 A 
ATOM     14  C   UNL     1       4.782   7.282  17.135  0.00  0.00    +0.000 A 
ATOM     15  C   UNL     1       5.675   6.610  16.289  0.00  0.00    +0.000 A 
ATOM     16  C   UNL     1       5.499   5.252  16.015  0.00  0.00    +0.000 A 
ATOM     17  C   UNL     1       4.429   4.573  16.595  0.00  0.00    +0.000 A 
ATOM     18  C   UNL     1       3.553   5.245  17.458  0.00  0.00    +0.000 A 
BRANCH  16  19
ATOM     19  C   UNL     1       6.438   4.550  15.097  0.00  0.00    +0.000 C 
ATOM     20  N   UNL     1       6.160   3.416  14.534  0.00  0.00    +0.000 NA
ATOM     21  N   UNL     1       7.651   5.092  14.798  0.00  0.00    +0.000 N 
ATOM     22  H   UNL     1       5.254   3.054  14.844  0.00  0.00    +0.000 HD
ATOM     23  H   UNL     1       7.677   6.100  14.704  0.00  0.00    +0.000 HD
ATOM     24  H   UNL     1       8.071   4.615  14.006  0.00  0.00    +0.000 HD
ENDBRANCH  16  19
ENDBRANCH  10  13
TORSDOF 2
ENDMDL
MODEL 4
REMARK VINA RESULT:      -7.3      1.210      2.135
REMARK  Name = 
REMARK  3 active torsions:
REMARK  status: ('A' for Active; 'I' for Inactive)
REMARK    1  A    between atoms: C_1  and  C_2
REMARK    2  A    between atoms: N_10  and  C_11
REMARK    3  A    between atoms: C_14  and  C_15
REMARK                            x       y       z     vdW  Elec       q    Type
REMARK                         _______ _______ _______ _____ _____    ______ ____
ROOT
ATOM      1  C   UNL     1       0.350   2.095  18.588  0.00  0.00    +0.000 C 
ATOM      2  C   UNL     1       1.276   2.895  19.450  0.00  0.00    +0.000 A 
ATOM      3  C   UNL     1       1.036   3.052  20.826  0.00  0.00    +0.000 A 
ATOM      4  C   UNL     1       1.916   3.788  21.644  0.00  0.00    +0.000 A 
ATOM      5  C   UNL     1       3.065   4.371  21.109  0.00  0.00    +0.000 A 
ATOM      6  C   UNL     1       3.287   4.201  19.755  0.00  0.00    +0.000 A 
ATOM      7  C   UNL     1       2.417   3.504  18.941  0.00  0.00    +0.000 A 
ATOM      8  C   UNL     1       2.966   3.554  17.582  0.00  0.00    +0.000 C 
ATOM      9  O   UNL     1       2.413   3.014  16.639  0.00  0.00    +0.000 OA
ATOM     10  N   UNL     1       4.157   4.250  17.647  0.00  0.00    +0.000 N 
ATOM     11  C   UNL     1       4.403   4.665  18.938  0.00  0.00    +0.000 C 
ATOM     12  O   UNL     1       5.313   5.317  19.419  0.00  0.00    +0.000 OA
ENDROOT
BRANCH  10  13
ATOM     13  C   UNL     1       5.023   4.488  16.543  0.00  0.00    +0.000 A 
ATOM     14  C   UNL     1       5.250   5.786  16.057  0.00  0.00    +0.000 A 
ATOM     15  C   UNL     1       6.102   6.015  14.968  0.00  0.00    +0.000 A 
ATOM     16  C   UNL     1       6.733   4.945  14.329  0.00  0.00    +0.000 A 
ATOM     17  C   UNL     1       6.508   3.648  14.791  0.00  0.00    +0.000 A 
ATOM     18  C   UNL     1       5.673   3.428  15.894  0.00  0.00    +0.000 A 
BRANCH  16  19
ATOM     19  C   UNL     1       7.619   5.193  13.159  0.00  0.00    +0.000 C 
ATOM     20  N   UNL     1       8.687   5.924  13.224  0.00  0.00    +0.000 NA
ATOM     21  N   UNL     1       7.338   4.638  11.947  0.00  0.00    +0.000 N 
ATOM     22  H   UNL     1       8.802   6.340  14.152  0.00  0.00    +0.000 HD
ATOM     23  H   UNL     1       6.950   3.702  11.964  0.00  0.00    +0.000 HD
ATOM     24  H   UNL     1       8.136   4.718  11.324  0.00  0.00    +0.000 HD
ENDBRANCH  16  19
ENDBRANCH  10  13
TORSDOF 2
ENDMDL
MODEL 5
REMARK VINA RESULT:      -7.3      1.216      2.177
REMARK  Name = 
REMARK  3 active torsions:
REMARK  status: ('A' for Active; 'I' for Inactive)
REMARK    1  A    between atoms: C_1  and  C_2
REMARK    2  A    between atoms: N_10  and  C_11
REMARK    3  A    between atoms: C_14  and  C_15
REMARK                            x       y       z     vdW  Elec       q    Type
REMARK                         _______ _______ _______ _____ _____    ______ ____
ROOT
ATOM      1  C   UNL     1       0.342   2.105  18.615  0.00  0.00    +0.000 C 
ATOM      2  C   UNL     1       1.283   2.903  19.463  0.00  0.00    +0.000 A 
ATOM      3  C   UNL     1       1.061   3.061  20.842  0.00  0.00    +0.000 A 
ATOM      4  C   UNL     1       1.956   3.795  21.648  0.00  0.00    +0.000 A 
ATOM      5  C   UNL     1       3.098   4.373  21.097  0.00  0.00    +0.000 A 
ATOM      6  C   UNL     1       3.303   4.202  19.740  0.00  0.00    +0.000 A 
ATOM      7  C   UNL     1       2.420   3.507  18.939  0.00  0.00    +0.000 A 
ATOM      8  C   UNL     1       2.950   3.554  17.573  0.00  0.00    +0.000 C 
ATOM      9  O   UNL     1       2.383   3.014  16.637  0.00  0.00    +0.000 OA
ATOM     10  N   UNL     1       4.144   4.246  17.621  0.00  0.00    +0.000 N 
ATOM     11  C   UNL     1       4.409   4.661  18.908  0.00  0.00    +0.000 C 
ATOM     12  O   UNL     1       5.327   5.310  19.377  0.00  0.00    +0.000 OA
ENDROOT
BRANCH  10  13
ATOM     13  C   UNL     1       4.997   4.480  16.506  0.00  0.00    +0.000 A 
ATOM     14  C   UNL     1       5.652   3.424  15.852  0.00  0.00    +0.000 A 
ATOM     15  C   UNL     1       6.493   3.659  14.754  0.00  0.00    +0.000 A 
ATOM     16  C   UNL     1       6.710   4.962  14.300  0.00  0.00    +0.000 A 
ATOM     17  C   UNL     1       6.078   6.023  14.946  0.00  0.00    +0.000 A 
ATOM     18  C   UNL     1       5.221   5.779  16.028  0.00  0.00    +0.000 A 
BRANCH  16  19
ATOM     19  C   UNL     1       7.622   5.207  13.148  0.00  0.00    +0.000 C 
ATOM     20  N   UNL     1       8.696   5.926  13.239  0.00  0.00    +0.000 NA
ATOM     21  N   UNL     1       7.359   4.662  11.928  0.00  0.00    +0.000 N 
ATOM     22  H   UNL     1       8.797   6.335  14.172  0.00  0.00    +0.000 HD
ATOM     23  H   UNL     1       6.961   3.731  11.932  0.00  0.00    +0.000 HD
ATOM     24  H   UNL     1       8.170   4.737  11.322  0.00  0.00    +0.000 HD
ENDBRANCH  16  19
ENDBRANCH  10  13
TORSDOF 2
ENDMDL
MODEL 6
REMARK VINA RESULT:      -7.3      2.899      4.576
REMARK  Name = 
REMARK  3 active torsions:
REMARK  status: ('A' for Active; 'I' for Inactive)
REMARK    1  A    between atoms: C_1  and  C_2
REMARK    2  A    between atoms: N_10  and  C_11
REMARK    3  A    between atoms: C_14  and  C_15
REMARK                            x       y       z     vdW  Elec       q    Type
REMARK                         _______ _______ _______ _____ _____    ______ ____
ROOT
ATOM      1  C   UNL     1       0.111  11.129  18.583  0.00  0.00    +0.000 C 
ATOM      2  C   UNL     1       0.282  10.094  19.651  0.00  0.00    +0.000 A 
ATOM      3  C   UNL     1      -0.435  10.171  20.858  0.00  0.00    +0.000 A 
ATOM      4  C   UNL     1      -0.291   9.188  21.858  0.00  0.00    +0.000 A 
ATOM      5  C   UNL     1       0.560   8.100  21.669  0.00  0.00    +0.000 A 
ATOM      6  C   UNL     1       1.253   8.039  20.474  0.00  0.00    +0.000 A 
ATOM      7  C   UNL     1       1.138   9.010  19.500  0.00  0.00    +0.000 A 
ATOM      8  C   UNL     1       2.027   8.623  18.399  0.00  0.00    +0.000 C 
ATOM      9  O   UNL     1       2.132   9.291  17.384  0.00  0.00    +0.000 OA
ATOM     10  N   UNL     1       2.610   7.420  18.748  0.00  0.00    +0.000 N 
ATOM     11  C   UNL     1       2.177   7.018  19.994  0.00  0.00    +0.000 C 
ATOM     12  O   UNL     1       2.458   6.048  20.674  0.00  0.00    +0.000 OA
ENDROOT
BRANCH  10  13
ATOM     13  C   UNL     1       3.512   6.684  17.930  0.00  0.00    +0.000 A 
ATOM     14  C   UNL     1       3.270   5.342  17.597  0.00  0.00    +0.000 A 
ATOM     15  C   UNL     1       4.163   4.620  16.793  0.00  0.00    +0.000 A 
ATOM     16  C   UNL     1       5.330   5.224  16.320  0.00  0.00    +0.000 A 
ATOM     17  C   UNL     1       5.594   6.552  16.653  0.00  0.00    +0.000 A 
ATOM     18  C   UNL     1       4.686   7.274  17.438  0.00  0.00    +0.000 A 
BRANCH  16  19
ATOM     19  C   UNL     1       6.286   4.444  15.485  0.00  0.00    +0.000 C 
ATOM     20  N   UNL     1       6.223   3.157  15.354  0.00  0.00    +0.000 NA
ATOM     21  N   UNL     1       7.282   5.074  14.802  0.00  0.00    +0.000 N 
ATOM     22  H   UNL     1       5.479   2.756  15.933  0.00  0.00    +0.000 HD
ATOM     23  H   UNL     1       7.051   5.978  14.408  0.00  0.00    +0.000 HD
ATOM     24  H   UNL     1       7.701   4.447  14.122  0.00  0.00    +0.000 HD
ENDBRANCH  16  19
ENDBRANCH  10  13
TORSDOF 2
ENDMDL
MODEL 7
REMARK VINA RESULT:      -7.1      4.225      6.446
REMARK  Name = 
REMARK  3 active torsions:
REMARK  status: ('A' for Active; 'I' for Inactive)
REMARK    1  A    between atoms: C_1  and  C_2
REMARK    2  A    between atoms: N_10  and  C_11
REMARK    3  A    between atoms: C_14  and  C_15
REMARK                            x       y       z     vdW  Elec       q    Type
REMARK                         _______ _______ _______ _____ _____    ______ ____
ROOT
ATOM      1  C   UNL     1      -0.091  10.168  22.456  0.00  0.00    +0.000 C 
ATOM      2  C   UNL     1       0.316  10.387  21.032  0.00  0.00    +0.000 A 
ATOM      3  C   UNL     1       0.094  11.620  20.395  0.00  0.00    +0.000 A 
ATOM      4  C   UNL     1       0.494  11.837  19.060  0.00  0.00    +0.000 A 
ATOM      5  C   UNL     1       1.138  10.832  18.339  0.00  0.00    +0.000 A 
ATOM      6  C   UNL     1       1.352   9.629  18.985  0.00  0.00    +0.000 A 
ATOM      7  C   UNL     1       0.941   9.399  20.282  0.00  0.00    +0.000 A 
ATOM      8  C   UNL     1       1.317   8.021  20.615  0.00  0.00    +0.000 C 
ATOM      9  O   UNL     1       1.087   7.532  21.708  0.00  0.00    +0.000 OA
ATOM     10  N   UNL     1       1.966   7.497  19.514  0.00  0.00    +0.000 N 
ATOM     11  C   UNL     1       2.018   8.426  18.497  0.00  0.00    +0.000 C 
ATOM     12  O   UNL     1       2.471   8.366  17.368  0.00  0.00    +0.000 OA
ENDROOT
BRANCH  10  13
ATOM     13  C   UNL     1       2.525   6.190  19.443  0.00  0.00    +0.000 A 
ATOM     14  C   UNL     1       1.716   5.044  19.505  0.00  0.00    +0.000 A 
ATOM     15  C   UNL     1       2.272   3.758  19.437  0.00  0.00    +0.000 A 
ATOM     16  C   UNL     1       3.654   3.593  19.325  0.00  0.00    +0.000 A 
ATOM     17  C   UNL     1       4.473   4.721  19.276  0.00  0.00    +0.000 A 
ATOM     18  C   UNL     1       3.910   6.002  19.322  0.00  0.00    +0.000 A 
BRANCH  16  19
ATOM     19  C   UNL     1       4.240   2.225  19.276  0.00  0.00    +0.000 C 
ATOM     20  N   UNL     1       5.039   1.766  20.187  0.00  0.00    +0.000 NA
ATOM     21  N   UNL     1       3.940   1.379  18.252  0.00  0.00    +0.000 N 
ATOM     22  H   UNL     1       5.250   2.476  20.894  0.00  0.00    +0.000 HD
ATOM     23  H   UNL     1       2.991   1.421  17.901  0.00  0.00    +0.000 HD
ATOM     24  H   UNL     1       4.234   0.432  18.473  0.00  0.00    +0.000 HD
ENDBRANCH  16  19
ENDBRANCH  10  13
TORSDOF 2
ENDMDL
MODEL 8
REMARK VINA RESULT:      -7.1      4.203      6.338
REMARK  Name = 
REMARK  3 active torsions:
REMARK  status: ('A' for Active; 'I' for Inactive)
REMARK    1  A    between atoms: C_1  and  C_2
REMARK    2  A    between atoms: N_10  and  C_11
REMARK    3  A    between atoms: C_14  and  C_15
REMARK                            x       y       z     vdW  Elec       q    Type
REMARK                         _______ _______ _______ _____ _____    ______ ____
ROOT
ATOM      1  C   UNL     1      -0.045  10.095  22.242  0.00  0.00    +0.000 C 
ATOM      2  C   UNL     1       0.443  10.285  20.839  0.00  0.00    +0.000 A 
ATOM      3  C   UNL     1       0.274  11.509  20.170  0.00  0.00    +0.000 A 
ATOM      4  C   UNL     1       0.749  11.698  18.857  0.00  0.00    +0.000 A 
ATOM      5  C   UNL     1       1.418  10.673  18.189  0.00  0.00    +0.000 A 
ATOM      6  C   UNL     1       1.580   9.478  18.865  0.00  0.00    +0.000 A 
ATOM      7  C   UNL     1       1.095   9.276  20.141  0.00  0.00    +0.000 A 
ATOM      8  C   UNL     1       1.432   7.899  20.516  0.00  0.00    +0.000 C 
ATOM      9  O   UNL     1       1.136   7.431  21.603  0.00  0.00    +0.000 OA
ATOM     10  N   UNL     1       2.134   7.347  19.462  0.00  0.00    +0.000 N 
ATOM     11  C   UNL     1       2.254   8.258  18.434  0.00  0.00    +0.000 C 
ATOM     12  O   UNL     1       2.768   8.172  17.333  0.00  0.00    +0.000 OA
ENDROOT
BRANCH  10  13
ATOM     13  C   UNL     1       2.677   6.032  19.444  0.00  0.00    +0.000 A 
ATOM     14  C   UNL     1       4.054   5.812  19.275  0.00  0.00    +0.000 A 
ATOM     15  C   UNL     1       4.586   4.514  19.255  0.00  0.00    +0.000 A 
ATOM     16  C   UNL     1       3.744   3.407  19.386  0.00  0.00    +0.000 A 
ATOM     17  C   UNL     1       2.373   3.607  19.540  0.00  0.00    +0.000 A 
ATOM     18  C   UNL     1       1.852   4.907  19.581  0.00  0.00    +0.000 A 
BRANCH  16  19
ATOM     19  C   UNL     1       4.311   2.031  19.341  0.00  0.00    +0.000 C 
ATOM     20  N   UNL     1       4.043   1.187  18.395  0.00  0.00    +0.000 NA
ATOM     21  N   UNL     1       5.164   1.601  20.312  0.00  0.00    +0.000 N 
ATOM     22  H   UNL     1       3.362   1.568  17.733  0.00  0.00    +0.000 HD
ATOM     23  H   UNL     1       5.813   2.290  20.672  0.00  0.00    +0.000 HD
ATOM     24  H   UNL     1       5.625   0.742  20.027  0.00  0.00    +0.000 HD
ENDBRANCH  16  19
ENDBRANCH  10  13
TORSDOF 2
ENDMDL
MODEL 9
REMARK VINA RESULT:      -7.1      3.528      5.999
REMARK  Name = 
REMARK  3 active torsions:
REMARK  status: ('A' for Active; 'I' for Inactive)
REMARK    1  A    between atoms: C_1  and  C_2
REMARK    2  A    between atoms: N_10  and  C_11
REMARK    3  A    between atoms: C_14  and  C_15
REMARK                            x       y       z     vdW  Elec       q    Type
REMARK                         _______ _______ _______ _____ _____    ______ ____
ROOT
ATOM      1  C   UNL     1      -0.050   9.519  22.934  0.00  0.00    +0.000 C 
ATOM      2  C   UNL     1       0.108  10.175  21.597  0.00  0.00    +0.000 A 
ATOM      3  C   UNL     1      -0.366  11.478  21.367  0.00  0.00    +0.000 A 
ATOM      4  C   UNL     1      -0.203  12.106  20.116  0.00  0.00    +0.000 A 
ATOM      5  C   UNL     1       0.451  11.453  19.072  0.00  0.00    +0.000 A 
ATOM      6  C   UNL     1       0.915  10.174  19.319  0.00  0.00    +0.000 A 
ATOM      7  C   UNL     1       0.737   9.541  20.533  0.00  0.00    +0.000 A 
ATOM      8  C   UNL     1       1.334   8.207  20.415  0.00  0.00    +0.000 C 
ATOM      9  O   UNL     1       1.337   7.412  21.340  0.00  0.00    +0.000 OA
ATOM     10  N   UNL     1       1.874   8.112  19.147  0.00  0.00    +0.000 N 
ATOM     11  C   UNL     1       1.652   9.273  18.439  0.00  0.00    +0.000 C 
ATOM     12  O   UNL     1       1.934   9.593  17.298  0.00  0.00    +0.000 OA
ENDROOT
BRANCH  10  13
ATOM     13  C   UNL     1       2.582   6.983  18.645  0.00  0.00    +0.000 A 
ATOM     14  C   UNL     1       3.887   7.103  18.142  0.00  0.00    +0.000 A 
ATOM     15  C   UNL     1       4.581   5.989  17.646  0.00  0.00    +0.000 A 
ATOM     16  C   UNL     1       3.971   4.733  17.627  0.00  0.00    +0.000 A 
ATOM     17  C   UNL     1       2.670   4.598  18.110  0.00  0.00    +0.000 A 
ATOM     18  C   UNL     1       1.992   5.711  18.624  0.00  0.00    +0.000 A 
BRANCH  16  19
ATOM     19  C   UNL     1       4.704   3.558  17.078  0.00  0.00    +0.000 C 
ATOM     20  N   UNL     1       5.700   3.668  16.257  0.00  0.00    +0.000 NA
ATOM     21  N   UNL     1       4.351   2.292  17.436  0.00  0.00    +0.000 N 
ATOM     22  H   UNL     1       5.872   4.644  16.004  0.00  0.00    +0.000 HD
ATOM     23  H   UNL     1       4.054   2.166  18.396  0.00  0.00    +0.000 HD
ATOM     24  H   UNL     1       5.068   1.629  17.159  0.00  0.00    +0.000 HD
ENDBRANCH  16  19
ENDBRANCH  10  13
TORSDOF 2
ENDMDL
