MODEL 1
REMARK VINA RESULT:      -7.5      0.000      0.000
REMARK  Name = 
REMARK  4 active torsions:
REMARK  status: ('A' for Active; 'I' for Inactive)
REMARK    1  A    between atoms: C_5  and  C_6
REMARK    2  A    between atoms: C_6  and  C_7
REMARK    3  A    between atoms: C_6  and  N_17
REMARK    4  A    between atoms: N_11  and  C_12
REMARK                            x       y       z     vdW  Elec       q    Type
REMARK                         _______ _______ _______ _____ _____    ______ ____
ROOT
ATOM      1  C   UNL     1       3.569   5.446  18.224  0.00  0.00    +0.000 C 
ENDROOT
BRANCH   1   6
ATOM      2 CL   UNL     1       0.673  10.650  19.486  0.00  0.00    +0.000 Cl
ATOM      3  C   UNL     1       1.553   9.218  19.141  0.00  0.00    +0.000 A 
ATOM      4  C   UNL     1       1.688   8.230  20.115  0.00  0.00    +0.000 A 
ATOM      5  C   UNL     1       2.367   7.043  19.825  0.00  0.00    +0.000 A 
ATOM      6  C   UNL     1       2.921   6.812  18.551  0.00  0.00    +0.000 A 
ATOM      7  C   UNL     1       2.802   7.846  17.597  0.00  0.00    +0.000 A 
ATOM      8  C   UNL     1       2.121   9.034  17.886  0.00  0.00    +0.000 A 
ENDBRANCH   1   6
BRANCH   1   9
ATOM      9  N   UNL     1       2.939   4.244  18.869  0.00  0.00    +0.000 NA
ATOM     10  C   UNL     1       3.400   2.980  18.255  0.00  0.00    +0.000 C 
ATOM     11  C   UNL     1       2.905   1.684  18.922  0.00  0.00    +0.000 C 
ATOM     12  S   UNL     1       1.097   1.558  18.931  0.00  0.00    +0.000 S 
ATOM     13  C   UNL     1       0.791   3.161  19.720  0.00  0.00    +0.000 C 
ATOM     14  C   UNL     1       1.463   4.311  18.952  0.00  0.00    +0.000 C 
ENDBRANCH   1   9
BRANCH   1  15
ATOM     15  C   UNL     1       5.077   5.487  18.404  0.00  0.00    +0.000 A 
ATOM     16  N   UNL     1       5.709   5.464  19.565  0.00  0.00    +0.000 NA
ATOM     17  N   UNL     1       7.044   5.529  19.305  0.00  0.00    +0.000 NA
ATOM     18  N   UNL     1       7.259   5.582  18.006  0.00  0.00    +0.000 NA
ATOM     19  N   UNL     1       6.041   5.584  17.422  0.00  0.00    +0.000 N 
BRANCH  19  20
ATOM     20  C   UNL     1       5.968   5.593  15.975  0.00  0.00    +0.000 C 
ATOM     21  C   UNL     1       7.339   5.477  15.277  0.00  0.00    +0.000 C 
ATOM     22  C   UNL     1       7.108   4.734  13.970  0.00  0.00    +0.000 C 
ATOM     23  C   UNL     1       5.753   4.053  14.076  0.00  0.00    +0.000 C 
ATOM     24  C   UNL     1       5.175   4.397  15.443  0.00  0.00    +0.000 C 
ENDBRANCH  19  20
ENDBRANCH   1  15
TORSDOF 4
ENDMDL
MODEL 2
REMARK VINA RESULT:      -7.5      1.137      1.213
REMARK  Name = 
REMARK  4 active torsions:
REMARK  status: ('A' for Active; 'I' for Inactive)
REMARK    1  A    between atoms: C_5  and  C_6
REMARK    2  A    between atoms: C_6  and  C_7
REMARK    3  A    between atoms: C_6  and  N_17
REMARK    4  A    between atoms: N_11  and  C_12
REMARK                            x       y       z     vdW  Elec       q    Type
REMARK                         _______ _______ _______ _____ _____    ______ ____
ROOT
ATOM      1  C   UNL     1       3.831   5.685  17.685  0.00  0.00    +0.000 C 
ENDROOT
BRANCH   1   6
ATOM      2 CL   UNL     1       0.551  10.371  19.770  0.00  0.00    +0.000 Cl
ATOM      3  C   UNL     1       1.536   9.087  19.199  0.00  0.00    +0.000 A 
ATOM      4  C   UNL     1       1.755   7.967  19.999  0.00  0.00    +0.000 A 
ATOM      5  C   UNL     1       2.523   6.900  19.521  0.00  0.00    +0.000 A 
ATOM      6  C   UNL     1       3.082   6.924  18.230  0.00  0.00    +0.000 A 
ATOM      7  C   UNL     1       2.875   8.088  17.457  0.00  0.00    +0.000 A 
ATOM      8  C   UNL     1       2.106   9.156  17.933  0.00  0.00    +0.000 A 
ENDBRANCH   1   6
BRANCH   1   9
ATOM      9  N   UNL     1       3.472   4.367  18.313  0.00  0.00    +0.000 NA
ATOM     10  C   UNL     1       4.637   3.727  18.960  0.00  0.00    +0.000 C 
ATOM     11  C   UNL     1       4.350   2.428  19.734  0.00  0.00    +0.000 C 
ATOM     12  S   UNL     1       3.642   1.135  18.680  0.00  0.00    +0.000 S 
ATOM     13  C   UNL     1       2.271   2.133  18.038  0.00  0.00    +0.000 C 
ATOM     14  C   UNL     1       2.769   3.439  17.399  0.00  0.00    +0.000 C 
ENDBRANCH   1   9
BRANCH   1  15
ATOM     15  C   UNL     1       5.332   5.921  17.631  0.00  0.00    +0.000 A 
ATOM     16  N   UNL     1       6.091   6.250  18.663  0.00  0.00    +0.000 NA
ATOM     17  N   UNL     1       7.367   6.381  18.204  0.00  0.00    +0.000 NA
ATOM     18  N   UNL     1       7.421   6.131  16.912  0.00  0.00    +0.000 NA
ATOM     19  N   UNL     1       6.154   5.865  16.526  0.00  0.00    +0.000 N 
BRANCH  19  20
ATOM     20  C   UNL     1       5.914   5.507  15.143  0.00  0.00    +0.000 C 
ATOM     21  C   UNL     1       7.188   5.474  14.273  0.00  0.00    +0.000 C 
ATOM     22  C   UNL     1       6.971   4.405  13.212  0.00  0.00    +0.000 C 
ATOM     23  C   UNL     1       5.815   3.537  13.683  0.00  0.00    +0.000 C 
ATOM     24  C   UNL     1       5.339   4.095  15.018  0.00  0.00    +0.000 C 
ENDBRANCH  19  20
ENDBRANCH   1  15
TORSDOF 4
ENDMDL
MODEL 3
REMARK VINA RESULT:      -7.5      1.481      1.877
REMARK  Name = 
REMARK  4 active torsions:
REMARK  status: ('A' for Active; 'I' for Inactive)
REMARK    1  A    between atoms: C_5  and  C_6
REMARK    2  A    between atoms: C_6  and  C_7
REMARK    3  A    between atoms: C_6  and  N_17
REMARK    4  A    between atoms: N_11  and  C_12
REMARK                            x       y       z     vdW  Elec       q    Type
REMARK                         _______ _______ _______ _____ _____    ______ ____
ROOT
ATOM      1  C   UNL     1       4.069   5.747  17.187  0.00  0.00    +0.000 C 
ENDROOT
BRANCH   1   6
ATOM      2 CL   UNL     1       0.570   9.714  20.201  0.00  0.00    +0.000 Cl
ATOM      3  C   UNL     1       1.614   8.639  19.365  0.00  0.00    +0.000 A 
ATOM      4  C   UNL     1       2.066   7.478  19.991  0.00  0.00    +0.000 A 
ATOM      5  C   UNL     1       2.882   6.578  19.299  0.00  0.00    +0.000 A 
ATOM      6  C   UNL     1       3.259   6.813  17.963  0.00  0.00    +0.000 A 
ATOM      7  C   UNL     1       2.818   8.015  17.368  0.00  0.00    +0.000 A 
ATOM      8  C   UNL     1       2.000   8.916  18.059  0.00  0.00    +0.000 A 
ENDBRANCH   1   6
BRANCH   1   9
ATOM      9  N   UNL     1       3.977   4.339  17.707  0.00  0.00    +0.000 NA
ATOM     10  C   UNL     1       2.652   3.739  17.447  0.00  0.00    +0.000 C 
ATOM     11  C   UNL     1       2.493   2.257  17.835  0.00  0.00    +0.000 C 
ATOM     12  S   UNL     1       2.791   1.968  19.599  0.00  0.00    +0.000 S 
ATOM     13  C   UNL     1       4.424   2.753  19.655  0.00  0.00    +0.000 C 
ATOM     14  C   UNL     1       4.381   4.195  19.123  0.00  0.00    +0.000 C 
ENDBRANCH   1   9
BRANCH   1  15
ATOM     15  C   UNL     1       5.502   6.196  16.956  0.00  0.00    +0.000 A 
ATOM     16  N   UNL     1       6.099   7.198  17.579  0.00  0.00    +0.000 NA
ATOM     17  N   UNL     1       7.366   7.288  17.086  0.00  0.00    +0.000 NA
ATOM     18  N   UNL     1       7.574   6.358  16.177  0.00  0.00    +0.000 NA
ATOM     19  N   UNL     1       6.413   5.678  16.059  0.00  0.00    +0.000 N 
BRANCH  19  20
ATOM     20  C   UNL     1       6.360   4.553  15.148  0.00  0.00    +0.000 C 
ATOM     21  C   UNL     1       5.016   4.411  14.404  0.00  0.00    +0.000 C 
ATOM     22  C   UNL     1       5.326   3.809  13.041  0.00  0.00    +0.000 C 
ATOM     23  C   UNL     1       6.818   3.986  12.804  0.00  0.00    +0.000 C 
ATOM     24  C   UNL     1       7.395   4.685  14.028  0.00  0.00    +0.000 C 
ENDBRANCH  19  20
ENDBRANCH   1  15
TORSDOF 4
ENDMDL
MODEL 4
REMARK VINA RESULT:      -7.4      1.458      1.772
REMARK  Name = 
REMARK  4 active torsions:
REMARK  status: ('A' for Active; 'I' for Inactive)
REMARK    1  A    between atoms: C_5  and  C_6
REMARK    2  A    between atoms: C_6  and  C_7
REMARK    3  A    between atoms: C_6  and  N_17
REMARK    4  A    between atoms: N_11  and  C_12
REMARK                            x       y       z     vdW  Elec       q    Type
REMARK                         _______ _______ _______ _____ _____    ______ ____
ROOT
ATOM      1  C   UNL     1       4.249   4.523  17.377  0.00  0.00    +0.000 C 
ENDROOT
BRANCH   1   6
ATOM      2 CL   UNL     1       1.888  10.107  17.936  0.00  0.00    +0.000 Cl
ATOM      3  C   UNL     1       2.592   8.544  17.840  0.00  0.00    +0.000 A 
ATOM      4  C   UNL     1       1.868   7.427  18.254  0.00  0.00    +0.000 A 
ATOM      5  C   UNL     1       2.422   6.148  18.137  0.00  0.00    +0.000 A 
ATOM      6  C   UNL     1       3.707   5.955  17.597  0.00  0.00    +0.000 A 
ATOM      7  C   UNL     1       4.431   7.108  17.222  0.00  0.00    +0.000 A 
ATOM      8  C   UNL     1       3.878   8.389  17.337  0.00  0.00    +0.000 A 
ENDBRANCH   1   6
BRANCH   1   9
ATOM      9  N   UNL     1       3.710   3.463  18.297  0.00  0.00    +0.000 NA
ATOM     10  C   UNL     1       2.361   3.013  17.892  0.00  0.00    +0.000 C 
ATOM     11  C   UNL     1       1.768   1.845  18.700  0.00  0.00    +0.000 C 
ATOM     12  S   UNL     1       1.614   2.231  20.464  0.00  0.00    +0.000 S 
ATOM     13  C   UNL     1       3.341   2.723  20.710  0.00  0.00    +0.000 C 
ATOM     14  C   UNL     1       3.764   3.829  19.730  0.00  0.00    +0.000 C 
ENDBRANCH   1   9
BRANCH   1  15
ATOM     15  C   UNL     1       5.767   4.509  17.289  0.00  0.00    +0.000 A 
ATOM     16  N   UNL     1       6.590   4.353  18.312  0.00  0.00    +0.000 NA
ATOM     17  N   UNL     1       7.860   4.411  17.825  0.00  0.00    +0.000 NA
ATOM     18  N   UNL     1       7.847   4.589  16.520  0.00  0.00    +0.000 NA
ATOM     19  N   UNL     1       6.547   4.679  16.165  0.00  0.00    +0.000 N 
BRANCH  19  20
ATOM     20  C   UNL     1       6.223   4.835  14.761  0.00  0.00    +0.000 C 
ATOM     21  C   UNL     1       7.448   5.091  13.859  0.00  0.00    +0.000 C 
ATOM     22  C   UNL     1       7.139   4.468  12.506  0.00  0.00    +0.000 C 
ATOM     23  C   UNL     1       5.977   3.508  12.711  0.00  0.00    +0.000 C 
ATOM     24  C   UNL     1       5.592   3.567  14.184  0.00  0.00    +0.000 C 
ENDBRANCH  19  20
ENDBRANCH   1  15
TORSDOF 4
ENDMDL
MODEL 5
REMARK VINA RESULT:      -7.4      1.453      1.865
REMARK  Name = 
REMARK  4 active torsions:
REMARK  status: ('A' for Active; 'I' for Inactive)
REMARK    1  A    between atoms: C_5  and  C_6
REMARK    2  A    between atoms: C_6  and  C_7
REMARK    3  A    between atoms: C_6  and  N_17
REMARK    4  A    between atoms: N_11  and  C_12
REMARK                            x       y       z     vdW  Elec       q    Type
REMARK                         _______ _______ _______ _____ _____    ______ ____
ROOT
ATOM      1  C   UNL     1       4.165   4.465  17.479  0.00  0.00    +0.000 C 
ENDROOT
BRANCH   1   6
ATOM      2 CL   UNL     1       2.049  10.150  17.997  0.00  0.00    +0.000 Cl
ATOM      3  C   UNL     1       2.611   8.543  17.786  0.00  0.00    +0.000 A 
ATOM      4  C   UNL     1       3.919   8.312  17.361  0.00  0.00    +0.000 A 
ATOM      5  C   UNL     1       4.395   7.004  17.229  0.00  0.00    +0.000 A 
ATOM      6  C   UNL     1       3.578   5.897  17.527  0.00  0.00    +0.000 A 
ATOM      7  C   UNL     1       2.247   6.160  17.918  0.00  0.00    +0.000 A 
ATOM      8  C   UNL     1       1.770   7.469  18.052  0.00  0.00    +0.000 A 
ENDBRANCH   1   6
BRANCH   1   9
ATOM      9  N   UNL     1       3.629   3.497  18.496  0.00  0.00    +0.000 NA
ATOM     10  C   UNL     1       2.353   2.889  18.062  0.00  0.00    +0.000 C 
ATOM     11  C   UNL     1       1.779   1.794  18.979  0.00  0.00    +0.000 C 
ATOM     12  S   UNL     1       1.453   2.398  20.657  0.00  0.00    +0.000 S 
ATOM     13  C   UNL     1       3.115   3.057  20.956  0.00  0.00    +0.000 C 
ATOM     14  C   UNL     1       3.537   4.053  19.864  0.00  0.00    +0.000 C 
ENDBRANCH   1   9
BRANCH   1  15
ATOM     15  C   UNL     1       5.684   4.488  17.433  0.00  0.00    +0.000 A 
ATOM     16  N   UNL     1       6.483   4.335  18.475  0.00  0.00    +0.000 NA
ATOM     17  N   UNL     1       7.765   4.429  18.024  0.00  0.00    +0.000 NA
ATOM     18  N   UNL     1       7.782   4.627  16.721  0.00  0.00    +0.000 NA
ATOM     19  N   UNL     1       6.490   4.694  16.333  0.00  0.00    +0.000 N 
BRANCH  19  20
ATOM     20  C   UNL     1       6.200   4.864  14.923  0.00  0.00    +0.000 C 
ATOM     21  C   UNL     1       7.442   5.173  14.060  0.00  0.00    +0.000 C 
ATOM     22  C   UNL     1       7.189   4.564  12.689  0.00  0.00    +0.000 C 
ATOM     23  C   UNL     1       6.052   3.566  12.846  0.00  0.00    +0.000 C 
ATOM     24  C   UNL     1       5.625   3.588  14.307  0.00  0.00    +0.000 C 
ENDBRANCH  19  20
ENDBRANCH   1  15
TORSDOF 4
ENDMDL
MODEL 6
REMARK VINA RESULT:      -7.4      1.458      2.065
REMARK  Name = 
REMARK  4 active torsions:
REMARK  status: ('A' for Active; 'I' for Inactive)
REMARK    1  A    between atoms: C_5  and  C_6
REMARK    2  A    between atoms: C_6  and  C_7
REMARK    3  A    between atoms: C_6  and  N_17
REMARK    4  A    between atoms: N_11  and  C_12
REMARK                            x       y       z     vdW  Elec       q    Type
REMARK                         _______ _______ _______ _____ _____    ______ ____
ROOT
ATOM      1  C   UNL     1       3.928   5.765  17.228  0.00  0.00    +0.000 C 
ENDROOT
BRANCH   1   6
ATOM      2 CL   UNL     1       0.835   9.993  20.330  0.00  0.00    +0.000 Cl
ATOM      3  C   UNL     1       1.644   8.764  19.448  0.00  0.00    +0.000 A 
ATOM      4  C   UNL     1       1.940   8.953  18.099  0.00  0.00    +0.000 A 
ATOM      5  C   UNL     1       2.637   7.971  17.387  0.00  0.00    +0.000 A 
ATOM      6  C   UNL     1       3.062   6.783  18.009  0.00  0.00    +0.000 A 
ATOM      7  C   UNL     1       2.716   6.602  19.366  0.00  0.00    +0.000 A 
ATOM      8  C   UNL     1       2.019   7.584  20.080  0.00  0.00    +0.000 A 
ENDBRANCH   1   6
BRANCH   1   9
ATOM      9  N   UNL     1       3.877   4.344  17.713  0.00  0.00    +0.000 NA
ATOM     10  C   UNL     1       2.549   3.732  17.496  0.00  0.00    +0.000 C 
ATOM     11  C   UNL     1       2.426   2.239  17.851  0.00  0.00    +0.000 C 
ATOM     12  S   UNL     1       2.805   1.908  19.592  0.00  0.00    +0.000 S 
ATOM     13  C   UNL     1       4.428   2.714  19.597  0.00  0.00    +0.000 C 
ATOM     14  C   UNL     1       4.344   4.168  19.106  0.00  0.00    +0.000 C 
ENDBRANCH   1   9
BRANCH   1  15
ATOM     15  C   UNL     1       5.349   6.272  17.040  0.00  0.00    +0.000 A 
ATOM     16  N   UNL     1       5.882   7.304  17.671  0.00  0.00    +0.000 NA
ATOM     17  N   UNL     1       7.159   7.442  17.220  0.00  0.00    +0.000 NA
ATOM     18  N   UNL     1       7.438   6.512  16.329  0.00  0.00    +0.000 NA
ATOM     19  N   UNL     1       6.310   5.783  16.181  0.00  0.00    +0.000 N 
BRANCH  19  20
ATOM     20  C   UNL     1       6.336   4.647  15.282  0.00  0.00    +0.000 C 
ATOM     21  C   UNL     1       5.020   4.432  14.505  0.00  0.00    +0.000 C 
ATOM     22  C   UNL     1       5.394   3.832  13.158  0.00  0.00    +0.000 C 
ATOM     23  C   UNL     1       6.882   4.078  12.958  0.00  0.00    +0.000 C 
ATOM     24  C   UNL     1       7.392   4.816  14.188  0.00  0.00    +0.000 C 
ENDBRANCH  19  20
ENDBRANCH   1  15
TORSDOF 4
ENDMDL
MODEL 7
REMARK VINA RESULT:      -7.4      1.003      1.506
REMARK  Name = 
REMARK  4 active torsions:
REMARK  status: ('A' for Active; 'I' for Inactive)
REMARK    1  A    between atoms: C_5  and  C_6
REMARK    2  A    between atoms: C_6  and  C_7
REMARK    3  A    between atoms: C_6  and  N_17
REMARK    4  A    between atoms: N_11  and  C_12
REMARK                            x       y       z     vdW  Elec       q    Type
REMARK                         _______ _______ _______ _____ _____    ______ ____
ROOT
ATOM      1  C   UNL     1       3.816   5.075  18.342  0.00  0.00    +0.000 C 
ENDROOT
BRANCH   1   6
ATOM      2 CL   UNL     1       0.884  10.361  19.069  0.00  0.00    +0.000 Cl
ATOM      3  C   UNL     1       1.774   8.906  18.878  0.00  0.00    +0.000 A 
ATOM      4  C   UNL     1       1.815   7.973  19.913  0.00  0.00    +0.000 A 
ATOM      5  C   UNL     1       2.503   6.767  19.746  0.00  0.00    +0.000 A 
ATOM      6  C   UNL     1       3.158   6.462  18.539  0.00  0.00    +0.000 A 
ATOM      7  C   UNL     1       3.132   7.442  17.522  0.00  0.00    +0.000 A 
ATOM      8  C   UNL     1       2.442   8.649  17.688  0.00  0.00    +0.000 A 
ENDBRANCH   1   6
BRANCH   1   9
ATOM      9  N   UNL     1       3.130   3.917  19.011  0.00  0.00    +0.000 NA
ATOM     10  C   UNL     1       1.657   4.028  18.935  0.00  0.00    +0.000 C 
ATOM     11  C   UNL     1       0.860   2.832  19.487  0.00  0.00    +0.000 C 
ATOM     12  S   UNL     1       1.208   2.518  21.238  0.00  0.00    +0.000 S 
ATOM     13  C   UNL     1       3.009   2.409  21.065  0.00  0.00    +0.000 C 
ATOM     14  C   UNL     1       3.594   3.662  20.393  0.00  0.00    +0.000 C 
ENDBRANCH   1   9
BRANCH   1  15
ATOM     15  C   UNL     1       5.308   5.121  18.630  0.00  0.00    +0.000 A 
ATOM     16  N   UNL     1       5.858   5.566  19.747  0.00  0.00    +0.000 NA
ATOM     17  N   UNL     1       7.208   5.452  19.611  0.00  0.00    +0.000 NA
ATOM     18  N   UNL     1       7.511   4.936  18.437  0.00  0.00    +0.000 NA
ATOM     19  N   UNL     1       6.339   4.744  17.795  0.00  0.00    +0.000 N 
BRANCH  19  20
ATOM     20  C   UNL     1       6.363   4.137  16.479  0.00  0.00    +0.000 C 
ATOM     21  C   UNL     1       5.022   4.233  15.720  0.00  0.00    +0.000 C 
ATOM     22  C   UNL     1       5.358   4.323  14.239  0.00  0.00    +0.000 C 
ATOM     23  C   UNL     1       6.827   4.705  14.137  0.00  0.00    +0.000 C 
ATOM     24  C   UNL     1       7.365   4.833  15.556  0.00  0.00    +0.000 C 
ENDBRANCH  19  20
ENDBRANCH   1  15
TORSDOF 4
ENDMDL
MODEL 8
REMARK VINA RESULT:      -7.3      0.726      1.166
REMARK  Name = 
REMARK  4 active torsions:
REMARK  status: ('A' for Active; 'I' for Inactive)
REMARK    1  A    between atoms: C_5  and  C_6
REMARK    2  A    between atoms: C_6  and  C_7
REMARK    3  A    between atoms: C_6  and  N_17
REMARK    4  A    between atoms: N_11  and  C_12
REMARK                            x       y       z     vdW  Elec       q    Type
REMARK                         _______ _______ _______ _____ _____    ______ ____
ROOT
ATOM      1  C   UNL     1       3.032   5.829  18.077  0.00  0.00    +0.000 C 
ENDROOT
BRANCH   1   6
ATOM      2 CL   UNL     1       0.702  11.223  19.674  0.00  0.00    +0.000 Cl
ATOM      3  C   UNL     1       1.426   9.731  19.233  0.00  0.00    +0.000 A 
ATOM      4  C   UNL     1       1.511   8.695  20.162  0.00  0.00    +0.000 A 
ATOM      5  C   UNL     1       2.062   7.463  19.794  0.00  0.00    +0.000 A 
ATOM      6  C   UNL     1       2.531   7.235  18.487  0.00  0.00    +0.000 A 
ATOM      7  C   UNL     1       2.467   8.314  17.578  0.00  0.00    +0.000 A 
ATOM      8  C   UNL     1       1.915   9.547  17.945  0.00  0.00    +0.000 A 
ENDBRANCH   1   6
BRANCH   1   9
ATOM      9  N   UNL     1       2.167   4.673  18.493  0.00  0.00    +0.000 NA
ATOM     10  C   UNL     1       1.928   4.656  19.952  0.00  0.00    +0.000 C 
ATOM     11  C   UNL     1       0.956   3.579  20.465  0.00  0.00    +0.000 C 
ATOM     12  S   UNL     1       1.513   1.900  20.072  0.00  0.00    +0.000 S 
ATOM     13  C   UNL     1       1.713   2.170  18.291  0.00  0.00    +0.000 C 
ATOM     14  C   UNL     1       2.639   3.361  17.996  0.00  0.00    +0.000 C 
ENDBRANCH   1   9
BRANCH   1  15
ATOM     15  C   UNL     1       4.494   5.631  18.442  0.00  0.00    +0.000 A 
ATOM     16  N   UNL     1       4.968   5.527  19.672  0.00  0.00    +0.000 NA
ATOM     17  N   UNL     1       6.317   5.371  19.577  0.00  0.00    +0.000 NA
ATOM     18  N   UNL     1       6.694   5.365  18.314  0.00  0.00    +0.000 NA
ATOM     19  N   UNL     1       5.572   5.551  17.585  0.00  0.00    +0.000 N 
BRANCH  19  20
ATOM     20  C   UNL     1       5.678   5.545  16.140  0.00  0.00    +0.000 C 
ATOM     21  C   UNL     1       7.128   5.617  15.617  0.00  0.00    +0.000 C 
ATOM     22  C   UNL     1       7.164   4.844  14.307  0.00  0.00    +0.000 C 
ATOM     23  C   UNL     1       5.911   3.983  14.262  0.00  0.00    +0.000 C 
ATOM     24  C   UNL     1       5.128   4.249  15.541  0.00  0.00    +0.000 C 
ENDBRANCH  19  20
ENDBRANCH   1  15
TORSDOF 4
ENDMDL
MODEL 9
REMARK VINA RESULT:      -7.3      1.043      1.336
REMARK  Name = 
REMARK  4 active torsions:
REMARK  status: ('A' for Active; 'I' for Inactive)
REMARK    1  A    between atoms: C_5  and  C_6
REMARK    2  A    between atoms: C_6  and  C_7
REMARK    3  A    between atoms: C_6  and  N_17
REMARK    4  A    between atoms: N_11  and  C_12
REMARK                            x       y       z     vdW  Elec       q    Type
REMARK                         _______ _______ _______ _____ _____    ______ ____
ROOT
ATOM      1  C   UNL     1       3.841   5.655  17.442  0.00  0.00    +0.000 C 
ENDROOT
BRANCH   1   6
ATOM      2 CL   UNL     1       0.603  10.078  20.092  0.00  0.00    +0.000 Cl
ATOM      3  C   UNL     1       1.577   8.871  19.357  0.00  0.00    +0.000 A 
ATOM      4  C   UNL     1       1.930   7.728  20.073  0.00  0.00    +0.000 A 
ATOM      5  C   UNL     1       2.687   6.722  19.464  0.00  0.00    +0.000 A 
ATOM      6  C   UNL     1       3.101   6.831  18.123  0.00  0.00    +0.000 A 
ATOM      7  C   UNL     1       2.761   8.016  17.435  0.00  0.00    +0.000 A 
ATOM      8  C   UNL     1       2.002   9.023  18.043  0.00  0.00    +0.000 A 
ENDBRANCH   1   6
BRANCH   1   9
ATOM      9  N   UNL     1       3.477   4.278  17.922  0.00  0.00    +0.000 NA
ATOM     10  C   UNL     1       2.015   4.054  17.904  0.00  0.00    +0.000 C 
ATOM     11  C   UNL     1       1.545   2.634  18.266  0.00  0.00    +0.000 C 
ATOM     12  S   UNL     1       2.066   2.135  19.928  0.00  0.00    +0.000 S 
ATOM     13  C   UNL     1       3.830   2.476  19.693  0.00  0.00    +0.000 C 
ATOM     14  C   UNL     1       4.074   3.921  19.228  0.00  0.00    +0.000 C 
ENDBRANCH   1   9
BRANCH   1  15
ATOM     15  C   UNL     1       5.343   5.888  17.407  0.00  0.00    +0.000 A 
ATOM     16  N   UNL     1       6.091   6.209  18.449  0.00  0.00    +0.000 NA
ATOM     17  N   UNL     1       7.372   6.340  18.006  0.00  0.00    +0.000 NA
ATOM     18  N   UNL     1       7.440   6.097  16.712  0.00  0.00    +0.000 NA
ATOM     19  N   UNL     1       6.177   5.836  16.310  0.00  0.00    +0.000 N 
BRANCH  19  20
ATOM     20  C   UNL     1       5.952   5.487  14.922  0.00  0.00    +0.000 C 
ATOM     21  C   UNL     1       7.245   5.352  14.091  0.00  0.00    +0.000 C 
ATOM     22  C   UNL     1       6.981   4.294  13.031  0.00  0.00    +0.000 C 
ATOM     23  C   UNL     1       5.749   3.518  13.471  0.00  0.00    +0.000 C 
ATOM     24  C   UNL     1       5.277   4.120  14.788  0.00  0.00    +0.000 C 
ENDBRANCH  19  20
ENDBRANCH   1  15
TORSDOF 4
ENDMDL
