MODEL 1
REMARK VINA RESULT:      -9.1      0.000      0.000
REMARK  Name = 
REMARK  5 active torsions:
REMARK  status: ('A' for Active; 'I' for Inactive)
REMARK    1  A    between atoms: C_2  and  C_3
REMARK    2  A    between atoms: C_2  and  C_12
REMARK    3  A    between atoms: C_4  and  C_5
REMARK    4  A    between atoms: C_15  and  N_16
REMARK    5  A    between atoms: N_16  and  C_17
REMARK                            x       y       z     vdW  Elec       q    Type
REMARK                         _______ _______ _______ _____ _____    ______ ____
ROOT
ATOM      1  C   UNL     1       0.731  10.075  19.114  0.00  0.00    +0.000 A 
ATOM      2  C   UNL     1       0.717   9.516  20.395  0.00  0.00    +0.000 A 
ATOM      3  C   UNL     1       1.453   8.354  20.649  0.00  0.00    +0.000 A 
ATOM      4  C   UNL     1       2.188   7.716  19.645  0.00  0.00    +0.000 A 
ATOM      5  C   UNL     1       2.178   8.282  18.357  0.00  0.00    +0.000 A 
ATOM      6  C   UNL     1       1.446   9.446  18.095  0.00  0.00    +0.000 A 
ENDROOT
BRANCH   1   8
ATOM      7  O   UNL     1       0.648  12.350  18.455  0.00  0.00    +0.000 OA
ATOM      8  C   UNL     1       0.039  11.370  18.838  0.00  0.00    +0.000 C 
BRANCH   8   9
ATOM      9  C   UNL     1      -1.429  11.385  19.084  0.00  0.00    +0.000 C 
ATOM     10  C   UNL     1      -2.326  11.525  18.108  0.00  0.00    +0.000 C 
BRANCH  10  11
ATOM     11  C   UNL     1      -3.762  11.599  18.404  0.00  0.00    +0.000 A 
ATOM     12  C   UNL     1      -4.710  11.137  17.501  0.00  0.00    +0.000 A 
ATOM     13  C   UNL     1      -6.059  11.291  17.807  0.00  0.00    +0.000 A 
ATOM     14  C   UNL     1      -6.416  11.886  19.013  0.00  0.00    +0.000 A 
ATOM     15  C   UNL     1      -5.404  12.289  19.870  0.00  0.00    +0.000 A 
ATOM     16 BR   UNL     1      -5.866  13.083  21.528  0.00  0.00    +0.000 Br
ATOM     17  N   UNL     1      -4.094  12.156  19.590  0.00  0.00    +0.000 NA
ENDBRANCH  10  11
ENDBRANCH   8   9
ENDBRANCH   1   8
BRANCH   4  18
ATOM     18  N   UNL     1       2.990   6.571  19.931  0.00  0.00    +0.000 N 
ATOM     19  H   UNL     1       2.888   6.324  20.921  0.00  0.00    +0.000 HD
BRANCH  18  20
ATOM     20  C   UNL     1       2.973   5.428  19.111  0.00  0.00    +0.000 A 
ATOM     21  C   UNL     1       2.122   4.399  19.294  0.00  0.00    +0.000 A 
ATOM     22  C   UNL     1       2.157   3.288  18.316  0.00  0.00    +0.000 A 
ATOM     23  N   UNL     1       2.942   3.180  17.292  0.00  0.00    +0.000 NA
ATOM     24  C   UNL     1       3.816   4.216  17.121  0.00  0.00    +0.000 A 
ATOM     25  N   UNL     1       4.712   4.379  16.175  0.00  0.00    +0.000 NA
ATOM     26  C   UNL     1       5.298   5.565  16.488  0.00  0.00    +0.000 A 
ATOM     27  N   UNL     1       4.833   6.178  17.581  0.00  0.00    +0.000 NA
ATOM     28  N   UNL     1       3.853   5.327  17.995  0.00  0.00    +0.000 N 
ATOM     29  C   UNL     1       1.127   2.257  18.634  0.00  0.00    +0.000 C 
ATOM     30  C   UNL     1       0.439   2.786  19.893  0.00  0.00    +0.000 C 
ATOM     31  C   UNL     1       1.055   4.134  20.293  0.00  0.00    +0.000 C 
ENDBRANCH  18  20
ENDBRANCH   4  18
TORSDOF 5
ENDMDL
MODEL 2
REMARK VINA RESULT:      -9.0      2.979      4.307
REMARK  Name = 
REMARK  5 active torsions:
REMARK  status: ('A' for Active; 'I' for Inactive)
REMARK    1  A    between atoms: C_2  and  C_3
REMARK    2  A    between atoms: C_2  and  C_12
REMARK    3  A    between atoms: C_4  and  C_5
REMARK    4  A    between atoms: C_15  and  N_16
REMARK    5  A    between atoms: N_16  and  C_17
REMARK                            x       y       z     vdW  Elec       q    Type
REMARK                         _______ _______ _______ _____ _____    ______ ____
ROOT
ATOM      1  C   UNL     1       0.489   9.927  19.349  0.00  0.00    +0.000 A 
ATOM      2  C   UNL     1       0.563   9.290  20.590  0.00  0.00    +0.000 A 
ATOM      3  C   UNL     1       1.413   8.191  20.752  0.00  0.00    +0.000 A 
ATOM      4  C   UNL     1       2.178   7.692  19.694  0.00  0.00    +0.000 A 
ATOM      5  C   UNL     1       2.080   8.335  18.446  0.00  0.00    +0.000 A 
ATOM      6  C   UNL     1       1.233   9.436  18.277  0.00  0.00    +0.000 A 
ENDROOT
BRANCH   1   8
ATOM      7  O   UNL     1      -1.512  11.191  19.457  0.00  0.00    +0.000 OA
ATOM      8  C   UNL     1      -0.331  11.164  19.173  0.00  0.00    +0.000 C 
BRANCH   8   9
ATOM      9  C   UNL     1       0.386  12.341  18.613  0.00  0.00    +0.000 C 
ATOM     10  C   UNL     1       1.296  13.031  19.301  0.00  0.00    +0.000 C 
BRANCH  10  11
ATOM     11  C   UNL     1       1.931  14.226  18.731  0.00  0.00    +0.000 A 
ATOM     12  C   UNL     1       3.212  14.177  18.198  0.00  0.00    +0.000 A 
ATOM     13  C   UNL     1       3.788  15.355  17.729  0.00  0.00    +0.000 A 
ATOM     14  C   UNL     1       3.059  16.538  17.792  0.00  0.00    +0.000 A 
ATOM     15  C   UNL     1       1.774  16.489  18.310  0.00  0.00    +0.000 A 
ATOM     16 BR   UNL     1       0.752  18.083  18.387  0.00  0.00    +0.000 Br
ATOM     17  N   UNL     1       1.201  15.363  18.776  0.00  0.00    +0.000 NA
ENDBRANCH  10  11
ENDBRANCH   8   9
ENDBRANCH   1   8
BRANCH   4  18
ATOM     18  N   UNL     1       3.094   6.614  19.887  0.00  0.00    +0.000 N 
ATOM     19  H   UNL     1       3.128   6.373  20.883  0.00  0.00    +0.000 HD
BRANCH  18  20
ATOM     20  C   UNL     1       3.068   5.463  19.079  0.00  0.00    +0.000 A 
ATOM     21  C   UNL     1       2.226   4.431  19.289  0.00  0.00    +0.000 A 
ATOM     22  C   UNL     1       2.249   3.311  18.322  0.00  0.00    +0.000 A 
ATOM     23  N   UNL     1       3.016   3.196  17.285  0.00  0.00    +0.000 NA
ATOM     24  C   UNL     1       3.881   4.235  17.087  0.00  0.00    +0.000 A 
ATOM     25  N   UNL     1       4.759   4.393  16.124  0.00  0.00    +0.000 NA
ATOM     26  C   UNL     1       5.344   5.585  16.413  0.00  0.00    +0.000 A 
ATOM     27  N   UNL     1       4.896   6.207  17.509  0.00  0.00    +0.000 NA
ATOM     28  N   UNL     1       3.928   5.355  17.949  0.00  0.00    +0.000 N 
ATOM     29  C   UNL     1       1.230   2.278  18.669  0.00  0.00    +0.000 C 
ATOM     30  C   UNL     1       0.563   2.816  19.935  0.00  0.00    +0.000 C 
ATOM     31  C   UNL     1       1.178   4.171  20.309  0.00  0.00    +0.000 C 
ENDBRANCH  18  20
ENDBRANCH   4  18
TORSDOF 5
ENDMDL
MODEL 3
REMARK VINA RESULT:      -9.0      1.738      3.169
REMARK  Name = 
REMARK  5 active torsions:
REMARK  status: ('A' for Active; 'I' for Inactive)
REMARK    1  A    between atoms: C_2  and  C_3
REMARK    2  A    between atoms: C_2  and  C_12
REMARK    3  A    between atoms: C_4  and  C_5
REMARK    4  A    between atoms: C_15  and  N_16
REMARK    5  A    between atoms: N_16  and  C_17
REMARK                            x       y       z     vdW  Elec       q    Type
REMARK                         _______ _______ _______ _____ _____    ______ ____
ROOT
ATOM      1  C   UNL     1       0.723   9.718  20.092  0.00  0.00    +0.000 A 
ATOM      2  C   UNL     1       0.691   8.863  21.197  0.00  0.00    +0.000 A 
ATOM      3  C   UNL     1       1.444   7.684  21.177  0.00  0.00    +0.000 A 
ATOM      4  C   UNL     1       2.211   7.320  20.067  0.00  0.00    +0.000 A 
ATOM      5  C   UNL     1       2.218   8.184  18.956  0.00  0.00    +0.000 A 
ATOM      6  C   UNL     1       1.471   9.367  18.969  0.00  0.00    +0.000 A 
ENDROOT
BRANCH   1   8
ATOM      7  O   UNL     1       0.254  11.867  20.974  0.00  0.00    +0.000 OA
ATOM      8  C   UNL     1       0.013  11.033  20.124  0.00  0.00    +0.000 C 
BRANCH   8   9
ATOM      9  C   UNL     1      -1.015  11.240  19.068  0.00  0.00    +0.000 C 
ATOM     10  C   UNL     1      -1.665  10.234  18.483  0.00  0.00    +0.000 C 
BRANCH  10  11
ATOM     11  C   UNL     1      -2.625  10.481  17.399  0.00  0.00    +0.000 A 
ATOM     12  C   UNL     1      -2.399  10.006  16.114  0.00  0.00    +0.000 A 
ATOM     13  C   UNL     1      -3.311  10.325  15.112  0.00  0.00    +0.000 A 
ATOM     14  C   UNL     1      -4.427  11.093  15.430  0.00  0.00    +0.000 A 
ATOM     15  C   UNL     1      -4.590  11.497  16.746  0.00  0.00    +0.000 A 
ATOM     16 BR   UNL     1      -6.112  12.527  17.209  0.00  0.00    +0.000 Br
ATOM     17  N   UNL     1      -3.717  11.207  17.729  0.00  0.00    +0.000 NA
ENDBRANCH  10  11
ENDBRANCH   8   9
ENDBRANCH   1   8
BRANCH   4  18
ATOM     18  N   UNL     1       3.028   6.150  20.084  0.00  0.00    +0.000 N 
ATOM     19  H   UNL     1       2.935   5.685  20.993  0.00  0.00    +0.000 HD
BRANCH  18  20
ATOM     20  C   UNL     1       3.018   5.222  19.027  0.00  0.00    +0.000 A 
ATOM     21  C   UNL     1       3.901   5.251  18.009  0.00  0.00    +0.000 A 
ATOM     22  C   UNL     1       3.828   4.172  16.998  0.00  0.00    +0.000 A 
ATOM     23  N   UNL     1       2.982   3.192  16.968  0.00  0.00    +0.000 NA
ATOM     24  C   UNL     1       2.078   3.177  17.992  0.00  0.00    +0.000 A 
ATOM     25  N   UNL     1       1.120   2.308  18.221  0.00  0.00    +0.000 NA
ATOM     26  C   UNL     1       0.531   2.771  19.355  0.00  0.00    +0.000 A 
ATOM     27  N   UNL     1       1.050   3.889  19.871  0.00  0.00    +0.000 NA
ATOM     28  N   UNL     1       2.072   4.157  19.011  0.00  0.00    +0.000 N 
ATOM     29  C   UNL     1       4.898   4.323  15.970  0.00  0.00    +0.000 C 
ATOM     30  C   UNL     1       5.652   5.585  16.392  0.00  0.00    +0.000 C 
ATOM     31  C   UNL     1       5.034   6.151  17.677  0.00  0.00    +0.000 C 
ENDBRANCH  18  20
ENDBRANCH   4  18
TORSDOF 5
ENDMDL
MODEL 4
REMARK VINA RESULT:      -9.0      3.518      4.701
REMARK  Name = 
REMARK  5 active torsions:
REMARK  status: ('A' for Active; 'I' for Inactive)
REMARK    1  A    between atoms: C_2  and  C_3
REMARK    2  A    between atoms: C_2  and  C_12
REMARK    3  A    between atoms: C_4  and  C_5
REMARK    4  A    between atoms: C_15  and  N_16
REMARK    5  A    between atoms: N_16  and  C_17
REMARK                            x       y       z     vdW  Elec       q    Type
REMARK                         _______ _______ _______ _____ _____    ______ ____
ROOT
ATOM      1  C   UNL     1       0.578   9.899  19.218  0.00  0.00    +0.000 A 
ATOM      2  C   UNL     1       0.634   9.291  20.475  0.00  0.00    +0.000 A 
ATOM      3  C   UNL     1       1.462   8.180  20.667  0.00  0.00    +0.000 A 
ATOM      4  C   UNL     1       2.220   7.639  19.625  0.00  0.00    +0.000 A 
ATOM      5  C   UNL     1       2.139   8.253  18.361  0.00  0.00    +0.000 A 
ATOM      6  C   UNL     1       1.315   9.366  18.161  0.00  0.00    +0.000 A 
ENDROOT
BRANCH   1   8
ATOM      7  O   UNL     1      -1.422  11.169  19.160  0.00  0.00    +0.000 OA
ATOM      8  C   UNL     1      -0.216  11.147  19.009  0.00  0.00    +0.000 C 
BRANCH   8   9
ATOM      9  C   UNL     1       0.560  12.345  18.587  0.00  0.00    +0.000 C 
ATOM     10  C   UNL     1       1.447  12.950  19.378  0.00  0.00    +0.000 C 
BRANCH  10  11
ATOM     11  C   UNL     1       2.142  14.168  18.943  0.00  0.00    +0.000 A 
ATOM     12  C   UNL     1       1.461  15.364  18.770  0.00  0.00    +0.000 A 
ATOM     13  C   UNL     1       2.160  16.471  18.295  0.00  0.00    +0.000 A 
ATOM     14  C   UNL     1       3.519  16.349  18.026  0.00  0.00    +0.000 A 
ATOM     15  C   UNL     1       4.126  15.125  18.258  0.00  0.00    +0.000 A 
ATOM     16 BR   UNL     1       5.981  14.940  17.919  0.00  0.00    +0.000 Br
ATOM     17  N   UNL     1       3.468  14.041  18.710  0.00  0.00    +0.000 NA
ENDBRANCH  10  11
ENDBRANCH   8   9
ENDBRANCH   1   8
BRANCH   4  18
ATOM     18  N   UNL     1       3.113   6.548  19.848  0.00  0.00    +0.000 N 
ATOM     19  H   UNL     1       3.132   6.325  20.849  0.00  0.00    +0.000 HD
BRANCH  18  20
ATOM     20  C   UNL     1       3.073   5.383  19.061  0.00  0.00    +0.000 A 
ATOM     21  C   UNL     1       2.202   4.375  19.276  0.00  0.00    +0.000 A 
ATOM     22  C   UNL     1       2.216   3.236  18.331  0.00  0.00    +0.000 A 
ATOM     23  N   UNL     1       2.997   3.083  17.310  0.00  0.00    +0.000 NA
ATOM     24  C   UNL     1       3.890   4.097  17.108  0.00  0.00    +0.000 A 
ATOM     25  N   UNL     1       4.789   4.215  16.157  0.00  0.00    +0.000 NA
ATOM     26  C   UNL     1       5.397   5.398  16.435  0.00  0.00    +0.000 A 
ATOM     27  N   UNL     1       4.945   6.052  17.510  0.00  0.00    +0.000 NA
ATOM     28  N   UNL     1       3.950   5.232  17.949  0.00  0.00    +0.000 N 
ATOM     29  C   UNL     1       1.166   2.235  18.679  0.00  0.00    +0.000 C 
ATOM     30  C   UNL     1       0.490   2.813  19.922  0.00  0.00    +0.000 C 
ATOM     31  C   UNL     1       1.131   4.160  20.282  0.00  0.00    +0.000 C 
ENDBRANCH  18  20
ENDBRANCH   4  18
TORSDOF 5
ENDMDL
MODEL 5
REMARK VINA RESULT:      -9.0      1.035      2.658
REMARK  Name = 
REMARK  5 active torsions:
REMARK  status: ('A' for Active; 'I' for Inactive)
REMARK    1  A    between atoms: C_2  and  C_3
REMARK    2  A    between atoms: C_2  and  C_12
REMARK    3  A    between atoms: C_4  and  C_5
REMARK    4  A    between atoms: C_15  and  N_16
REMARK    5  A    between atoms: N_16  and  C_17
REMARK                            x       y       z     vdW  Elec       q    Type
REMARK                         _______ _______ _______ _____ _____    ______ ____
ROOT
ATOM      1  C   UNL     1       0.688  10.083  19.073  0.00  0.00    +0.000 A 
ATOM      2  C   UNL     1       0.659   9.510  20.347  0.00  0.00    +0.000 A 
ATOM      3  C   UNL     1       1.379   8.336  20.592  0.00  0.00    +0.000 A 
ATOM      4  C   UNL     1       2.112   7.700  19.586  0.00  0.00    +0.000 A 
ATOM      5  C   UNL     1       2.117   8.281  18.304  0.00  0.00    +0.000 A 
ATOM      6  C   UNL     1       1.401   9.457  18.051  0.00  0.00    +0.000 A 
ENDROOT
BRANCH   1   8
ATOM      7  O   UNL     1       0.621  12.442  18.853  0.00  0.00    +0.000 OA
ATOM      8  C   UNL     1       0.014  11.390  18.808  0.00  0.00    +0.000 C 
BRANCH   8   9
ATOM      9  C   UNL     1      -1.442  11.318  18.510  0.00  0.00    +0.000 C 
ATOM     10  C   UNL     1      -2.352  12.048  19.157  0.00  0.00    +0.000 C 
BRANCH  10  11
ATOM     11  C   UNL     1      -3.784  11.897  18.874  0.00  0.00    +0.000 A 
ATOM     12  C   UNL     1      -4.232  11.414  17.652  0.00  0.00    +0.000 A 
ATOM     13  C   UNL     1      -5.602  11.352  17.416  0.00  0.00    +0.000 A 
ATOM     14  C   UNL     1      -6.480  11.758  18.416  0.00  0.00    +0.000 A 
ATOM     15  C   UNL     1      -5.948  12.197  19.618  0.00  0.00    +0.000 A 
ATOM     16 BR   UNL     1      -7.124  12.737  21.002  0.00  0.00    +0.000 Br
ATOM     17  N   UNL     1      -4.626  12.272  19.864  0.00  0.00    +0.000 NA
ENDBRANCH  10  11
ENDBRANCH   8   9
ENDBRANCH   1   8
BRANCH   4  18
ATOM     18  N   UNL     1       2.898   6.542  19.863  0.00  0.00    +0.000 N 
ATOM     19  H   UNL     1       2.710   6.226  20.820  0.00  0.00    +0.000 HD
BRANCH  18  20
ATOM     20  C   UNL     1       2.968   5.460  18.968  0.00  0.00    +0.000 A 
ATOM     21  C   UNL     1       3.852   5.397  17.951  0.00  0.00    +0.000 A 
ATOM     22  C   UNL     1       3.871   4.169  17.125  0.00  0.00    +0.000 A 
ATOM     23  N   UNL     1       3.106   3.133  17.257  0.00  0.00    +0.000 NA
ATOM     24  C   UNL     1       2.200   3.209  18.276  0.00  0.00    +0.000 A 
ATOM     25  N   UNL     1       1.313   2.314  18.646  0.00  0.00    +0.000 NA
ATOM     26  C   UNL     1       0.681   2.903  19.696  0.00  0.00    +0.000 A 
ATOM     27  N   UNL     1       1.107   4.127  20.025  0.00  0.00    +0.000 NA
ATOM     28  N   UNL     1       2.110   4.335  19.126  0.00  0.00    +0.000 N 
ATOM     29  C   UNL     1       4.932   4.239  16.078  0.00  0.00    +0.000 C 
ATOM     30  C   UNL     1       5.581   5.608  16.290  0.00  0.00    +0.000 C 
ATOM     31  C   UNL     1       4.912   6.321  17.474  0.00  0.00    +0.000 C 
ENDBRANCH  18  20
ENDBRANCH   4  18
TORSDOF 5
ENDMDL
MODEL 6
REMARK VINA RESULT:      -9.0      1.781      3.465
REMARK  Name = 
REMARK  5 active torsions:
REMARK  status: ('A' for Active; 'I' for Inactive)
REMARK    1  A    between atoms: C_2  and  C_3
REMARK    2  A    between atoms: C_2  and  C_12
REMARK    3  A    between atoms: C_4  and  C_5
REMARK    4  A    between atoms: C_15  and  N_16
REMARK    5  A    between atoms: N_16  and  C_17
REMARK                            x       y       z     vdW  Elec       q    Type
REMARK                         _______ _______ _______ _____ _____    ______ ____
ROOT
ATOM      1  C   UNL     1       1.303   9.639  19.419  0.00  0.00    +0.000 A 
ATOM      2  C   UNL     1       1.731   9.682  18.089  0.00  0.00    +0.000 A 
ATOM      3  C   UNL     1       2.278   8.535  17.504  0.00  0.00    +0.000 A 
ATOM      4  C   UNL     1       2.436   7.346  18.224  0.00  0.00    +0.000 A 
ATOM      5  C   UNL     1       2.014   7.326  19.567  0.00  0.00    +0.000 A 
ATOM      6  C   UNL     1       1.464   8.468  20.158  0.00  0.00    +0.000 A 
ENDROOT
BRANCH   1   8
ATOM      7  O   UNL     1       1.080  11.378  21.014  0.00  0.00    +0.000 OA
ATOM      8  C   UNL     1       0.621  10.815  20.039  0.00  0.00    +0.000 C 
BRANCH   8   9
ATOM      9  C   UNL     1      -0.657  11.233  19.401  0.00  0.00    +0.000 C 
ATOM     10  C   UNL     1      -1.523  10.365  18.877  0.00  0.00    +0.000 C 
BRANCH  10  11
ATOM     11  C   UNL     1      -2.741  10.827  18.199  0.00  0.00    +0.000 A 
ATOM     12  C   UNL     1      -2.937  10.611  16.842  0.00  0.00    +0.000 A 
ATOM     13  C   UNL     1      -4.082  11.126  16.240  0.00  0.00    +0.000 A 
ATOM     14  C   UNL     1      -5.000  11.825  17.017  0.00  0.00    +0.000 A 
ATOM     15  C   UNL     1      -4.740  11.965  18.371  0.00  0.00    +0.000 A 
ATOM     16 BR   UNL     1      -5.986  12.895  19.455  0.00  0.00    +0.000 Br
ATOM     17  N   UNL     1      -3.637  11.482  18.972  0.00  0.00    +0.000 NA
ENDBRANCH  10  11
ENDBRANCH   8   9
ENDBRANCH   1   8
BRANCH   4  18
ATOM     18  N   UNL     1       2.931   6.163  17.598  0.00  0.00    +0.000 N 
ATOM     19  H   UNL     1       3.012   6.322  16.588  0.00  0.00    +0.000 HD
BRANCH  18  20
ATOM     20  C   UNL     1       4.046   5.468  18.101  0.00  0.00    +0.000 A 
ATOM     21  C   UNL     1       5.314   5.904  17.960  0.00  0.00    +0.000 A 
ATOM     22  C   UNL     1       6.392   5.115  18.600  0.00  0.00    +0.000 A 
ATOM     23  N   UNL     1       6.255   4.021  19.278  0.00  0.00    +0.000 NA
ATOM     24  C   UNL     1       4.971   3.574  19.402  0.00  0.00    +0.000 A 
ATOM     25  N   UNL     1       4.536   2.508  20.035  0.00  0.00    +0.000 NA
ATOM     26  C   UNL     1       3.192   2.542  19.835  0.00  0.00    +0.000 A 
ATOM     27  N   UNL     1       2.732   3.566  19.109  0.00  0.00    +0.000 NA
ATOM     28  N   UNL     1       3.872   4.260  18.836  0.00  0.00    +0.000 N 
ATOM     29  C   UNL     1       7.724   5.754  18.391  0.00  0.00    +0.000 C 
ATOM     30  C   UNL     1       7.418   7.002  17.560  0.00  0.00    +0.000 C 
ATOM     31  C   UNL     1       5.907   7.099  17.308  0.00  0.00    +0.000 C 
ENDBRANCH  18  20
ENDBRANCH   4  18
TORSDOF 5
ENDMDL
MODEL 7
REMARK VINA RESULT:      -9.0      3.637      5.414
REMARK  Name = 
REMARK  5 active torsions:
REMARK  status: ('A' for Active; 'I' for Inactive)
REMARK    1  A    between atoms: C_2  and  C_3
REMARK    2  A    between atoms: C_2  and  C_12
REMARK    3  A    between atoms: C_4  and  C_5
REMARK    4  A    between atoms: C_15  and  N_16
REMARK    5  A    between atoms: N_16  and  C_17
REMARK                            x       y       z     vdW  Elec       q    Type
REMARK                         _______ _______ _______ _____ _____    ______ ____
ROOT
ATOM      1  C   UNL     1       0.504   9.935  19.267  0.00  0.00    +0.000 A 
ATOM      2  C   UNL     1       0.591   9.331  20.524  0.00  0.00    +0.000 A 
ATOM      3  C   UNL     1       1.409   8.209  20.694  0.00  0.00    +0.000 A 
ATOM      4  C   UNL     1       2.127   7.654  19.631  0.00  0.00    +0.000 A 
ATOM      5  C   UNL     1       2.015   8.265  18.368  0.00  0.00    +0.000 A 
ATOM      6  C   UNL     1       1.201   9.389  18.189  0.00  0.00    +0.000 A 
ENDROOT
BRANCH   1   8
ATOM      7  O   UNL     1      -1.481  11.229  19.252  0.00  0.00    +0.000 OA
ATOM      8  C   UNL     1      -0.279  11.194  19.078  0.00  0.00    +0.000 C 
BRANCH   8   9
ATOM      9  C   UNL     1       0.503  12.383  18.645  0.00  0.00    +0.000 C 
ATOM     10  C   UNL     1       1.553  12.847  19.323  0.00  0.00    +0.000 C 
BRANCH  10  11
ATOM     11  C   UNL     1       2.256  14.063  18.894  0.00  0.00    +0.000 A 
ATOM     12  C   UNL     1       1.579  15.262  18.718  0.00  0.00    +0.000 A 
ATOM     13  C   UNL     1       2.285  16.367  18.249  0.00  0.00    +0.000 A 
ATOM     14  C   UNL     1       3.645  16.241  17.987  0.00  0.00    +0.000 A 
ATOM     15  C   UNL     1       4.247  15.014  18.222  0.00  0.00    +0.000 A 
ATOM     16 BR   UNL     1       6.103  14.823  17.892  0.00  0.00    +0.000 Br
ATOM     17  N   UNL     1       3.582  13.932  18.668  0.00  0.00    +0.000 NA
ENDBRANCH  10  11
ENDBRANCH   8   9
ENDBRANCH   1   8
BRANCH   4  18
ATOM     18  N   UNL     1       3.011   6.551  19.830  0.00  0.00    +0.000 N 
ATOM     19  H   UNL     1       2.939   6.231  20.801  0.00  0.00    +0.000 HD
BRANCH  18  20
ATOM     20  C   UNL     1       3.063   5.470  18.933  0.00  0.00    +0.000 A 
ATOM     21  C   UNL     1       3.941   5.398  17.912  0.00  0.00    +0.000 A 
ATOM     22  C   UNL     1       3.941   4.170  17.084  0.00  0.00    +0.000 A 
ATOM     23  N   UNL     1       3.164   3.143  17.219  0.00  0.00    +0.000 NA
ATOM     24  C   UNL     1       2.264   3.229  18.243  0.00  0.00    +0.000 A 
ATOM     25  N   UNL     1       1.369   2.344  18.617  0.00  0.00    +0.000 NA
ATOM     26  C   UNL     1       0.750   2.939  19.671  0.00  0.00    +0.000 A 
ATOM     27  N   UNL     1       1.193   4.157  19.999  0.00  0.00    +0.000 NA
ATOM     28  N   UNL     1       2.193   4.354  19.095  0.00  0.00    +0.000 N 
ATOM     29  C   UNL     1       4.997   4.229  16.032  0.00  0.00    +0.000 C 
ATOM     30  C   UNL     1       5.663   5.590  16.242  0.00  0.00    +0.000 C 
ATOM     31  C   UNL     1       5.009   6.309  17.429  0.00  0.00    +0.000 C 
ENDBRANCH  18  20
ENDBRANCH   4  18
TORSDOF 5
ENDMDL
MODEL 8
REMARK VINA RESULT:      -9.0      3.211      5.080
REMARK  Name = 
REMARK  5 active torsions:
REMARK  status: ('A' for Active; 'I' for Inactive)
REMARK    1  A    between atoms: C_2  and  C_3
REMARK    2  A    between atoms: C_2  and  C_12
REMARK    3  A    between atoms: C_4  and  C_5
REMARK    4  A    between atoms: C_15  and  N_16
REMARK    5  A    between atoms: N_16  and  C_17
REMARK                            x       y       z     vdW  Elec       q    Type
REMARK                         _______ _______ _______ _____ _____    ______ ____
ROOT
ATOM      1  C   UNL     1       0.628   9.886  19.438  0.00  0.00    +0.000 A 
ATOM      2  C   UNL     1       0.670   9.196  20.652  0.00  0.00    +0.000 A 
ATOM      3  C   UNL     1       1.459   8.046  20.765  0.00  0.00    +0.000 A 
ATOM      4  C   UNL     1       2.191   7.548  19.683  0.00  0.00    +0.000 A 
ATOM      5  C   UNL     1       2.124   8.245  18.463  0.00  0.00    +0.000 A 
ATOM      6  C   UNL     1       1.339   9.397  18.342  0.00  0.00    +0.000 A 
ENDROOT
BRANCH   1   8
ATOM      7  O   UNL     1      -1.276  11.276  19.688  0.00  0.00    +0.000 OA
ATOM      8  C   UNL     1      -0.123  11.172  19.317  0.00  0.00    +0.000 C 
BRANCH   8   9
ATOM      9  C   UNL     1       0.623  12.301  18.697  0.00  0.00    +0.000 C 
ATOM     10  C   UNL     1       1.235  13.245  19.412  0.00  0.00    +0.000 C 
BRANCH  10  11
ATOM     11  C   UNL     1       1.905  14.376  18.758  0.00  0.00    +0.000 A 
ATOM     12  C   UNL     1       3.167  14.241  18.196  0.00  0.00    +0.000 A 
ATOM     13  C   UNL     1       3.780  15.363  17.646  0.00  0.00    +0.000 A 
ATOM     14  C   UNL     1       3.104  16.579  17.659  0.00  0.00    +0.000 A 
ATOM     15  C   UNL     1       1.833  16.616  18.212  0.00  0.00    +0.000 A 
ATOM     16 BR   UNL     1       0.884  18.257  18.223  0.00  0.00    +0.000 Br
ATOM     17  N   UNL     1       1.225  15.546  18.756  0.00  0.00    +0.000 NA
ENDBRANCH  10  11
ENDBRANCH   8   9
ENDBRANCH   1   8
BRANCH   4  18
ATOM     18  N   UNL     1       3.046   6.414  19.828  0.00  0.00    +0.000 N 
ATOM     19  H   UNL     1       2.946   6.033  20.775  0.00  0.00    +0.000 HD
BRANCH  18  20
ATOM     20  C   UNL     1       3.093   5.392  18.863  0.00  0.00    +0.000 A 
ATOM     21  C   UNL     1       3.993   5.364  17.859  0.00  0.00    +0.000 A 
ATOM     22  C   UNL     1       3.982   4.194  16.953  0.00  0.00    +0.000 A 
ATOM     23  N   UNL     1       3.179   3.180  17.003  0.00  0.00    +0.000 NA
ATOM     24  C   UNL     1       2.257   3.222  18.011  0.00  0.00    +0.000 A 
ATOM     25  N   UNL     1       1.332   2.337  18.307  0.00  0.00    +0.000 NA
ATOM     26  C   UNL     1       0.704   2.878  19.384  0.00  0.00    +0.000 A 
ATOM     27  N   UNL     1       1.167   4.061  19.800  0.00  0.00    +0.000 NA
ATOM     28  N   UNL     1       2.193   4.291  18.933  0.00  0.00    +0.000 N 
ATOM     29  C   UNL     1       5.064   4.294  15.930  0.00  0.00    +0.000 C 
ATOM     30  C   UNL     1       5.757   5.620  16.243  0.00  0.00    +0.000 C 
ATOM     31  C   UNL     1       5.094   6.278  17.460  0.00  0.00    +0.000 C 
ENDBRANCH  18  20
ENDBRANCH   4  18
TORSDOF 5
ENDMDL
MODEL 9
REMARK VINA RESULT:      -9.0      1.404      3.022
REMARK  Name = 
REMARK  5 active torsions:
REMARK  status: ('A' for Active; 'I' for Inactive)
REMARK    1  A    between atoms: C_2  and  C_3
REMARK    2  A    between atoms: C_2  and  C_12
REMARK    3  A    between atoms: C_4  and  C_5
REMARK    4  A    between atoms: C_15  and  N_16
REMARK    5  A    between atoms: N_16  and  C_17
REMARK                            x       y       z     vdW  Elec       q    Type
REMARK                         _______ _______ _______ _____ _____    ______ ____
ROOT
ATOM      1  C   UNL     1       0.767   9.954  19.327  0.00  0.00    +0.000 A 
ATOM      2  C   UNL     1       0.754   9.302  20.563  0.00  0.00    +0.000 A 
ATOM      3  C   UNL     1       1.476   8.115  20.724  0.00  0.00    +0.000 A 
ATOM      4  C   UNL     1       2.194   7.543  19.669  0.00  0.00    +0.000 A 
ATOM      5  C   UNL     1       2.183   8.204  18.427  0.00  0.00    +0.000 A 
ATOM      6  C   UNL     1       1.465   9.393  18.258  0.00  0.00    +0.000 A 
ENDROOT
BRANCH   1   8
ATOM      7  O   UNL     1       0.638  12.204  18.592  0.00  0.00    +0.000 OA
ATOM      8  C   UNL     1       0.091  11.276  19.155  0.00  0.00    +0.000 C 
BRANCH   8   9
ATOM      9  C   UNL     1      -1.277  11.384  19.732  0.00  0.00    +0.000 C 
ATOM     10  C   UNL     1      -2.065  12.441  19.535  0.00  0.00    +0.000 C 
BRANCH  10  11
ATOM     11  C   UNL     1      -3.382  12.533  20.178  0.00  0.00    +0.000 A 
ATOM     12  C   UNL     1      -3.507  12.848  21.524  0.00  0.00    +0.000 A 
ATOM     13  C   UNL     1      -4.777  12.859  22.094  0.00  0.00    +0.000 A 
ATOM     14  C   UNL     1      -5.880  12.573  21.297  0.00  0.00    +0.000 A 
ATOM     15  C   UNL     1      -5.666  12.301  19.955  0.00  0.00    +0.000 A 
ATOM     16 BR   UNL     1      -7.155  11.928  18.843  0.00  0.00    +0.000 Br
ATOM     17  N   UNL     1      -4.447  12.277  19.385  0.00  0.00    +0.000 NA
ENDBRANCH  10  11
ENDBRANCH   8   9
ENDBRANCH   1   8
BRANCH   4  18
ATOM     18  N   UNL     1       2.982   6.369  19.862  0.00  0.00    +0.000 N 
ATOM     19  H   UNL     1       2.805   5.992  20.799  0.00  0.00    +0.000 HD
BRANCH  18  20
ATOM     20  C   UNL     1       3.041   5.347  18.898  0.00  0.00    +0.000 A 
ATOM     21  C   UNL     1       3.953   5.318  17.905  0.00  0.00    +0.000 A 
ATOM     22  C   UNL     1       3.953   4.147  16.999  0.00  0.00    +0.000 A 
ATOM     23  N   UNL     1       3.147   3.135  17.039  0.00  0.00    +0.000 NA
ATOM     24  C   UNL     1       2.213   3.178  18.034  0.00  0.00    +0.000 A 
ATOM     25  N   UNL     1       1.282   2.295  18.317  0.00  0.00    +0.000 NA
ATOM     26  C   UNL     1       0.640   2.837  19.386  0.00  0.00    +0.000 A 
ATOM     27  N   UNL     1       1.100   4.019  19.808  0.00  0.00    +0.000 NA
ATOM     28  N   UNL     1       2.137   4.248  18.955  0.00  0.00    +0.000 N 
ATOM     29  C   UNL     1       5.048   4.246  15.991  0.00  0.00    +0.000 C 
ATOM     30  C   UNL     1       5.740   5.572  16.313  0.00  0.00    +0.000 C 
ATOM     31  C   UNL     1       5.061   6.229  17.522  0.00  0.00    +0.000 C 
ENDBRANCH  18  20
ENDBRANCH   4  18
TORSDOF 5
ENDMDL
