MODEL 1
REMARK VINA RESULT:      -7.6      0.000      0.000
REMARK  Name = 
REMARK  6 active torsions:
REMARK  status: ('A' for Active; 'I' for Inactive)
REMARK    1  A    between atoms: O_1  and  C_2
REMARK    2  A    between atoms: C_5  and  C_6
REMARK    3  A    between atoms: N_7  and  N_8
REMARK    4  A    between atoms: N_8  and  C_9
REMARK    5  A    between atoms: C_9  and  C_10
REMARK    6  A    between atoms: C_14  and  C_15
REMARK                            x       y       z     vdW  Elec       q    Type
REMARK                         _______ _______ _______ _____ _____    ______ ____
ROOT
ATOM      1  N   UNL     1       7.046   5.169  19.658  0.00  0.00    +0.000 N 
ATOM      2  H   UNL     1       7.761   4.691  20.212  0.00  0.00    +0.000 HD
ENDROOT
BRANCH   1   4
ATOM      3  C   UNL     1       4.856   4.815  19.471  0.00  0.00    +0.000 C 
ATOM      4  N   UNL     1       6.044   4.324  19.301  0.00  0.00    +0.000 NA
BRANCH   3   8
ATOM      5  C   UNL     1       1.361   2.529  18.634  0.00  0.00    +0.000 A 
ATOM      6  C   UNL     1       2.371   2.601  17.678  0.00  0.00    +0.000 A 
ATOM      7  C   UNL     1       3.513   3.358  17.945  0.00  0.00    +0.000 A 
ATOM      8  C   UNL     1       3.637   4.034  19.164  0.00  0.00    +0.000 A 
ATOM      9  C   UNL     1       2.615   3.964  20.114  0.00  0.00    +0.000 A 
ATOM     10  C   UNL     1       1.471   3.207  19.845  0.00  0.00    +0.000 A 
BRANCH   5  11
ATOM     11  O   UNL     1       0.235   1.790  18.422  0.00  0.00    +0.000 OA
ATOM     12  H   UNL     1      -0.540   2.370  18.515  0.00  0.00    +0.000 HD
ENDBRANCH   5  11
ENDBRANCH   3   8
ENDBRANCH   1   4
BRANCH   1  13
ATOM     13  C   UNL     1       7.716   5.862  18.551  0.00  0.00    +0.000 C 
BRANCH  13  14
ATOM     14  C   UNL     1       6.814   6.005  17.343  0.00  0.00    +0.000 A 
ATOM     15  C   UNL     1       5.870   7.038  17.289  0.00  0.00    +0.000 A 
ATOM     16  C   UNL     1       5.016   7.168  16.193  0.00  0.00    +0.000 A 
ATOM     17  C   UNL     1       5.090   6.262  15.135  0.00  0.00    +0.000 A 
ATOM     18  C   UNL     1       6.034   5.224  15.155  0.00  0.00    +0.000 A 
ATOM     19  C   UNL     1       6.903   5.117  16.257  0.00  0.00    +0.000 A 
BRANCH  18  20
ATOM     20  C   UNL     1       6.105   4.224  14.028  0.00  0.00    +0.000 C 
ATOM     21  F   UNL     1       7.042   4.530  13.085  0.00  0.00    +0.000 F 
ATOM     22  F   UNL     1       6.409   2.967  14.456  0.00  0.00    +0.000 F 
ATOM     23  F   UNL     1       4.926   4.116  13.354  0.00  0.00    +0.000 F 
ENDBRANCH  18  20
ENDBRANCH  13  14
ENDBRANCH   1  13
TORSDOF 6
ENDMDL
MODEL 2
REMARK VINA RESULT:      -7.4      0.587      1.011
REMARK  Name = 
REMARK  6 active torsions:
REMARK  status: ('A' for Active; 'I' for Inactive)
REMARK    1  A    between atoms: O_1  and  C_2
REMARK    2  A    between atoms: C_5  and  C_6
REMARK    3  A    between atoms: N_7  and  N_8
REMARK    4  A    between atoms: N_8  and  C_9
REMARK    5  A    between atoms: C_9  and  C_10
REMARK    6  A    between atoms: C_14  and  C_15
REMARK                            x       y       z     vdW  Elec       q    Type
REMARK                         _______ _______ _______ _____ _____    ______ ____
ROOT
ATOM      1  N   UNL     1       7.245   5.235  19.707  0.00  0.00    +0.000 N 
ATOM      2  H   UNL     1       7.769   4.358  19.663  0.00  0.00    +0.000 HD
ENDROOT
BRANCH   1   4
ATOM      3  C   UNL     1       5.560   3.916  19.094  0.00  0.00    +0.000 C 
ATOM      4  N   UNL     1       5.905   5.016  19.689  0.00  0.00    +0.000 NA
BRANCH   3   8
ATOM      5  C   UNL     1       1.495   2.709  18.689  0.00  0.00    +0.000 A 
ATOM      6  C   UNL     1       2.128   3.334  17.618  0.00  0.00    +0.000 A 
ATOM      7  C   UNL     1       3.457   3.741  17.751  0.00  0.00    +0.000 A 
ATOM      8  C   UNL     1       4.142   3.518  18.950  0.00  0.00    +0.000 A 
ATOM      9  C   UNL     1       3.496   2.899  20.024  0.00  0.00    +0.000 A 
ATOM     10  C   UNL     1       2.165   2.493  19.890  0.00  0.00    +0.000 A 
BRANCH   5  11
ATOM     11  O   UNL     1       0.203   2.283  18.599  0.00  0.00    +0.000 OA
ATOM     12  H   UNL     1      -0.070   2.313  17.667  0.00  0.00    +0.000 HD
ENDBRANCH   5  11
ENDBRANCH   3   8
ENDBRANCH   1   4
BRANCH   1  13
ATOM     13  C   UNL     1       7.757   6.125  18.658  0.00  0.00    +0.000 C 
BRANCH  13  14
ATOM     14  C   UNL     1       6.822   6.195  17.468  0.00  0.00    +0.000 A 
ATOM     15  C   UNL     1       5.812   7.164  17.425  0.00  0.00    +0.000 A 
ATOM     16  C   UNL     1       4.928   7.227  16.347  0.00  0.00    +0.000 A 
ATOM     17  C   UNL     1       5.037   6.316  15.297  0.00  0.00    +0.000 A 
ATOM     18  C   UNL     1       6.046   5.340  15.307  0.00  0.00    +0.000 A 
ATOM     19  C   UNL     1       6.944   5.302  16.390  0.00  0.00    +0.000 A 
BRANCH  18  20
ATOM     20  C   UNL     1       6.157   4.334  14.188  0.00  0.00    +0.000 C 
ATOM     21  F   UNL     1       5.004   4.177  13.478  0.00  0.00    +0.000 F 
ATOM     22  F   UNL     1       7.112   4.666  13.274  0.00  0.00    +0.000 F 
ATOM     23  F   UNL     1       6.486   3.091  14.639  0.00  0.00    +0.000 F 
ENDBRANCH  18  20
ENDBRANCH  13  14
ENDBRANCH   1  13
TORSDOF 6
ENDMDL
MODEL 3
REMARK VINA RESULT:      -7.3      4.690      6.272
REMARK  Name = 
REMARK  6 active torsions:
REMARK  status: ('A' for Active; 'I' for Inactive)
REMARK    1  A    between atoms: O_1  and  C_2
REMARK    2  A    between atoms: C_5  and  C_6
REMARK    3  A    between atoms: N_7  and  N_8
REMARK    4  A    between atoms: N_8  and  C_9
REMARK    5  A    between atoms: C_9  and  C_10
REMARK    6  A    between atoms: C_14  and  C_15
REMARK                            x       y       z     vdW  Elec       q    Type
REMARK                         _______ _______ _______ _____ _____    ______ ____
ROOT
ATOM      1  N   UNL     1       5.150   5.637  17.309  0.00  0.00    +0.000 N 
ATOM      2  H   UNL     1       6.030   6.045  16.984  0.00  0.00    +0.000 HD
ENDROOT
BRANCH   1   4
ATOM      3  C   UNL     1       3.336   6.878  17.665  0.00  0.00    +0.000 C 
ATOM      4  N   UNL     1       4.481   6.486  18.132  0.00  0.00    +0.000 NA
BRANCH   3   8
ATOM      5  C   UNL     1       0.810   9.559  19.804  0.00  0.00    +0.000 A 
ATOM      6  C   UNL     1       1.139   9.844  18.482  0.00  0.00    +0.000 A 
ATOM      7  C   UNL     1       1.975   8.973  17.781  0.00  0.00    +0.000 A 
ATOM      8  C   UNL     1       2.474   7.825  18.406  0.00  0.00    +0.000 A 
ATOM      9  C   UNL     1       2.147   7.551  19.737  0.00  0.00    +0.000 A 
ATOM     10  C   UNL     1       1.311   8.425  20.438  0.00  0.00    +0.000 A 
BRANCH   5  11
ATOM     11  O   UNL     1      -0.014  10.374  20.522  0.00  0.00    +0.000 OA
ATOM     12  H   UNL     1       0.530  10.940  21.095  0.00  0.00    +0.000 HD
ENDBRANCH   5  11
ENDBRANCH   3   8
ENDBRANCH   1   4
BRANCH   1  13
ATOM     13  C   UNL     1       5.442   4.311  17.868  0.00  0.00    +0.000 C 
BRANCH  13  14
ATOM     14  C   UNL     1       4.181   3.576  18.272  0.00  0.00    +0.000 A 
ATOM     15  C   UNL     1       3.677   2.549  17.465  0.00  0.00    +0.000 A 
ATOM     16  C   UNL     1       2.503   1.878  17.812  0.00  0.00    +0.000 A 
ATOM     17  C   UNL     1       1.812   2.229  18.971  0.00  0.00    +0.000 A 
ATOM     18  C   UNL     1       2.299   3.246  19.807  0.00  0.00    +0.000 A 
ATOM     19  C   UNL     1       3.495   3.900  19.456  0.00  0.00    +0.000 A 
BRANCH  18  20
ATOM     20  C   UNL     1       1.547   3.650  21.050  0.00  0.00    +0.000 C 
ATOM     21  F   UNL     1       0.590   4.596  20.826  0.00  0.00    +0.000 F 
ATOM     22  F   UNL     1       0.900   2.604  21.638  0.00  0.00    +0.000 F 
ATOM     23  F   UNL     1       2.365   4.171  22.006  0.00  0.00    +0.000 F 
ENDBRANCH  18  20
ENDBRANCH  13  14
ENDBRANCH   1  13
TORSDOF 6
ENDMDL
MODEL 4
REMARK VINA RESULT:      -7.3      5.828      8.184
REMARK  Name = 
REMARK  6 active torsions:
REMARK  status: ('A' for Active; 'I' for Inactive)
REMARK    1  A    between atoms: O_1  and  C_2
REMARK    2  A    between atoms: C_5  and  C_6
REMARK    3  A    between atoms: N_7  and  N_8
REMARK    4  A    between atoms: N_8  and  C_9
REMARK    5  A    between atoms: C_9  and  C_10
REMARK    6  A    between atoms: C_14  and  C_15
REMARK                            x       y       z     vdW  Elec       q    Type
REMARK                         _______ _______ _______ _____ _____    ______ ____
ROOT
ATOM      1  N   UNL     1       7.720   7.868  17.836  0.00  0.00    +0.000 N 
ATOM      2  H   UNL     1       7.950   7.821  16.840  0.00  0.00    +0.000 HD
ENDROOT
BRANCH   1   4
ATOM      3  C   UNL     1       8.550   9.929  17.982  0.00  0.00    +0.000 C 
ATOM      4  N   UNL     1       8.532   8.736  18.493  0.00  0.00    +0.000 NA
BRANCH   3   8
ATOM      5  C   UNL     1      11.024  13.018  19.556  0.00  0.00    +0.000 A 
ATOM      6  C   UNL     1      10.708  11.925  20.359  0.00  0.00    +0.000 A 
ATOM      7  C   UNL     1       9.889  10.916  19.850  0.00  0.00    +0.000 A 
ATOM      8  C   UNL     1       9.394  11.006  18.544  0.00  0.00    +0.000 A 
ATOM      9  C   UNL     1       9.708  12.111  17.748  0.00  0.00    +0.000 A 
ATOM     10  C   UNL     1      10.528  13.121  18.259  0.00  0.00    +0.000 A 
BRANCH   5  11
ATOM     11  O   UNL     1      11.832  14.019  20.007  0.00  0.00    +0.000 OA
ATOM     12  H   UNL     1      11.536  14.282  20.894  0.00  0.00    +0.000 HD
ENDBRANCH   5  11
ENDBRANCH   3   8
ENDBRANCH   1   4
BRANCH   1  13
ATOM     13  C   UNL     1       7.697   6.497  18.363  0.00  0.00    +0.000 C 
BRANCH  13  14
ATOM     14  C   UNL     1       6.638   5.649  17.689  0.00  0.00    +0.000 A 
ATOM     15  C   UNL     1       6.974   4.845  16.594  0.00  0.00    +0.000 A 
ATOM     16  C   UNL     1       6.005   4.075  15.948  0.00  0.00    +0.000 A 
ATOM     17  C   UNL     1       4.681   4.105  16.386  0.00  0.00    +0.000 A 
ATOM     18  C   UNL     1       4.316   4.892  17.489  0.00  0.00    +0.000 A 
ATOM     19  C   UNL     1       5.308   5.646  18.144  0.00  0.00    +0.000 A 
BRANCH  18  20
ATOM     20  C   UNL     1       2.883   4.949  17.956  0.00  0.00    +0.000 C 
ATOM     21  F   UNL     1       2.727   4.654  19.278  0.00  0.00    +0.000 F 
ATOM     22  F   UNL     1       2.321   6.179  17.784  0.00  0.00    +0.000 F 
ATOM     23  F   UNL     1       2.083   4.075  17.285  0.00  0.00    +0.000 F 
ENDBRANCH  18  20
ENDBRANCH  13  14
ENDBRANCH   1  13
TORSDOF 6
ENDMDL
MODEL 5
REMARK VINA RESULT:      -7.2      7.021      8.090
REMARK  Name = 
REMARK  6 active torsions:
REMARK  status: ('A' for Active; 'I' for Inactive)
REMARK    1  A    between atoms: O_1  and  C_2
REMARK    2  A    between atoms: C_5  and  C_6
REMARK    3  A    between atoms: N_7  and  N_8
REMARK    4  A    between atoms: N_8  and  C_9
REMARK    5  A    between atoms: C_9  and  C_10
REMARK    6  A    between atoms: C_14  and  C_15
REMARK                            x       y       z     vdW  Elec       q    Type
REMARK                         _______ _______ _______ _____ _____    ______ ____
ROOT
ATOM      1  N   UNL     1       1.668   9.889  17.781  0.00  0.00    +0.000 N 
ATOM      2  H   UNL     1       1.137  10.374  17.053  0.00  0.00    +0.000 HD
ENDROOT
BRANCH   1   4
ATOM      3  C   UNL     1       2.534   7.905  18.297  0.00  0.00    +0.000 C 
ATOM      4  N   UNL     1       2.123   8.686  17.347  0.00  0.00    +0.000 NA
BRANCH   3   8
ATOM      5  C   UNL     1       4.116   4.020  17.555  0.00  0.00    +0.000 A 
ATOM      6  C   UNL     1       4.975   5.115  17.556  0.00  0.00    +0.000 A 
ATOM      7  C   UNL     1       4.459   6.391  17.789  0.00  0.00    +0.000 A 
ATOM      8  C   UNL     1       3.089   6.562  18.019  0.00  0.00    +0.000 A 
ATOM      9  C   UNL     1       2.231   5.458  18.007  0.00  0.00    +0.000 A 
ATOM     10  C   UNL     1       2.750   4.182  17.773  0.00  0.00    +0.000 A 
BRANCH   5  11
ATOM     11  O   UNL     1       4.579   2.755  17.346  0.00  0.00    +0.000 OA
ATOM     12  H   UNL     1       3.957   2.288  16.763  0.00  0.00    +0.000 HD
ENDBRANCH   5  11
ENDBRANCH   3   8
ENDBRANCH   1   4
BRANCH   1  13
ATOM     13  C   UNL     1       0.846   9.856  18.997  0.00  0.00    +0.000 C 
BRANCH  13  14
ATOM     14  C   UNL     1      -0.505  10.509  18.787  0.00  0.00    +0.000 A 
ATOM     15  C   UNL     1      -1.038  11.354  19.768  0.00  0.00    +0.000 A 
ATOM     16  C   UNL     1      -2.291  11.944  19.600  0.00  0.00    +0.000 A 
ATOM     17  C   UNL     1      -3.034  11.692  18.447  0.00  0.00    +0.000 A 
ATOM     18  C   UNL     1      -2.522  10.859  17.440  0.00  0.00    +0.000 A 
ATOM     19  C   UNL     1      -1.247  10.287  17.614  0.00  0.00    +0.000 A 
BRANCH  18  20
ATOM     20  C   UNL     1      -3.328  10.561  16.200  0.00  0.00    +0.000 C 
ATOM     21  F   UNL     1      -4.663  10.800  16.347  0.00  0.00    +0.000 F 
ATOM     22  F   UNL     1      -2.936  11.301  15.126  0.00  0.00    +0.000 F 
ATOM     23  F   UNL     1      -3.226   9.258  15.816  0.00  0.00    +0.000 F 
ENDBRANCH  18  20
ENDBRANCH  13  14
ENDBRANCH   1  13
TORSDOF 6
ENDMDL
MODEL 6
REMARK VINA RESULT:      -7.2      5.695      6.398
REMARK  Name = 
REMARK  6 active torsions:
REMARK  status: ('A' for Active; 'I' for Inactive)
REMARK    1  A    between atoms: O_1  and  C_2
REMARK    2  A    between atoms: C_5  and  C_6
REMARK    3  A    between atoms: N_7  and  N_8
REMARK    4  A    between atoms: N_8  and  C_9
REMARK    5  A    between atoms: C_9  and  C_10
REMARK    6  A    between atoms: C_14  and  C_15
REMARK                            x       y       z     vdW  Elec       q    Type
REMARK                         _______ _______ _______ _____ _____    ______ ____
ROOT
ATOM      1  N   UNL     1       2.591   8.425  17.907  0.00  0.00    +0.000 N 
ATOM      2  H   UNL     1       3.251   9.109  18.286  0.00  0.00    +0.000 HD
ENDROOT
BRANCH   1   4
ATOM      3  C   UNL     1       0.863   9.652  18.589  0.00  0.00    +0.000 C 
ATOM      4  N   UNL     1       1.398   8.999  17.604  0.00  0.00    +0.000 NA
BRANCH   3   8
ATOM      5  C   UNL     1      -2.930  11.564  18.272  0.00  0.00    +0.000 A 
ATOM      6  C   UNL     1      -2.595  10.564  17.363  0.00  0.00    +0.000 A 
ATOM      7  C   UNL     1      -1.349   9.942  17.457  0.00  0.00    +0.000 A 
ATOM      8  C   UNL     1      -0.449  10.324  18.459  0.00  0.00    +0.000 A 
ATOM      9  C   UNL     1      -0.789  11.335  19.361  0.00  0.00    +0.000 A 
ATOM     10  C   UNL     1      -2.037  11.958  19.265  0.00  0.00    +0.000 A 
BRANCH   5  11
ATOM     11  O   UNL     1      -4.141  12.188  18.225  0.00  0.00    +0.000 OA
ATOM     12  H   UNL     1      -4.006  13.141  18.360  0.00  0.00    +0.000 HD
ENDBRANCH   5  11
ENDBRANCH   3   8
ENDBRANCH   1   4
BRANCH   1  13
ATOM     13  C   UNL     1       2.532   7.288  18.835  0.00  0.00    +0.000 C 
BRANCH  13  14
ATOM     14  C   UNL     1       2.904   5.985  18.158  0.00  0.00    +0.000 A 
ATOM     15  C   UNL     1       1.997   4.917  18.143  0.00  0.00    +0.000 A 
ATOM     16  C   UNL     1       2.334   3.702  17.544  0.00  0.00    +0.000 A 
ATOM     17  C   UNL     1       3.587   3.535  16.956  0.00  0.00    +0.000 A 
ATOM     18  C   UNL     1       4.512   4.590  16.945  0.00  0.00    +0.000 A 
ATOM     19  C   UNL     1       4.152   5.817  17.534  0.00  0.00    +0.000 A 
BRANCH  18  20
ATOM     20  C   UNL     1       5.880   4.412  16.333  0.00  0.00    +0.000 C 
ATOM     21  F   UNL     1       6.244   5.431  15.503  0.00  0.00    +0.000 F 
ATOM     22  F   UNL     1       6.868   4.325  17.267  0.00  0.00    +0.000 F 
ATOM     23  F   UNL     1       5.970   3.277  15.586  0.00  0.00    +0.000 F 
ENDBRANCH  18  20
ENDBRANCH  13  14
ENDBRANCH   1  13
TORSDOF 6
ENDMDL
MODEL 7
REMARK VINA RESULT:      -7.2      4.690      6.276
REMARK  Name = 
REMARK  6 active torsions:
REMARK  status: ('A' for Active; 'I' for Inactive)
REMARK    1  A    between atoms: O_1  and  C_2
REMARK    2  A    between atoms: C_5  and  C_6
REMARK    3  A    between atoms: N_7  and  N_8
REMARK    4  A    between atoms: N_8  and  C_9
REMARK    5  A    between atoms: C_9  and  C_10
REMARK    6  A    between atoms: C_14  and  C_15
REMARK                            x       y       z     vdW  Elec       q    Type
REMARK                         _______ _______ _______ _____ _____    ______ ____
ROOT
ATOM      1  N   UNL     1       5.278   5.742  17.378  0.00  0.00    +0.000 N 
ATOM      2  H   UNL     1       6.148   6.159  17.038  0.00  0.00    +0.000 HD
ENDROOT
BRANCH   1   4
ATOM      3  C   UNL     1       3.375   6.839  17.741  0.00  0.00    +0.000 C 
ATOM      4  N   UNL     1       4.581   6.610  18.158  0.00  0.00    +0.000 NA
BRANCH   3   8
ATOM      5  C   UNL     1       0.816   9.584  19.757  0.00  0.00    +0.000 A 
ATOM      6  C   UNL     1       1.299   8.475  20.445  0.00  0.00    +0.000 A 
ATOM      7  C   UNL     1       2.129   7.567  19.785  0.00  0.00    +0.000 A 
ATOM      8  C   UNL     1       2.471   7.777  18.444  0.00  0.00    +0.000 A 
ATOM      9  C   UNL     1       1.975   8.889  17.757  0.00  0.00    +0.000 A 
ATOM     10  C   UNL     1       1.143   9.796  18.420  0.00  0.00    +0.000 A 
BRANCH   5  11
ATOM     11  O   UNL     1       0.015  10.503  20.366  0.00  0.00    +0.000 OA
ATOM     12  H   UNL     1      -0.159  11.228  19.742  0.00  0.00    +0.000 HD
ENDBRANCH   5  11
ENDBRANCH   3   8
ENDBRANCH   1   4
BRANCH   1  13
ATOM     13  C   UNL     1       5.604   4.452  17.999  0.00  0.00    +0.000 C 
BRANCH  13  14
ATOM     14  C   UNL     1       4.360   3.654  18.335  0.00  0.00    +0.000 A 
ATOM     15  C   UNL     1       3.863   2.713  17.425  0.00  0.00    +0.000 A 
ATOM     16  C   UNL     1       2.705   1.987  17.709  0.00  0.00    +0.000 A 
ATOM     17  C   UNL     1       2.023   2.197  18.907  0.00  0.00    +0.000 A 
ATOM     18  C   UNL     1       2.504   3.125  19.844  0.00  0.00    +0.000 A 
ATOM     19  C   UNL     1       3.684   3.835  19.554  0.00  0.00    +0.000 A 
BRANCH  18  20
ATOM     20  C   UNL     1       1.761   3.377  21.132  0.00  0.00    +0.000 C 
ATOM     21  F   UNL     1       1.498   2.242  21.841  0.00  0.00    +0.000 F 
ATOM     22  F   UNL     1       2.442   4.194  21.983  0.00  0.00    +0.000 F 
ATOM     23  F   UNL     1       0.553   3.972  20.927  0.00  0.00    +0.000 F 
ENDBRANCH  18  20
ENDBRANCH  13  14
ENDBRANCH   1  13
TORSDOF 6
ENDMDL
MODEL 8
REMARK VINA RESULT:      -7.2      4.029      5.104
REMARK  Name = 
REMARK  6 active torsions:
REMARK  status: ('A' for Active; 'I' for Inactive)
REMARK    1  A    between atoms: O_1  and  C_2
REMARK    2  A    between atoms: C_5  and  C_6
REMARK    3  A    between atoms: N_7  and  N_8
REMARK    4  A    between atoms: N_8  and  C_9
REMARK    5  A    between atoms: C_9  and  C_10
REMARK    6  A    between atoms: C_14  and  C_15
REMARK                            x       y       z     vdW  Elec       q    Type
REMARK                         _______ _______ _______ _____ _____    ______ ____
ROOT
ATOM      1  N   UNL     1       2.327   3.856  20.314  0.00  0.00    +0.000 N 
ATOM      2  H   UNL     1       1.524   3.352  20.697  0.00  0.00    +0.000 HD
ENDROOT
BRANCH   1   4
ATOM      3  C   UNL     1       2.365   6.079  20.185  0.00  0.00    +0.000 C 
ATOM      4  N   UNL     1       1.941   4.976  19.649  0.00  0.00    +0.000 NA
BRANCH   3   8
ATOM      5  C   UNL     1       1.326   9.877  18.561  0.00  0.00    +0.000 A 
ATOM      6  C   UNL     1       2.034   8.972  17.774  0.00  0.00    +0.000 A 
ATOM      7  C   UNL     1       2.386   7.730  18.307  0.00  0.00    +0.000 A 
ATOM      8  C   UNL     1       2.025   7.403  19.618  0.00  0.00    +0.000 A 
ATOM      9  C   UNL     1       1.322   8.320  20.405  0.00  0.00    +0.000 A 
ATOM     10  C   UNL     1       0.972   9.564  19.870  0.00  0.00    +0.000 A 
BRANCH   5  11
ATOM     11  O   UNL     1       0.950  11.094  18.077  0.00  0.00    +0.000 OA
ATOM     12  H   UNL     1       0.113  11.353  18.499  0.00  0.00    +0.000 HD
ENDBRANCH   5  11
ENDBRANCH   3   8
ENDBRANCH   1   4
BRANCH   1  13
ATOM     13  C   UNL     1       3.136   2.905  19.540  0.00  0.00    +0.000 C 
BRANCH  13  14
ATOM     14  C   UNL     1       4.052   3.607  18.559  0.00  0.00    +0.000 A 
ATOM     15  C   UNL     1       3.683   3.724  17.214  0.00  0.00    +0.000 A 
ATOM     16  C   UNL     1       4.527   4.347  16.292  0.00  0.00    +0.000 A 
ATOM     17  C   UNL     1       5.757   4.858  16.704  0.00  0.00    +0.000 A 
ATOM     18  C   UNL     1       6.149   4.766  18.049  0.00  0.00    +0.000 A 
ATOM     19  C   UNL     1       5.280   4.155  18.971  0.00  0.00    +0.000 A 
BRANCH  18  20
ATOM     20  C   UNL     1       7.489   5.294  18.499  0.00  0.00    +0.000 C 
ATOM     21  F   UNL     1       7.529   5.622  19.822  0.00  0.00    +0.000 F 
ATOM     22  F   UNL     1       8.499   4.399  18.310  0.00  0.00    +0.000 F 
ATOM     23  F   UNL     1       7.856   6.421  17.828  0.00  0.00    +0.000 F 
ENDBRANCH  18  20
ENDBRANCH  13  14
ENDBRANCH   1  13
TORSDOF 6
ENDMDL
MODEL 9
REMARK VINA RESULT:      -7.2      4.644      6.356
REMARK  Name = 
REMARK  6 active torsions:
REMARK  status: ('A' for Active; 'I' for Inactive)
REMARK    1  A    between atoms: O_1  and  C_2
REMARK    2  A    between atoms: C_5  and  C_6
REMARK    3  A    between atoms: N_7  and  N_8
REMARK    4  A    between atoms: N_8  and  C_9
REMARK    5  A    between atoms: C_9  and  C_10
REMARK    6  A    between atoms: C_14  and  C_15
REMARK                            x       y       z     vdW  Elec       q    Type
REMARK                         _______ _______ _______ _____ _____    ______ ____
ROOT
ATOM      1  N   UNL     1       5.221   5.392  17.475  0.00  0.00    +0.000 N 
ATOM      2  H   UNL     1       6.205   5.461  17.744  0.00  0.00    +0.000 HD
ENDROOT
BRANCH   1   4
ATOM      3  C   UNL     1       3.559   6.860  17.673  0.00  0.00    +0.000 C 
ATOM      4  N   UNL     1       4.427   6.125  18.297  0.00  0.00    +0.000 NA
BRANCH   3   8
ATOM      5  C   UNL     1       0.907   9.463  19.754  0.00  0.00    +0.000 A 
ATOM      6  C   UNL     1       1.389   8.327  20.399  0.00  0.00    +0.000 A 
ATOM      7  C   UNL     1       2.250   7.466  19.716  0.00  0.00    +0.000 A 
ATOM      8  C   UNL     1       2.623   7.748  18.398  0.00  0.00    +0.000 A 
ATOM      9  C   UNL     1       2.127   8.886  17.755  0.00  0.00    +0.000 A 
ATOM     10  C   UNL     1       1.264   9.746  18.439  0.00  0.00    +0.000 A 
BRANCH   5  11
ATOM     11  O   UNL     1       0.075  10.339  20.387  0.00  0.00    +0.000 OA
ATOM     12  H   UNL     1      -0.051  10.041  21.304  0.00  0.00    +0.000 HD
ENDBRANCH   5  11
ENDBRANCH   3   8
ENDBRANCH   1   4
BRANCH   1  13
ATOM     13  C   UNL     1       4.879   3.968  17.364  0.00  0.00    +0.000 C 
BRANCH  13  14
ATOM     14  C   UNL     1       3.567   3.646  18.050  0.00  0.00    +0.000 A 
ATOM     15  C   UNL     1       2.382   3.581  17.306  0.00  0.00    +0.000 A 
ATOM     16  C   UNL     1       1.162   3.308  17.926  0.00  0.00    +0.000 A 
ATOM     17  C   UNL     1       1.108   3.103  19.304  0.00  0.00    +0.000 A 
ATOM     18  C   UNL     1       2.280   3.150  20.075  0.00  0.00    +0.000 A 
ATOM     19  C   UNL     1       3.507   3.405  19.433  0.00  0.00    +0.000 A 
BRANCH  18  20
ATOM     20  C   UNL     1       2.229   2.953  21.570  0.00  0.00    +0.000 C 
ATOM     21  F   UNL     1       2.406   4.105  22.279  0.00  0.00    +0.000 F 
ATOM     22  F   UNL     1       1.041   2.438  21.994  0.00  0.00    +0.000 F 
ATOM     23  F   UNL     1       3.189   2.095  22.014  0.00  0.00    +0.000 F 
ENDBRANCH  18  20
ENDBRANCH  13  14
ENDBRANCH   1  13
TORSDOF 6
ENDMDL
