MODEL 1
REMARK VINA RESULT:      -8.0      0.000      0.000
REMARK  Name = 
REMARK  7 active torsions:
REMARK  status: ('A' for Active; 'I' for Inactive)
REMARK    1  A    between atoms: C_2  and  C_4
REMARK    2  A    between atoms: C_7  and  C_8
REMARK    3  A    between atoms: C_8  and  O_9
REMARK    4  A    between atoms: O_9  and  C_10
REMARK    5  A    between atoms: N_17  and  C_18
REMARK    6  A    between atoms: C_18  and  C_19
REMARK    7  A    between atoms: C_19  and  O_21
REMARK                            x       y       z     vdW  Elec       q    Type
REMARK                         _______ _______ _______ _____ _____    ______ ____
ROOT
ATOM      1  C   UNL     1       4.133   6.288  17.822  0.00  0.00    +0.000 A 
ATOM      2  C   UNL     1       5.434   5.871  18.159  0.00  0.00    +0.000 A 
ATOM      3  C   UNL     1       5.674   4.535  18.506  0.00  0.00    +0.000 A 
ATOM      4  C   UNL     1       4.610   3.664  18.387  0.00  0.00    +0.000 A 
ATOM      5  C   UNL     1       3.448   4.016  17.704  0.00  0.00    +0.000 A 
ATOM      6  C   UNL     1       3.151   5.348  17.498  0.00  0.00    +0.000 A 
ATOM      7  C   UNL     1       2.533   2.851  17.683  0.00  0.00    +0.000 C 
ATOM      8  N   UNL     1       2.845   2.301  18.981  0.00  0.00    +0.000 N 
ATOM      9  C   UNL     1       4.163   2.598  19.351  0.00  0.00    +0.000 C 
ATOM     10  O   UNL     1       4.742   2.275  20.358  0.00  0.00    +0.000 OA
ENDROOT
BRANCH   1  11
ATOM     11  O   UNL     1       3.875   7.632  17.917  0.00  0.00    +0.000 OA
BRANCH  11  12
ATOM     12  C   UNL     1       2.506   7.974  17.626  0.00  0.00    +0.000 C 
BRANCH  12  16
ATOM     13  C   UNL     1       0.664   9.587  21.187  0.00  0.00    +0.000 A 
ATOM     14  C   UNL     1       0.613  10.299  19.985  0.00  0.00    +0.000 A 
ATOM     15  C   UNL     1       1.209   9.778  18.835  0.00  0.00    +0.000 A 
ATOM     16  C   UNL     1       1.847   8.529  18.867  0.00  0.00    +0.000 A 
ATOM     17  C   UNL     1       1.872   7.808  20.072  0.00  0.00    +0.000 A 
ATOM     18  C   UNL     1       1.284   8.334  21.227  0.00  0.00    +0.000 A 
BRANCH  13  20
ATOM     19  N   UNL     1       0.323   9.632  23.569  0.00  0.00    +0.000 NA
ATOM     20  C   UNL     1       0.071  10.172  22.422  0.00  0.00    +0.000 C 
ATOM     21  N   UNL     1      -0.756  11.256  22.337  0.00  0.00    +0.000 N 
ATOM     22  H   UNL     1      -0.128  10.170  24.311  0.00  0.00    +0.000 HD
ATOM     23  H   UNL     1      -1.370  11.398  23.129  0.00  0.00    +0.000 HD
ATOM     24  H   UNL     1      -1.258  11.346  21.460  0.00  0.00    +0.000 HD
ENDBRANCH  13  20
ENDBRANCH  12  16
ENDBRANCH  11  12
ENDBRANCH   1  11
BRANCH   8  25
ATOM     25  C   UNL     1       1.758   1.814  19.837  0.00  0.00    +0.000 C 
BRANCH  25  26
ATOM     26  C   UNL     1       1.366   2.834  20.934  0.00  0.00    +0.000 C 
ATOM     27  O   UNL     1       1.728   2.749  22.097  0.00  0.00    +0.000 OA
BRANCH  26  28
ATOM     28  O   UNL     1       0.623   3.872  20.491  0.00  0.00    +0.000 OA
ATOM     29  H   UNL     1       1.186   4.582  20.120  0.00  0.00    +0.000 HD
ENDBRANCH  26  28
ENDBRANCH  25  26
ENDBRANCH   8  25
TORSDOF 7
ENDMDL
MODEL 2
REMARK VINA RESULT:      -8.0      0.285      1.325
REMARK  Name = 
REMARK  7 active torsions:
REMARK  status: ('A' for Active; 'I' for Inactive)
REMARK    1  A    between atoms: C_2  and  C_4
REMARK    2  A    between atoms: C_7  and  C_8
REMARK    3  A    between atoms: C_8  and  O_9
REMARK    4  A    between atoms: O_9  and  C_10
REMARK    5  A    between atoms: N_17  and  C_18
REMARK    6  A    between atoms: C_18  and  C_19
REMARK    7  A    between atoms: C_19  and  O_21
REMARK                            x       y       z     vdW  Elec       q    Type
REMARK                         _______ _______ _______ _____ _____    ______ ____
ROOT
ATOM      1  C   UNL     1       3.993   6.405  17.791  0.00  0.00    +0.000 A 
ATOM      2  C   UNL     1       5.320   5.985  18.001  0.00  0.00    +0.000 A 
ATOM      3  C   UNL     1       5.591   4.640  18.288  0.00  0.00    +0.000 A 
ATOM      4  C   UNL     1       4.521   3.769  18.240  0.00  0.00    +0.000 A 
ATOM      5  C   UNL     1       3.303   4.135  17.672  0.00  0.00    +0.000 A 
ATOM      6  C   UNL     1       2.988   5.471  17.530  0.00  0.00    +0.000 A 
ATOM      7  C   UNL     1       2.392   2.967  17.700  0.00  0.00    +0.000 C 
ATOM      8  N   UNL     1       2.819   2.383  18.950  0.00  0.00    +0.000 N 
ATOM      9  C   UNL     1       4.164   2.675  19.210  0.00  0.00    +0.000 C 
ATOM     10  O   UNL     1       4.830   2.328  20.153  0.00  0.00    +0.000 OA
ENDROOT
BRANCH   1  11
ATOM     11  O   UNL     1       3.742   7.746  17.945  0.00  0.00    +0.000 OA
BRANCH  11  12
ATOM     12  C   UNL     1       2.371   8.105  17.688  0.00  0.00    +0.000 C 
BRANCH  12  16
ATOM     13  C   UNL     1       0.538   9.654  21.280  0.00  0.00    +0.000 A 
ATOM     14  C   UNL     1       1.183   8.414  21.299  0.00  0.00    +0.000 A 
ATOM     15  C   UNL     1       1.775   7.914  20.138  0.00  0.00    +0.000 A 
ATOM     16  C   UNL     1       1.745   8.655  18.948  0.00  0.00    +0.000 A 
ATOM     17  C   UNL     1       1.117   9.911  18.943  0.00  0.00    +0.000 A 
ATOM     18  C   UNL     1       0.516  10.409  20.103  0.00  0.00    +0.000 A 
BRANCH  13  20
ATOM     19  N   UNL     1      -0.340  11.428  22.651  0.00  0.00    +0.000 NA
ATOM     20  C   UNL     1      -0.136  10.159  22.510  0.00  0.00    +0.000 C 
ATOM     21  N   UNL     1      -0.509   9.287  23.492  0.00  0.00    +0.000 N 
ATOM     22  H   UNL     1      -0.839  11.602  23.525  0.00  0.00    +0.000 HD
ATOM     23  H   UNL     1      -0.648   9.697  24.408  0.00  0.00    +0.000 HD
ATOM     24  H   UNL     1       0.045   8.439  23.548  0.00  0.00    +0.000 HD
ENDBRANCH  13  20
ENDBRANCH  12  16
ENDBRANCH  11  12
ENDBRANCH   1  11
BRANCH   8  25
ATOM     25  C   UNL     1       1.812   1.869  19.885  0.00  0.00    +0.000 C 
BRANCH  25  26
ATOM     26  C   UNL     1       1.387   2.923  20.936  0.00  0.00    +0.000 C 
ATOM     27  O   UNL     1       0.886   4.001  20.650  0.00  0.00    +0.000 OA
BRANCH  26  28
ATOM     28  O   UNL     1       1.563   2.536  22.219  0.00  0.00    +0.000 OA
ATOM     29  H   UNL     1       1.844   3.284  22.783  0.00  0.00    +0.000 HD
ENDBRANCH  26  28
ENDBRANCH  25  26
ENDBRANCH   8  25
TORSDOF 7
ENDMDL
MODEL 3
REMARK VINA RESULT:      -7.7      6.158      7.137
REMARK  Name = 
REMARK  7 active torsions:
REMARK  status: ('A' for Active; 'I' for Inactive)
REMARK    1  A    between atoms: C_2  and  C_4
REMARK    2  A    between atoms: C_7  and  C_8
REMARK    3  A    between atoms: C_8  and  O_9
REMARK    4  A    between atoms: O_9  and  C_10
REMARK    5  A    between atoms: N_17  and  C_18
REMARK    6  A    between atoms: C_18  and  C_19
REMARK    7  A    between atoms: C_19  and  O_21
REMARK                            x       y       z     vdW  Elec       q    Type
REMARK                         _______ _______ _______ _____ _____    ______ ____
ROOT
ATOM      1  C   UNL     1       7.531   7.776  17.719  0.00  0.00    +0.000 A 
ATOM      2  C   UNL     1       8.247   6.947  18.602  0.00  0.00    +0.000 A 
ATOM      3  C   UNL     1       7.796   5.645  18.861  0.00  0.00    +0.000 A 
ATOM      4  C   UNL     1       6.709   5.210  18.131  0.00  0.00    +0.000 A 
ATOM      5  C   UNL     1       6.254   5.903  17.011  0.00  0.00    +0.000 A 
ATOM      6  C   UNL     1       6.588   7.231  16.845  0.00  0.00    +0.000 A 
ATOM      7  C   UNL     1       5.133   5.147  16.404  0.00  0.00    +0.000 C 
ATOM      8  N   UNL     1       4.539   4.625  17.611  0.00  0.00    +0.000 N 
ATOM      9  C   UNL     1       5.501   4.455  18.615  0.00  0.00    +0.000 C 
ATOM     10  O   UNL     1       5.342   4.026  19.730  0.00  0.00    +0.000 OA
ENDROOT
BRANCH   1  11
ATOM     11  O   UNL     1       7.748   9.127  17.833  0.00  0.00    +0.000 OA
BRANCH  11  12
ATOM     12  C   UNL     1       8.815   9.461  18.741  0.00  0.00    +0.000 C 
BRANCH  12  16
ATOM     13  C   UNL     1      10.278  13.423  17.832  0.00  0.00    +0.000 A 
ATOM     14  C   UNL     1       8.952  13.082  17.550  0.00  0.00    +0.000 A 
ATOM     15  C   UNL     1       8.480  11.801  17.844  0.00  0.00    +0.000 A 
ATOM     16  C   UNL     1       9.322  10.852  18.439  0.00  0.00    +0.000 A 
ATOM     17  C   UNL     1      10.646  11.210  18.742  0.00  0.00    +0.000 A 
ATOM     18  C   UNL     1      11.123  12.489  18.440  0.00  0.00    +0.000 A 
BRANCH  13  20
ATOM     19  N   UNL     1      10.795  15.715  18.356  0.00  0.00    +0.000 NA
ATOM     20  C   UNL     1      10.789  14.776  17.468  0.00  0.00    +0.000 C 
ATOM     21  N   UNL     1      11.223  15.024  16.198  0.00  0.00    +0.000 N 
ATOM     22  H   UNL     1      11.204  16.563  17.960  0.00  0.00    +0.000 HD
ATOM     23  H   UNL     1      11.240  16.000  15.928  0.00  0.00    +0.000 HD
ATOM     24  H   UNL     1      10.797  14.450  15.478  0.00  0.00    +0.000 HD
ENDBRANCH  13  20
ENDBRANCH  12  16
ENDBRANCH  11  12
ENDBRANCH   1  11
BRANCH   8  25
ATOM     25  C   UNL     1       3.079   4.631  17.755  0.00  0.00    +0.000 C 
BRANCH  25  26
ATOM     26  C   UNL     1       2.510   3.230  18.087  0.00  0.00    +0.000 C 
ATOM     27  O   UNL     1       2.183   2.414  17.239  0.00  0.00    +0.000 OA
BRANCH  26  28
ATOM     28  O   UNL     1       2.451   2.949  19.408  0.00  0.00    +0.000 OA
ATOM     29  H   UNL     1       3.240   2.452  19.703  0.00  0.00    +0.000 HD
ENDBRANCH  26  28
ENDBRANCH  25  26
ENDBRANCH   8  25
TORSDOF 7
ENDMDL
MODEL 4
REMARK VINA RESULT:      -7.7      6.286      7.361
REMARK  Name = 
REMARK  7 active torsions:
REMARK  status: ('A' for Active; 'I' for Inactive)
REMARK    1  A    between atoms: C_2  and  C_4
REMARK    2  A    between atoms: C_7  and  C_8
REMARK    3  A    between atoms: C_8  and  O_9
REMARK    4  A    between atoms: O_9  and  C_10
REMARK    5  A    between atoms: N_17  and  C_18
REMARK    6  A    between atoms: C_18  and  C_19
REMARK    7  A    between atoms: C_19  and  O_21
REMARK                            x       y       z     vdW  Elec       q    Type
REMARK                         _______ _______ _______ _____ _____    ______ ____
ROOT
ATOM      1  C   UNL     1       7.492   7.942  17.705  0.00  0.00    +0.000 A 
ATOM      2  C   UNL     1       8.255   7.082  18.517  0.00  0.00    +0.000 A 
ATOM      3  C   UNL     1       7.761   5.812  18.848  0.00  0.00    +0.000 A 
ATOM      4  C   UNL     1       6.575   5.434  18.253  0.00  0.00    +0.000 A 
ATOM      5  C   UNL     1       6.037   6.139  17.179  0.00  0.00    +0.000 A 
ATOM      6  C   UNL     1       6.425   7.443  16.953  0.00  0.00    +0.000 A 
ATOM      7  C   UNL     1       4.813   5.445  16.716  0.00  0.00    +0.000 C 
ATOM      8  N   UNL     1       4.330   4.972  17.992  0.00  0.00    +0.000 N 
ATOM      9  C   UNL     1       5.388   4.758  18.884  0.00  0.00    +0.000 C 
ATOM     10  O   UNL     1       5.332   4.351  20.018  0.00  0.00    +0.000 OA
ENDROOT
BRANCH   1  11
ATOM     11  O   UNL     1       7.798   9.278  17.769  0.00  0.00    +0.000 OA
BRANCH  11  12
ATOM     12  C   UNL     1       8.840   9.583  18.716  0.00  0.00    +0.000 C 
BRANCH  12  16
ATOM     13  C   UNL     1      10.633  13.377  17.686  0.00  0.00    +0.000 A 
ATOM     14  C   UNL     1       9.257  13.185  17.533  0.00  0.00    +0.000 A 
ATOM     15  C   UNL     1       8.678  11.959  17.865  0.00  0.00    +0.000 A 
ATOM     16  C   UNL     1       9.465  10.915  18.373  0.00  0.00    +0.000 A 
ATOM     17  C   UNL     1      10.842  11.123  18.547  0.00  0.00    +0.000 A 
ATOM     18  C   UNL     1      11.425  12.347  18.206  0.00  0.00    +0.000 A 
BRANCH  13  20
ATOM     19  N   UNL     1      12.042  15.284  18.101  0.00  0.00    +0.000 NA
ATOM     20  C   UNL     1      11.252  14.671  17.282  0.00  0.00    +0.000 C 
ATOM     21  N   UNL     1      10.962  15.216  16.063  0.00  0.00    +0.000 N 
ATOM     22  H   UNL     1      12.405  16.132  17.661  0.00  0.00    +0.000 HD
ATOM     23  H   UNL     1      11.133  16.211  15.981  0.00  0.00    +0.000 HD
ATOM     24  H   UNL     1      10.055  14.965  15.684  0.00  0.00    +0.000 HD
ENDBRANCH  13  20
ENDBRANCH  12  16
ENDBRANCH  11  12
ENDBRANCH   1  11
BRANCH   8  25
ATOM     25  C   UNL     1       2.899   5.067  18.299  0.00  0.00    +0.000 C 
BRANCH  25  26
ATOM     26  C   UNL     1       2.580   6.213  19.290  0.00  0.00    +0.000 C 
ATOM     27  O   UNL     1       2.295   7.349  18.941  0.00  0.00    +0.000 OA
BRANCH  26  28
ATOM     28  O   UNL     1       2.585   5.846  20.590  0.00  0.00    +0.000 OA
ATOM     29  H   UNL     1       1.746   5.410  20.843  0.00  0.00    +0.000 HD
ENDBRANCH  26  28
ENDBRANCH  25  26
ENDBRANCH   8  25
TORSDOF 7
ENDMDL
MODEL 5
REMARK VINA RESULT:      -7.6      6.190      7.245
REMARK  Name = 
REMARK  7 active torsions:
REMARK  status: ('A' for Active; 'I' for Inactive)
REMARK    1  A    between atoms: C_2  and  C_4
REMARK    2  A    between atoms: C_7  and  C_8
REMARK    3  A    between atoms: C_8  and  O_9
REMARK    4  A    between atoms: O_9  and  C_10
REMARK    5  A    between atoms: N_17  and  C_18
REMARK    6  A    between atoms: C_18  and  C_19
REMARK    7  A    between atoms: C_19  and  O_21
REMARK                            x       y       z     vdW  Elec       q    Type
REMARK                         _______ _______ _______ _____ _____    ______ ____
ROOT
ATOM      1  C   UNL     1       7.409   7.928  17.700  0.00  0.00    +0.000 A 
ATOM      2  C   UNL     1       8.217   7.070  18.469  0.00  0.00    +0.000 A 
ATOM      3  C   UNL     1       7.760   5.787  18.799  0.00  0.00    +0.000 A 
ATOM      4  C   UNL     1       6.559   5.395  18.243  0.00  0.00    +0.000 A 
ATOM      5  C   UNL     1       5.968   6.107  17.201  0.00  0.00    +0.000 A 
ATOM      6  C   UNL     1       6.324   7.421  16.981  0.00  0.00    +0.000 A 
ATOM      7  C   UNL     1       4.740   5.396  16.774  0.00  0.00    +0.000 C 
ATOM      8  N   UNL     1       4.314   4.896  18.059  0.00  0.00    +0.000 N 
ATOM      9  C   UNL     1       5.409   4.688  18.908  0.00  0.00    +0.000 C 
ATOM     10  O   UNL     1       5.404   4.263  20.036  0.00  0.00    +0.000 OA
ENDROOT
BRANCH   1  11
ATOM     11  O   UNL     1       7.693   9.269  17.773  0.00  0.00    +0.000 OA
BRANCH  11  12
ATOM     12  C   UNL     1       8.848   9.566  18.580  0.00  0.00    +0.000 C 
BRANCH  12  16
ATOM     13  C   UNL     1      10.310  13.529  17.669  0.00  0.00    +0.000 A 
ATOM     14  C   UNL     1      11.206  12.507  17.994  0.00  0.00    +0.000 A 
ATOM     15  C   UNL     1      10.733  11.227  18.289  0.00  0.00    +0.000 A 
ATOM     16  C   UNL     1       9.360  10.947  18.245  0.00  0.00    +0.000 A 
ATOM     17  C   UNL     1       8.468  11.973  17.893  0.00  0.00    +0.000 A 
ATOM     18  C   UNL     1       8.939  13.258  17.607  0.00  0.00    +0.000 A 
BRANCH  13  20
ATOM     19  N   UNL     1      10.887  15.756  18.377  0.00  0.00    +0.000 NA
ATOM     20  C   UNL     1      10.817  14.905  17.406  0.00  0.00    +0.000 C 
ATOM     21  N   UNL     1      11.179  15.271  16.141  0.00  0.00    +0.000 N 
ATOM     22  H   UNL     1      11.285  16.634  18.039  0.00  0.00    +0.000 HD
ATOM     23  H   UNL     1      11.195  16.268  15.964  0.00  0.00    +0.000 HD
ATOM     24  H   UNL     1      10.704  14.771  15.396  0.00  0.00    +0.000 HD
ENDBRANCH  13  20
ENDBRANCH  12  16
ENDBRANCH  11  12
ENDBRANCH   1  11
BRANCH   8  25
ATOM     25  C   UNL     1       2.894   4.959  18.422  0.00  0.00    +0.000 C 
BRANCH  25  26
ATOM     26  C   UNL     1       2.604   6.037  19.494  0.00  0.00    +0.000 C 
ATOM     27  O   UNL     1       2.344   7.201  19.231  0.00  0.00    +0.000 OA
BRANCH  26  28
ATOM     28  O   UNL     1       2.605   5.576  20.765  0.00  0.00    +0.000 OA
ATOM     29  H   UNL     1       3.457   5.148  20.989  0.00  0.00    +0.000 HD
ENDBRANCH  26  28
ENDBRANCH  25  26
ENDBRANCH   8  25
TORSDOF 7
ENDMDL
MODEL 6
REMARK VINA RESULT:      -7.5      3.365      8.486
REMARK  Name = 
REMARK  7 active torsions:
REMARK  status: ('A' for Active; 'I' for Inactive)
REMARK    1  A    between atoms: C_2  and  C_4
REMARK    2  A    between atoms: C_7  and  C_8
REMARK    3  A    between atoms: C_8  and  O_9
REMARK    4  A    between atoms: O_9  and  C_10
REMARK    5  A    between atoms: N_17  and  C_18
REMARK    6  A    between atoms: C_18  and  C_19
REMARK    7  A    between atoms: C_19  and  O_21
REMARK                            x       y       z     vdW  Elec       q    Type
REMARK                         _______ _______ _______ _____ _____    ______ ____
ROOT
ATOM      1  C   UNL     1       1.898   8.043  19.622  0.00  0.00    +0.000 A 
ATOM      2  C   UNL     1       1.501   8.081  20.972  0.00  0.00    +0.000 A 
ATOM      3  C   UNL     1       0.753   9.165  21.450  0.00  0.00    +0.000 A 
ATOM      4  C   UNL     1       0.350  10.100  20.518  0.00  0.00    +0.000 A 
ATOM      5  C   UNL     1       0.433   9.852  19.150  0.00  0.00    +0.000 A 
ATOM      6  C   UNL     1       1.288   8.876  18.681  0.00  0.00    +0.000 A 
ATOM      7  C   UNL     1      -0.146  11.004  18.419  0.00  0.00    +0.000 C 
ATOM      8  N   UNL     1       0.272  12.062  19.308  0.00  0.00    +0.000 N 
ATOM      9  C   UNL     1       0.384  11.600  20.626  0.00  0.00    +0.000 C 
ATOM     10  O   UNL     1       0.692  12.227  21.608  0.00  0.00    +0.000 OA
ENDROOT
BRANCH   1  11
ATOM     11  O   UNL     1       2.956   7.224  19.316  0.00  0.00    +0.000 OA
BRANCH  11  12
ATOM     12  C   UNL     1       2.566   6.016  18.634  0.00  0.00    +0.000 C 
BRANCH  12  16
ATOM     13  C   UNL     1       5.532   4.974  15.669  0.00  0.00    +0.000 A 
ATOM     14  C   UNL     1       5.321   6.313  16.012  0.00  0.00    +0.000 A 
ATOM     15  C   UNL     1       4.362   6.649  16.970  0.00  0.00    +0.000 A 
ATOM     16  C   UNL     1       3.615   5.650  17.610  0.00  0.00    +0.000 A 
ATOM     17  C   UNL     1       3.850   4.306  17.279  0.00  0.00    +0.000 A 
ATOM     18  C   UNL     1       4.803   3.968  16.313  0.00  0.00    +0.000 A 
BRANCH  13  20
ATOM     19  N   UNL     1       6.328   3.579  13.877  0.00  0.00    +0.000 NA
ATOM     20  C   UNL     1       6.520   4.626  14.610  0.00  0.00    +0.000 C 
ATOM     21  N   UNL     1       7.635   5.396  14.435  0.00  0.00    +0.000 N 
ATOM     22  H   UNL     1       7.073   3.502  13.182  0.00  0.00    +0.000 HD
ATOM     23  H   UNL     1       8.403   4.945  13.954  0.00  0.00    +0.000 HD
ATOM     24  H   UNL     1       7.955   5.884  15.264  0.00  0.00    +0.000 HD
ENDBRANCH  13  20
ENDBRANCH  12  16
ENDBRANCH  11  12
ENDBRANCH   1  11
BRANCH   8  25
ATOM     25  C   UNL     1       0.799  13.310  18.744  0.00  0.00    +0.000 C 
BRANCH  25  26
ATOM     26  C   UNL     1       2.316  13.231  18.446  0.00  0.00    +0.000 C 
ATOM     27  O   UNL     1       3.173  13.726  19.162  0.00  0.00    +0.000 OA
BRANCH  26  28
ATOM     28  O   UNL     1       2.633  12.515  17.344  0.00  0.00    +0.000 OA
ATOM     29  H   UNL     1       2.527  13.048  16.529  0.00  0.00    +0.000 HD
ENDBRANCH  26  28
ENDBRANCH  25  26
ENDBRANCH   8  25
TORSDOF 7
ENDMDL
MODEL 7
REMARK VINA RESULT:      -7.5      3.632      7.157
REMARK  Name = 
REMARK  7 active torsions:
REMARK  status: ('A' for Active; 'I' for Inactive)
REMARK    1  A    between atoms: C_2  and  C_4
REMARK    2  A    between atoms: C_7  and  C_8
REMARK    3  A    between atoms: C_8  and  O_9
REMARK    4  A    between atoms: O_9  and  C_10
REMARK    5  A    between atoms: N_17  and  C_18
REMARK    6  A    between atoms: C_18  and  C_19
REMARK    7  A    between atoms: C_19  and  O_21
REMARK                            x       y       z     vdW  Elec       q    Type
REMARK                         _______ _______ _______ _____ _____    ______ ____
ROOT
ATOM      1  C   UNL     1       5.066   6.658  18.046  0.00  0.00    +0.000 A 
ATOM      2  C   UNL     1       3.973   7.226  17.367  0.00  0.00    +0.000 A 
ATOM      3  C   UNL     1       2.685   6.704  17.551  0.00  0.00    +0.000 A 
ATOM      4  C   UNL     1       2.551   5.706  18.495  0.00  0.00    +0.000 A 
ATOM      5  C   UNL     1       3.563   5.422  19.410  0.00  0.00    +0.000 A 
ATOM      6  C   UNL     1       4.857   5.817  19.143  0.00  0.00    +0.000 A 
ATOM      7  C   UNL     1       3.089   4.365  20.334  0.00  0.00    +0.000 C 
ATOM      8  N   UNL     1       2.287   3.603  19.406  0.00  0.00    +0.000 N 
ATOM      9  C   UNL     1       1.774   4.422  18.392  0.00  0.00    +0.000 C 
ATOM     10  O   UNL     1       1.057   4.107  17.476  0.00  0.00    +0.000 OA
ENDROOT
BRANCH   1  11
ATOM     11  O   UNL     1       6.310   6.902  17.521  0.00  0.00    +0.000 OA
BRANCH  11  12
ATOM     12  C   UNL     1       7.116   5.716  17.383  0.00  0.00    +0.000 C 
BRANCH  12  16
ATOM     13  C   UNL     1       6.148   3.789  13.639  0.00  0.00    +0.000 A 
ATOM     14  C   UNL     1       7.165   4.746  13.694  0.00  0.00    +0.000 A 
ATOM     15  C   UNL     1       7.477   5.369  14.904  0.00  0.00    +0.000 A 
ATOM     16  C   UNL     1       6.789   5.029  16.078  0.00  0.00    +0.000 A 
ATOM     17  C   UNL     1       5.786   4.048  16.020  0.00  0.00    +0.000 A 
ATOM     18  C   UNL     1       5.466   3.431  14.807  0.00  0.00    +0.000 A 
BRANCH  13  20
ATOM     19  N   UNL     1       6.628   2.379  11.748  0.00  0.00    +0.000 NA
ATOM     20  C   UNL     1       5.786   3.165  12.335  0.00  0.00    +0.000 C 
ATOM     21  N   UNL     1       4.583   3.447  11.753  0.00  0.00    +0.000 N 
ATOM     22  H   UNL     1       6.216   2.012  10.888  0.00  0.00    +0.000 HD
ATOM     23  H   UNL     1       4.531   3.274  10.756  0.00  0.00    +0.000 HD
ATOM     24  H   UNL     1       4.191   4.352  11.991  0.00  0.00    +0.000 HD
ENDBRANCH  13  20
ENDBRANCH  12  16
ENDBRANCH  11  12
ENDBRANCH   1  11
BRANCH   8  25
ATOM     25  C   UNL     1       2.352   2.138  19.434  0.00  0.00    +0.000 C 
BRANCH  25  26
ATOM     26  C   UNL     1       3.588   1.585  18.685  0.00  0.00    +0.000 C 
ATOM     27  O   UNL     1       3.626   1.412  17.476  0.00  0.00    +0.000 OA
BRANCH  26  28
ATOM     28  O   UNL     1       4.662   1.353  19.472  0.00  0.00    +0.000 OA
ATOM     29  H   UNL     1       4.622   1.881  20.295  0.00  0.00    +0.000 HD
ENDBRANCH  26  28
ENDBRANCH  25  26
ENDBRANCH   8  25
TORSDOF 7
ENDMDL
MODEL 8
REMARK VINA RESULT:      -7.5      5.095      6.027
REMARK  Name = 
REMARK  7 active torsions:
REMARK  status: ('A' for Active; 'I' for Inactive)
REMARK    1  A    between atoms: C_2  and  C_4
REMARK    2  A    between atoms: C_7  and  C_8
REMARK    3  A    between atoms: C_8  and  O_9
REMARK    4  A    between atoms: O_9  and  C_10
REMARK    5  A    between atoms: N_17  and  C_18
REMARK    6  A    between atoms: C_18  and  C_19
REMARK    7  A    between atoms: C_19  and  O_21
REMARK                            x       y       z     vdW  Elec       q    Type
REMARK                         _______ _______ _______ _____ _____    ______ ____
ROOT
ATOM      1  C   UNL     1       6.428   6.939  17.128  0.00  0.00    +0.000 A 
ATOM      2  C   UNL     1       7.139   5.731  17.013  0.00  0.00    +0.000 A 
ATOM      3  C   UNL     1       6.548   4.529  17.424  0.00  0.00    +0.000 A 
ATOM      4  C   UNL     1       5.229   4.593  17.826  0.00  0.00    +0.000 A 
ATOM      5  C   UNL     1       4.442   5.716  17.580  0.00  0.00    +0.000 A 
ATOM      6  C   UNL     1       5.044   6.930  17.321  0.00  0.00    +0.000 A 
ATOM      7  C   UNL     1       3.065   5.448  18.056  0.00  0.00    +0.000 C 
ATOM      8  N   UNL     1       3.382   4.638  19.208  0.00  0.00    +0.000 N 
ATOM      9  C   UNL     1       4.585   3.943  19.020  0.00  0.00    +0.000 C 
ATOM     10  O   UNL     1       5.122   3.172  19.776  0.00  0.00    +0.000 OA
ENDROOT
BRANCH   1  11
ATOM     11  O   UNL     1       7.172   8.093  17.129  0.00  0.00    +0.000 OA
BRANCH  11  12
ATOM     12  C   UNL     1       8.160   8.135  18.177  0.00  0.00    +0.000 C 
BRANCH  12  16
ATOM     13  C   UNL     1       9.431  12.215  18.817  0.00  0.00    +0.000 A 
ATOM     14  C   UNL     1       8.603  11.899  17.736  0.00  0.00    +0.000 A 
ATOM     15  C   UNL     1       8.193  10.580  17.529  0.00  0.00    +0.000 A 
ATOM     16  C   UNL     1       8.590   9.564  18.411  0.00  0.00    +0.000 A 
ATOM     17  C   UNL     1       9.401   9.894  19.509  0.00  0.00    +0.000 A 
ATOM     18  C   UNL     1       9.820  11.213  19.712  0.00  0.00    +0.000 A 
BRANCH  13  20
ATOM     19  N   UNL     1      10.498  14.222  18.026  0.00  0.00    +0.000 NA
ATOM     20  C   UNL     1       9.906  13.615  19.003  0.00  0.00    +0.000 C 
ATOM     21  N   UNL     1       9.741  14.240  20.205  0.00  0.00    +0.000 N 
ATOM     22  H   UNL     1      10.728  15.178  18.303  0.00  0.00    +0.000 HD
ATOM     23  H   UNL     1      10.354  15.029  20.373  0.00  0.00    +0.000 HD
ATOM     24  H   UNL     1       9.705  13.623  21.010  0.00  0.00    +0.000 HD
ENDBRANCH  13  20
ENDBRANCH  12  16
ENDBRANCH  11  12
ENDBRANCH   1  11
BRANCH   8  25
ATOM     25  C   UNL     1       2.654   4.853  20.462  0.00  0.00    +0.000 C 
BRANCH  25  26
ATOM     26  C   UNL     1       1.829   3.614  20.889  0.00  0.00    +0.000 C 
ATOM     27  O   UNL     1       0.982   3.089  20.182  0.00  0.00    +0.000 OA
BRANCH  26  28
ATOM     28  O   UNL     1       2.158   3.113  22.100  0.00  0.00    +0.000 OA
ATOM     29  H   UNL     1       2.504   3.811  22.693  0.00  0.00    +0.000 HD
ENDBRANCH  26  28
ENDBRANCH  25  26
ENDBRANCH   8  25
TORSDOF 7
ENDMDL
MODEL 9
REMARK VINA RESULT:      -7.4      2.531      4.356
REMARK  Name = 
REMARK  7 active torsions:
REMARK  status: ('A' for Active; 'I' for Inactive)
REMARK    1  A    between atoms: C_2  and  C_4
REMARK    2  A    between atoms: C_7  and  C_8
REMARK    3  A    between atoms: C_8  and  O_9
REMARK    4  A    between atoms: O_9  and  C_10
REMARK    5  A    between atoms: N_17  and  C_18
REMARK    6  A    between atoms: C_18  and  C_19
REMARK    7  A    between atoms: C_19  and  O_21
REMARK                            x       y       z     vdW  Elec       q    Type
REMARK                         _______ _______ _______ _____ _____    ______ ____
ROOT
ATOM      1  C   UNL     1       1.917   5.732  20.427  0.00  0.00    +0.000 A 
ATOM      2  C   UNL     1       1.519   4.413  20.712  0.00  0.00    +0.000 A 
ATOM      3  C   UNL     1       2.279   3.335  20.237  0.00  0.00    +0.000 A 
ATOM      4  C   UNL     1       3.461   3.645  19.595  0.00  0.00    +0.000 A 
ATOM      5  C   UNL     1       4.012   4.923  19.653  0.00  0.00    +0.000 A 
ATOM      6  C   UNL     1       3.214   5.999  19.980  0.00  0.00    +0.000 A 
ATOM      7  C   UNL     1       5.310   4.917  18.938  0.00  0.00    +0.000 C 
ATOM      8  N   UNL     1       4.982   3.976  17.893  0.00  0.00    +0.000 N 
ATOM      9  C   UNL     1       4.013   3.061  18.323  0.00  0.00    +0.000 C 
ATOM     10  O   UNL     1       3.535   2.142  17.707  0.00  0.00    +0.000 OA
ENDROOT
BRANCH   1  11
ATOM     11  O   UNL     1       0.950   6.700  20.527  0.00  0.00    +0.000 OA
BRANCH  11  12
ATOM     12  C   UNL     1       1.423   7.925  21.119  0.00  0.00    +0.000 C 
BRANCH  12  16
ATOM     13  C   UNL     1      -0.372  11.273  19.062  0.00  0.00    +0.000 A 
ATOM     14  C   UNL     1      -0.700  11.009  20.395  0.00  0.00    +0.000 A 
ATOM     15  C   UNL     1      -0.120   9.927  21.059  0.00  0.00    +0.000 A 
ATOM     16  C   UNL     1       0.809   9.106  20.405  0.00  0.00    +0.000 A 
ATOM     17  C   UNL     1       1.153   9.392  19.074  0.00  0.00    +0.000 A 
ATOM     18  C   UNL     1       0.566  10.470  18.405  0.00  0.00    +0.000 A 
BRANCH  13  20
ATOM     19  N   UNL     1      -1.664  12.168  17.239  0.00  0.00    +0.000 NA
ATOM     20  C   UNL     1      -1.033  12.399  18.344  0.00  0.00    +0.000 C 
ATOM     21  N   UNL     1      -0.949  13.669  18.838  0.00  0.00    +0.000 N 
ATOM     22  H   UNL     1      -2.086  13.033  16.895  0.00  0.00    +0.000 HD
ATOM     23  H   UNL     1      -1.118  14.409  18.167  0.00  0.00    +0.000 HD
ATOM     24  H   UNL     1      -0.123  13.860  19.396  0.00  0.00    +0.000 HD
ENDBRANCH  13  20
ENDBRANCH  12  16
ENDBRANCH  11  12
ENDBRANCH   1  11
BRANCH   8  25
ATOM     25  C   UNL     1       5.415   4.249  16.518  0.00  0.00    +0.000 C 
BRANCH  25  26
ATOM     26  C   UNL     1       6.811   4.915  16.457  0.00  0.00    +0.000 C 
ATOM     27  O   UNL     1       7.855   4.321  16.677  0.00  0.00    +0.000 OA
BRANCH  26  28
ATOM     28  O   UNL     1       6.794   6.214  16.084  0.00  0.00    +0.000 OA
ATOM     29  H   UNL     1       7.056   6.802  16.821  0.00  0.00    +0.000 HD
ENDBRANCH  26  28
ENDBRANCH  25  26
ENDBRANCH   8  25
TORSDOF 7
ENDMDL
