MODEL 1
REMARK VINA RESULT:      -7.1      0.000      0.000
REMARK  Name = 
REMARK  7 active torsions:
REMARK  status: ('A' for Active; 'I' for Inactive)
REMARK    1  A    between atoms: C_1  and  N_2
REMARK    2  A    between atoms: N_2  and  S_3
REMARK    3  A    between atoms: S_3  and  C_6
REMARK    4  A    between atoms: C_6  and  C_7
REMARK    5  A    between atoms: C_7  and  N_8
REMARK    6  A    between atoms: C_9  and  C_11
REMARK    7  A    between atoms: N_17  and  C_18
REMARK                            x       y       z     vdW  Elec       q    Type
REMARK                         _______ _______ _______ _____ _____    ______ ____
ROOT
ATOM      1  N   UNL     1       4.619   5.502  17.310  0.00  0.00    +0.000 N 
ATOM      2  C   UNL     1       3.452   5.855  17.986  0.00  0.00    +0.000 C 
ATOM      3  O   UNL     1       2.941   6.965  17.863  0.00  0.00    +0.000 OA
ATOM      4  H   UNL     1       5.152   4.718  17.677  0.00  0.00    +0.000 HD
ENDROOT
BRANCH   2   5
ATOM      5  C   UNL     1       2.907   4.683  18.898  0.00  0.00    +0.000 C 
ATOM      6  C   UNL     1       2.450   5.883  19.838  0.00  0.00    +0.000 C 
ATOM      7  N   UNL     1       2.031   5.315  21.124  0.00  0.00    +0.000 NA
ATOM      8  C   UNL     1       1.362   4.086  20.768  0.00  0.00    +0.000 C 
ATOM      9  C   UNL     1       1.503   4.030  19.253  0.00  0.00    +0.000 C 
ATOM     10  C   UNL     1       1.403   2.585  18.794  0.00  0.00    +0.000 C 
ATOM     11  N   UNL     1       2.401   2.471  17.754  0.00  0.00    +0.000 NA
ATOM     12  C   UNL     1       3.462   1.538  18.118  0.00  0.00    +0.000 C 
ATOM     13  C   UNL     1       2.882   3.848  17.545  0.00  0.00    +0.000 C 
ATOM     14  H   UNL     1       1.400   5.958  21.601  0.00  0.00    +0.000 HD
ENDBRANCH   2   5
BRANCH   1  15
ATOM     15  C   UNL     1       5.308   6.432  16.426  0.00  0.00    +0.000 C 
BRANCH  15  16
ATOM     16  C   UNL     1       5.490   5.924  15.002  0.00  0.00    +0.000 C 
BRANCH  16  17
ATOM     17  S   UNL     1       6.949   4.907  14.867  0.00  0.00    +0.000 S 
ATOM     18  O   UNL     1       7.390   4.539  16.195  0.00  0.00    +0.000 OA
ATOM     19  O   UNL     1       7.866   5.496  13.919  0.00  0.00    +0.000 OA
BRANCH  17  21
ATOM     20  C   UNL     1       6.051   3.501  12.743  0.00  0.00    +0.000 C 
ATOM     21  N   UNL     1       6.359   3.488  14.175  0.00  0.00    +0.000 NA
ATOM     22  H   UNL     1       6.943   2.702  14.471  0.00  0.00    +0.000 HD
ENDBRANCH  17  21
ENDBRANCH  16  17
ENDBRANCH  15  16
ENDBRANCH   1  15
TORSDOF 5
ENDMDL
MODEL 2
REMARK VINA RESULT:      -7.0      1.340      1.792
REMARK  Name = 
REMARK  7 active torsions:
REMARK  status: ('A' for Active; 'I' for Inactive)
REMARK    1  A    between atoms: C_1  and  N_2
REMARK    2  A    between atoms: N_2  and  S_3
REMARK    3  A    between atoms: S_3  and  C_6
REMARK    4  A    between atoms: C_6  and  C_7
REMARK    5  A    between atoms: C_7  and  N_8
REMARK    6  A    between atoms: C_9  and  C_11
REMARK    7  A    between atoms: N_17  and  C_18
REMARK                            x       y       z     vdW  Elec       q    Type
REMARK                         _______ _______ _______ _____ _____    ______ ____
ROOT
ATOM      1  N   UNL     1       4.374   5.670  17.580  0.00  0.00    +0.000 N 
ATOM      2  C   UNL     1       3.075   5.665  18.086  0.00  0.00    +0.000 C 
ATOM      3  O   UNL     1       2.261   6.539  17.795  0.00  0.00    +0.000 OA
ATOM      4  H   UNL     1       5.072   5.126  18.081  0.00  0.00    +0.000 HD
ENDROOT
BRANCH   2   5
ATOM      5  C   UNL     1       2.809   4.437  19.047  0.00  0.00    +0.000 C 
ATOM      6  C   UNL     1       2.374   5.577  20.070  0.00  0.00    +0.000 C 
ATOM      7  N   UNL     1       2.224   4.962  21.393  0.00  0.00    +0.000 NA
ATOM      8  C   UNL     1       1.645   3.668  21.120  0.00  0.00    +0.000 C 
ATOM      9  C   UNL     1       1.556   3.632  19.601  0.00  0.00    +0.000 C 
ATOM     10  C   UNL     1       1.544   2.186  19.134  0.00  0.00    +0.000 C 
ATOM     11  N   UNL     1       2.374   2.186  17.950  0.00  0.00    +0.000 NA
ATOM     12  C   UNL     1       3.574   1.375  18.128  0.00  0.00    +0.000 C 
ATOM     13  C   UNL     1       2.664   3.609  17.698  0.00  0.00    +0.000 C 
ATOM     14  H   UNL     1       1.608   5.530  21.974  0.00  0.00    +0.000 HD
ENDBRANCH   2   5
BRANCH   1  15
ATOM     15  C   UNL     1       4.848   6.718  16.687  0.00  0.00    +0.000 C 
BRANCH  15  16
ATOM     16  C   UNL     1       5.314   6.217  15.326  0.00  0.00    +0.000 C 
BRANCH  16  17
ATOM     17  S   UNL     1       6.672   5.074  15.495  0.00  0.00    +0.000 S 
ATOM     18  O   UNL     1       7.611   5.297  14.416  0.00  0.00    +0.000 OA
ATOM     19  O   UNL     1       6.162   3.751  15.770  0.00  0.00    +0.000 OA
BRANCH  17  21
ATOM     20  C   UNL     1       7.757   4.621  17.926  0.00  0.00    +0.000 C 
ATOM     21  N   UNL     1       7.447   5.610  16.891  0.00  0.00    +0.000 NA
ATOM     22  H   UNL     1       8.237   6.205  16.629  0.00  0.00    +0.000 HD
ENDBRANCH  17  21
ENDBRANCH  16  17
ENDBRANCH  15  16
ENDBRANCH   1  15
TORSDOF 5
ENDMDL
MODEL 3
REMARK VINA RESULT:      -6.8      2.061      3.589
REMARK  Name = 
REMARK  7 active torsions:
REMARK  status: ('A' for Active; 'I' for Inactive)
REMARK    1  A    between atoms: C_1  and  N_2
REMARK    2  A    between atoms: N_2  and  S_3
REMARK    3  A    between atoms: S_3  and  C_6
REMARK    4  A    between atoms: C_6  and  C_7
REMARK    5  A    between atoms: C_7  and  N_8
REMARK    6  A    between atoms: C_9  and  C_11
REMARK    7  A    between atoms: N_17  and  C_18
REMARK                            x       y       z     vdW  Elec       q    Type
REMARK                         _______ _______ _______ _____ _____    ______ ____
ROOT
ATOM      1  N   UNL     1       4.512   3.854  16.909  0.00  0.00    +0.000 N 
ATOM      2  C   UNL     1       4.383   3.617  18.276  0.00  0.00    +0.000 C 
ATOM      3  O   UNL     1       5.356   3.380  18.988  0.00  0.00    +0.000 OA
ATOM      4  H   UNL     1       3.682   3.735  16.333  0.00  0.00    +0.000 HD
ENDROOT
BRANCH   2   5
ATOM      5  C   UNL     1       2.879   3.686  18.759  0.00  0.00    +0.000 C 
ATOM      6  C   UNL     1       2.761   2.310  17.968  0.00  0.00    +0.000 C 
ATOM      7  N   UNL     1       1.338   1.971  17.862  0.00  0.00    +0.000 NA
ATOM      8  C   UNL     1       0.780   2.383  19.128  0.00  0.00    +0.000 C 
ATOM      9  C   UNL     1       1.968   2.991  19.860  0.00  0.00    +0.000 C 
ATOM     10  C   UNL     1       1.464   3.976  20.901  0.00  0.00    +0.000 C 
ATOM     11  N   UNL     1       2.394   5.081  20.828  0.00  0.00    +0.000 NA
ATOM     12  C   UNL     1       1.745   6.310  20.384  0.00  0.00    +0.000 C 
ATOM     13  C   UNL     1       3.453   4.617  19.913  0.00  0.00    +0.000 C 
ATOM     14  H   UNL     1       1.228   0.968  17.715  0.00  0.00    +0.000 HD
ENDBRANCH   2   5
BRANCH   1  15
ATOM     15  C   UNL     1       5.806   3.823  16.240  0.00  0.00    +0.000 C 
BRANCH  15  16
ATOM     16  C   UNL     1       6.266   5.173  15.703  0.00  0.00    +0.000 C 
BRANCH  16  17
ATOM     17  S   UNL     1       6.755   6.257  17.032  0.00  0.00    +0.000 S 
ATOM     18  O   UNL     1       5.568   6.763  17.687  0.00  0.00    +0.000 OA
ATOM     19  O   UNL     1       7.786   7.156  16.571  0.00  0.00    +0.000 OA
BRANCH  17  21
ATOM     20  C   UNL     1       7.870   5.744  19.438  0.00  0.00    +0.000 C 
ATOM     21  N   UNL     1       7.468   5.204  18.137  0.00  0.00    +0.000 NA
ATOM     22  H   UNL     1       6.912   4.347  18.192  0.00  0.00    +0.000 HD
ENDBRANCH  17  21
ENDBRANCH  16  17
ENDBRANCH  15  16
ENDBRANCH   1  15
TORSDOF 5
ENDMDL
MODEL 4
REMARK VINA RESULT:      -6.8      2.352      3.594
REMARK  Name = 
REMARK  7 active torsions:
REMARK  status: ('A' for Active; 'I' for Inactive)
REMARK    1  A    between atoms: C_1  and  N_2
REMARK    2  A    between atoms: N_2  and  S_3
REMARK    3  A    between atoms: S_3  and  C_6
REMARK    4  A    between atoms: C_6  and  C_7
REMARK    5  A    between atoms: C_7  and  N_8
REMARK    6  A    between atoms: C_9  and  C_11
REMARK    7  A    between atoms: N_17  and  C_18
REMARK                            x       y       z     vdW  Elec       q    Type
REMARK                         _______ _______ _______ _____ _____    ______ ____
ROOT
ATOM      1  N   UNL     1       5.320   4.772  18.896  0.00  0.00    +0.000 N 
ATOM      2  C   UNL     1       4.659   3.620  19.320  0.00  0.00    +0.000 C 
ATOM      3  O   UNL     1       5.268   2.648  19.761  0.00  0.00    +0.000 OA
ATOM      4  H   UNL     1       4.815   5.396  18.271  0.00  0.00    +0.000 HD
ENDROOT
BRANCH   2   5
ATOM      5  C   UNL     1       3.090   3.732  19.158  0.00  0.00    +0.000 C 
ATOM      6  C   UNL     1       3.270   2.381  18.335  0.00  0.00    +0.000 C 
ATOM      7  N   UNL     1       2.004   2.097  17.652  0.00  0.00    +0.000 NA
ATOM      8  C   UNL     1       0.991   2.497  18.600  0.00  0.00    +0.000 C 
ATOM      9  C   UNL     1       1.796   3.043  19.771  0.00  0.00    +0.000 C 
ATOM     10  C   UNL     1       0.937   4.020  20.557  0.00  0.00    +0.000 C 
ATOM     11  N   UNL     1       1.843   5.091  20.906  0.00  0.00    +0.000 NA
ATOM     12  C   UNL     1       1.457   6.354  20.285  0.00  0.00    +0.000 C 
ATOM     13  C   UNL     1       3.170   4.612  20.480  0.00  0.00    +0.000 C 
ATOM     14  H   UNL     1       1.939   1.103  17.436  0.00  0.00    +0.000 HD
ENDBRANCH   2   5
BRANCH   1  15
ATOM     15  C   UNL     1       6.771   4.887  18.937  0.00  0.00    +0.000 C 
BRANCH  15  16
ATOM     16  C   UNL     1       7.458   4.619  17.604  0.00  0.00    +0.000 C 
BRANCH  16  17
ATOM     17  S   UNL     1       6.679   5.534  16.286  0.00  0.00    +0.000 S 
ATOM     18  O   UNL     1       5.353   4.998  16.062  0.00  0.00    +0.000 OA
ATOM     19  O   UNL     1       7.607   5.694  15.191  0.00  0.00    +0.000 OA
BRANCH  17  21
ATOM     20  C   UNL     1       7.627   7.800  17.407  0.00  0.00    +0.000 C 
ATOM     21  N   UNL     1       6.445   7.056  16.969  0.00  0.00    +0.000 NA
ATOM     22  H   UNL     1       5.805   7.594  16.379  0.00  0.00    +0.000 HD
ENDBRANCH  17  21
ENDBRANCH  16  17
ENDBRANCH  15  16
ENDBRANCH   1  15
TORSDOF 5
ENDMDL
MODEL 5
REMARK VINA RESULT:      -6.7      1.561      1.744
REMARK  Name = 
REMARK  7 active torsions:
REMARK  status: ('A' for Active; 'I' for Inactive)
REMARK    1  A    between atoms: C_1  and  N_2
REMARK    2  A    between atoms: N_2  and  S_3
REMARK    3  A    between atoms: S_3  and  C_6
REMARK    4  A    between atoms: C_6  and  C_7
REMARK    5  A    between atoms: C_7  and  N_8
REMARK    6  A    between atoms: C_9  and  C_11
REMARK    7  A    between atoms: N_17  and  C_18
REMARK                            x       y       z     vdW  Elec       q    Type
REMARK                         _______ _______ _______ _____ _____    ______ ____
ROOT
ATOM      1  N   UNL     1       3.704   5.564  18.024  0.00  0.00    +0.000 N 
ATOM      2  C   UNL     1       3.025   5.488  19.239  0.00  0.00    +0.000 C 
ATOM      3  O   UNL     1       2.658   6.495  19.841  0.00  0.00    +0.000 OA
ATOM      4  H   UNL     1       4.242   4.749  17.738  0.00  0.00    +0.000 HD
ENDROOT
BRANCH   2   5
ATOM      5  C   UNL     1       2.808   3.996  19.714  0.00  0.00    +0.000 C 
ATOM      6  C   UNL     1       2.323   4.696  21.059  0.00  0.00    +0.000 C 
ATOM      7  N   UNL     1       2.194   3.659  22.088  0.00  0.00    +0.000 NA
ATOM      8  C   UNL     1       1.672   2.516  21.377  0.00  0.00    +0.000 C 
ATOM      9  C   UNL     1       1.588   3.001  19.936  0.00  0.00    +0.000 C 
ATOM     10  C   UNL     1       1.639   1.805  19.001  0.00  0.00    +0.000 C 
ATOM     11  N   UNL     1       2.472   2.244  17.904  0.00  0.00    +0.000 NA
ATOM     12  C   UNL     1       3.705   1.468  17.813  0.00  0.00    +0.000 C 
ATOM     13  C   UNL     1       2.703   3.677  18.161  0.00  0.00    +0.000 C 
ATOM     14  H   UNL     1       1.554   3.968  22.818  0.00  0.00    +0.000 HD
ENDBRANCH   2   5
BRANCH   1  15
ATOM     15  C   UNL     1       4.031   6.839  17.402  0.00  0.00    +0.000 C 
BRANCH  15  16
ATOM     16  C   UNL     1       5.098   6.753  16.318  0.00  0.00    +0.000 C 
BRANCH  16  17
ATOM     17  S   UNL     1       6.546   5.900  16.913  0.00  0.00    +0.000 S 
ATOM     18  O   UNL     1       6.631   6.061  18.349  0.00  0.00    +0.000 OA
ATOM     19  O   UNL     1       7.674   6.209  16.066  0.00  0.00    +0.000 OA
BRANCH  17  21
ATOM     20  C   UNL     1       6.048   3.810  15.277  0.00  0.00    +0.000 C 
ATOM     21  N   UNL     1       6.162   4.279  16.660  0.00  0.00    +0.000 NA
ATOM     22  H   UNL     1       6.758   3.696  17.253  0.00  0.00    +0.000 HD
ENDBRANCH  17  21
ENDBRANCH  16  17
ENDBRANCH  15  16
ENDBRANCH   1  15
TORSDOF 5
ENDMDL
MODEL 6
REMARK VINA RESULT:      -6.7      1.974      3.335
REMARK  Name = 
REMARK  7 active torsions:
REMARK  status: ('A' for Active; 'I' for Inactive)
REMARK    1  A    between atoms: C_1  and  N_2
REMARK    2  A    between atoms: N_2  and  S_3
REMARK    3  A    between atoms: S_3  and  C_6
REMARK    4  A    between atoms: C_6  and  C_7
REMARK    5  A    between atoms: C_7  and  N_8
REMARK    6  A    between atoms: C_9  and  C_11
REMARK    7  A    between atoms: N_17  and  C_18
REMARK                            x       y       z     vdW  Elec       q    Type
REMARK                         _______ _______ _______ _____ _____    ______ ____
ROOT
ATOM      1  N   UNL     1       4.252   4.079  17.307  0.00  0.00    +0.000 N 
ATOM      2  C   UNL     1       2.897   3.767  17.397  0.00  0.00    +0.000 C 
ATOM      3  O   UNL     1       2.396   2.854  16.744  0.00  0.00    +0.000 OA
ATOM      4  H   UNL     1       4.539   5.006  17.613  0.00  0.00    +0.000 HD
ENDROOT
BRANCH   2   5
ATOM      5  C   UNL     1       2.127   4.712  18.405  0.00  0.00    +0.000 C 
ATOM      6  C   UNL     1       1.713   3.332  19.084  0.00  0.00    +0.000 C 
ATOM      7  N   UNL     1       0.666   3.611  20.072  0.00  0.00    +0.000 NA
ATOM      8  C   UNL     1       1.057   4.872  20.657  0.00  0.00    +0.000 C 
ATOM      9  C   UNL     1       2.317   5.245  19.890  0.00  0.00    +0.000 C 
ATOM     10  C   UNL     1       2.510   6.751  19.944  0.00  0.00    +0.000 C 
ATOM     11  N   UNL     1       2.966   7.102  18.618  0.00  0.00    +0.000 NA
ATOM     12  C   UNL     1       2.013   7.962  17.924  0.00  0.00    +0.000 C 
ATOM     13  C   UNL     1       3.182   5.808  17.944  0.00  0.00    +0.000 C 
ATOM     14  H   UNL     1       0.638   2.870  20.770  0.00  0.00    +0.000 HD
ENDBRANCH   2   5
BRANCH   1  15
ATOM     15  C   UNL     1       5.154   3.351  16.425  0.00  0.00    +0.000 C 
BRANCH  15  16
ATOM     16  C   UNL     1       5.692   4.174  15.262  0.00  0.00    +0.000 C 
BRANCH  16  17
ATOM     17  S   UNL     1       7.144   5.090  15.744  0.00  0.00    +0.000 S 
ATOM     18  O   UNL     1       7.784   5.616  14.557  0.00  0.00    +0.000 OA
ATOM     19  O   UNL     1       7.896   4.332  16.716  0.00  0.00    +0.000 OA
BRANCH  17  21
ATOM     20  C   UNL     1       7.395   7.209  17.400  0.00  0.00    +0.000 C 
ATOM     21  N   UNL     1       6.501   6.427  16.543  0.00  0.00    +0.000 NA
ATOM     22  H   UNL     1       5.960   6.986  15.880  0.00  0.00    +0.000 HD
ENDBRANCH  17  21
ENDBRANCH  16  17
ENDBRANCH  15  16
ENDBRANCH   1  15
TORSDOF 5
ENDMDL
MODEL 7
REMARK VINA RESULT:      -6.7      1.444      1.999
REMARK  Name = 
REMARK  7 active torsions:
REMARK  status: ('A' for Active; 'I' for Inactive)
REMARK    1  A    between atoms: C_1  and  N_2
REMARK    2  A    between atoms: N_2  and  S_3
REMARK    3  A    between atoms: S_3  and  C_6
REMARK    4  A    between atoms: C_6  and  C_7
REMARK    5  A    between atoms: C_7  and  N_8
REMARK    6  A    between atoms: C_9  and  C_11
REMARK    7  A    between atoms: N_17  and  C_18
REMARK                            x       y       z     vdW  Elec       q    Type
REMARK                         _______ _______ _______ _____ _____    ______ ____
ROOT
ATOM      1  N   UNL     1       4.679   5.104  17.266  0.00  0.00    +0.000 N 
ATOM      2  C   UNL     1       3.668   5.225  18.217  0.00  0.00    +0.000 C 
ATOM      3  O   UNL     1       3.124   6.302  18.454  0.00  0.00    +0.000 OA
ATOM      4  H   UNL     1       5.288   4.292  17.332  0.00  0.00    +0.000 HD
ENDROOT
BRANCH   2   5
ATOM      5  C   UNL     1       3.336   3.848  18.921  0.00  0.00    +0.000 C 
ATOM      6  C   UNL     1       4.902   3.835  19.207  0.00  0.00    +0.000 C 
ATOM      7  N   UNL     1       5.259   2.502  19.702  0.00  0.00    +0.000 NA
ATOM      8  C   UNL     1       4.143   2.121  20.535  0.00  0.00    +0.000 C 
ATOM      9  C   UNL     1       3.183   3.295  20.402  0.00  0.00    +0.000 C 
ATOM     10  C   UNL     1       1.770   2.823  20.702  0.00  0.00    +0.000 C 
ATOM     11  N   UNL     1       0.950   3.510  19.730  0.00  0.00    +0.000 NA
ATOM     12  C   UNL     1       0.304   2.581  18.809  0.00  0.00    +0.000 C 
ATOM     13  C   UNL     1       1.870   4.448  19.062  0.00  0.00    +0.000 C 
ATOM     14  H   UNL     1       6.125   2.548  20.237  0.00  0.00    +0.000 HD
ENDBRANCH   2   5
BRANCH   1  15
ATOM     15  C   UNL     1       5.161   6.248  16.505  0.00  0.00    +0.000 C 
BRANCH  15  16
ATOM     16  C   UNL     1       5.493   5.938  15.051  0.00  0.00    +0.000 C 
BRANCH  16  17
ATOM     17  S   UNL     1       6.956   4.926  14.929  0.00  0.00    +0.000 S 
ATOM     18  O   UNL     1       7.377   4.547  16.261  0.00  0.00    +0.000 OA
ATOM     19  O   UNL     1       7.886   5.524  14.001  0.00  0.00    +0.000 OA
BRANCH  17  21
ATOM     20  C   UNL     1       6.033   3.553  12.794  0.00  0.00    +0.000 C 
ATOM     21  N   UNL     1       6.379   3.512  14.217  0.00  0.00    +0.000 NA
ATOM     22  H   UNL     1       6.988   2.732  14.478  0.00  0.00    +0.000 HD
ENDBRANCH  17  21
ENDBRANCH  16  17
ENDBRANCH  15  16
ENDBRANCH   1  15
TORSDOF 5
ENDMDL
MODEL 8
REMARK VINA RESULT:      -6.6      1.427      2.669
REMARK  Name = 
REMARK  7 active torsions:
REMARK  status: ('A' for Active; 'I' for Inactive)
REMARK    1  A    between atoms: C_1  and  N_2
REMARK    2  A    between atoms: N_2  and  S_3
REMARK    3  A    between atoms: S_3  and  C_6
REMARK    4  A    between atoms: C_6  and  C_7
REMARK    5  A    between atoms: C_7  and  N_8
REMARK    6  A    between atoms: C_9  and  C_11
REMARK    7  A    between atoms: N_17  and  C_18
REMARK                            x       y       z     vdW  Elec       q    Type
REMARK                         _______ _______ _______ _____ _____    ______ ____
ROOT
ATOM      1  N   UNL     1       3.796   5.666  17.463  0.00  0.00    +0.000 N 
ATOM      2  C   UNL     1       3.277   4.372  17.457  0.00  0.00    +0.000 C 
ATOM      3  O   UNL     1       3.625   3.537  16.625  0.00  0.00    +0.000 OA
ATOM      4  H   UNL     1       3.263   6.380  17.953  0.00  0.00    +0.000 HD
ENDROOT
BRANCH   2   5
ATOM      5  C   UNL     1       2.224   4.141  18.615  0.00  0.00    +0.000 C 
ATOM      6  C   UNL     1       2.031   2.732  17.899  0.00  0.00    +0.000 C 
ATOM      7  N   UNL     1       0.848   2.090  18.478  0.00  0.00    +0.000 NA
ATOM      8  C   UNL     1       0.904   2.437  19.878  0.00  0.00    +0.000 C 
ATOM      9  C   UNL     1       2.137   3.324  19.975  0.00  0.00    +0.000 C 
ATOM     10  C   UNL     1       2.008   4.231  21.188  0.00  0.00    +0.000 C 
ATOM     11  N   UNL     1       2.525   5.504  20.738  0.00  0.00    +0.000 NA
ATOM     12  C   UNL     1       1.497   6.540  20.742  0.00  0.00    +0.000 C 
ATOM     13  C   UNL     1       3.074   5.232  19.398  0.00  0.00    +0.000 C 
ATOM     14  H   UNL     1       0.896   1.080  18.343  0.00  0.00    +0.000 HD
ENDBRANCH   2   5
BRANCH   1  15
ATOM     15  C   UNL     1       4.770   6.109  16.476  0.00  0.00    +0.000 C 
BRANCH  15  16
ATOM     16  C   UNL     1       6.209   6.121  16.977  0.00  0.00    +0.000 C 
BRANCH  16  17
ATOM     17  S   UNL     1       7.226   5.007  16.025  0.00  0.00    +0.000 S 
ATOM     18  O   UNL     1       8.051   4.236  16.930  0.00  0.00    +0.000 OA
ATOM     19  O   UNL     1       7.812   5.716  14.912  0.00  0.00    +0.000 OA
BRANCH  17  21
ATOM     20  C   UNL     1       6.021   3.796  13.934  0.00  0.00    +0.000 C 
ATOM     21  N   UNL     1       6.107   3.919  15.391  0.00  0.00    +0.000 NA
ATOM     22  H   UNL     1       6.190   3.027  15.883  0.00  0.00    +0.000 HD
ENDBRANCH  17  21
ENDBRANCH  16  17
ENDBRANCH  15  16
ENDBRANCH   1  15
TORSDOF 5
ENDMDL
MODEL 9
REMARK VINA RESULT:      -6.6      3.002      6.216
REMARK  Name = 
REMARK  7 active torsions:
REMARK  status: ('A' for Active; 'I' for Inactive)
REMARK    1  A    between atoms: C_1  and  N_2
REMARK    2  A    between atoms: N_2  and  S_3
REMARK    3  A    between atoms: S_3  and  C_6
REMARK    4  A    between atoms: C_6  and  C_7
REMARK    5  A    between atoms: C_7  and  N_8
REMARK    6  A    between atoms: C_9  and  C_11
REMARK    7  A    between atoms: N_17  and  C_18
REMARK                            x       y       z     vdW  Elec       q    Type
REMARK                         _______ _______ _______ _____ _____    ______ ____
ROOT
ATOM      1  N   UNL     1       3.691   3.081  17.644  0.00  0.00    +0.000 N 
ATOM      2  C   UNL     1       4.004   4.415  17.393  0.00  0.00    +0.000 C 
ATOM      3  O   UNL     1       3.161   5.306  17.477  0.00  0.00    +0.000 OA
ATOM      4  H   UNL     1       4.319   2.375  17.267  0.00  0.00    +0.000 HD
ENDROOT
BRANCH   2   5
ATOM      5  C   UNL     1       5.522   4.614  16.998  0.00  0.00    +0.000 C 
ATOM      6  C   UNL     1       5.047   3.984  15.615  0.00  0.00    +0.000 C 
ATOM      7  N   UNL     1       6.243   3.670  14.827  0.00  0.00    +0.000 NA
ATOM      8  C   UNL     1       7.149   4.759  15.107  0.00  0.00    +0.000 C 
ATOM      9  C   UNL     1       6.382   5.611  16.108  0.00  0.00    +0.000 C 
ATOM     10  C   UNL     1       7.367   6.422  16.934  0.00  0.00    +0.000 C 
ATOM     11  N   UNL     1       6.826   6.382  18.275  0.00  0.00    +0.000 NA
ATOM     12  C   UNL     1       7.715   5.687  19.199  0.00  0.00    +0.000 C 
ATOM     13  C   UNL     1       5.512   5.731  18.128  0.00  0.00    +0.000 C 
ATOM     14  H   UNL     1       6.008   3.627  13.836  0.00  0.00    +0.000 HD
ENDBRANCH   2   5
BRANCH   1  15
ATOM     15  C   UNL     1       2.345   2.660  18.008  0.00  0.00    +0.000 C 
BRANCH  15  16
ATOM     16  C   UNL     1       2.255   1.937  19.346  0.00  0.00    +0.000 C 
BRANCH  16  17
ATOM     17  S   UNL     1       3.262   2.744  20.578  0.00  0.00    +0.000 S 
ATOM     18  O   UNL     1       4.657   2.576  20.229  0.00  0.00    +0.000 OA
ATOM     19  O   UNL     1       2.783   2.402  21.896  0.00  0.00    +0.000 OA
BRANCH  17  21
ATOM     20  C   UNL     1       1.621   4.880  20.765  0.00  0.00    +0.000 C 
ATOM     21  N   UNL     1       2.926   4.376  20.332  0.00  0.00    +0.000 NA
ATOM     22  H   UNL     1       3.720   4.935  20.655  0.00  0.00    +0.000 HD
ENDBRANCH  17  21
ENDBRANCH  16  17
ENDBRANCH  15  16
ENDBRANCH   1  15
TORSDOF 5
ENDMDL
