MODEL 1
REMARK VINA RESULT:      -7.5      0.000      0.000
REMARK  Name = 
REMARK  10 active torsions:
REMARK  status: ('A' for Active; 'I' for Inactive)
REMARK    1  A    between atoms: C_1  and  C_2
REMARK    2  A    between atoms: C_2  and  C_3
REMARK    3  A    between atoms: C_3  and  C_4
REMARK    4  A    between atoms: C_4  and  C_5
REMARK    5  A    between atoms: C_5  and  N_6
REMARK    6  A    between atoms: N_10  and  C_11
REMARK    7  A    between atoms: C_11  and  C_12
REMARK    8  A    between atoms: C_12  and  C_13
REMARK    9  A    between atoms: C_13  and  C_14
REMARK   10  A    between atoms: C_14  and  C_15
REMARK                            x       y       z     vdW  Elec       q    Type
REMARK                         _______ _______ _______ _____ _____    ______ ____
ROOT
ATOM      1  N   UNL     1       7.393   7.739  16.793  0.00  0.00    +0.000 N 
ATOM      2  C   UNL     1       6.536   6.647  16.902  0.00  0.00    +0.000 A 
ATOM      3  N   UNL     1       6.362   5.894  15.811  0.00  0.00    +0.000 NA
ATOM      4  C   UNL     1       5.533   4.831  15.909  0.00  0.00    +0.000 A 
ATOM      5  N   UNL     1       5.446   3.952  14.818  0.00  0.00    +0.000 N 
ATOM      6  C   UNL     1       4.878   4.509  17.105  0.00  0.00    +0.000 A 
ATOM      7  C   UNL     1       3.989   3.416  17.346  0.00  0.00    +0.000 A 
ATOM      8  C   UNL     1       3.437   3.213  18.612  0.00  0.00    +0.000 A 
ATOM      9  C   UNL     1       3.813   4.092  19.602  0.00  0.00    +0.000 A 
ATOM     10  N   UNL     1       4.662   5.121  19.402  0.00  0.00    +0.000 NA
ATOM     11  C   UNL     1       5.171   5.341  18.191  0.00  0.00    +0.000 A 
ATOM     12  N   UNL     1       5.972   6.384  18.075  0.00  0.00    +0.000 NA
ATOM     13  H   UNL     1       7.979   7.599  15.979  0.00  0.00    +0.000 HD
ATOM     14  H   UNL     1       4.526   3.600  14.584  0.00  0.00    +0.000 HD
ENDROOT
BRANCH   1  15
ATOM     15  C   UNL     1       8.074   8.086  18.035  0.00  0.00    +0.000 C 
BRANCH  15  16
ATOM     16  C   UNL     1       8.405   9.579  18.085  0.00  0.00    +0.000 C 
BRANCH  16  17
ATOM     17  C   UNL     1       9.216   9.943  19.331  0.00  0.00    +0.000 C 
BRANCH  17  19
ATOM     18  C   UNL     1       9.419  12.269  18.412  0.00  0.00    +0.000 C 
ATOM     19  C   UNL     1      10.157  11.117  19.076  0.00  0.00    +0.000 C 
ENDBRANCH  17  19
ENDBRANCH  16  17
ENDBRANCH  15  16
ENDBRANCH   1  15
BRANCH   5  20
ATOM     20  C   UNL     1       6.484   3.988  13.794  0.00  0.00    +0.000 C 
BRANCH  20  21
ATOM     21  C   UNL     1       6.013   3.434  12.453  0.00  0.00    +0.000 C 
BRANCH  21  22
ATOM     22  C   UNL     1       4.512   3.627  12.259  0.00  0.00    +0.000 C 
BRANCH  22  23
ATOM     23  C   UNL     1       4.040   2.978  10.960  0.00  0.00    +0.000 C 
ATOM     24  C   UNL     1       3.317   3.982  10.081  0.00  0.00    +0.000 C 
ENDBRANCH  22  23
ENDBRANCH  21  22
ENDBRANCH  20  21
ENDBRANCH   5  20
TORSDOF 8
ENDMDL
MODEL 2
REMARK VINA RESULT:      -7.5      1.733      4.692
REMARK  Name = 
REMARK  10 active torsions:
REMARK  status: ('A' for Active; 'I' for Inactive)
REMARK    1  A    between atoms: C_1  and  C_2
REMARK    2  A    between atoms: C_2  and  C_3
REMARK    3  A    between atoms: C_3  and  C_4
REMARK    4  A    between atoms: C_4  and  C_5
REMARK    5  A    between atoms: C_5  and  N_6
REMARK    6  A    between atoms: N_10  and  C_11
REMARK    7  A    between atoms: C_11  and  C_12
REMARK    8  A    between atoms: C_12  and  C_13
REMARK    9  A    between atoms: C_13  and  C_14
REMARK   10  A    between atoms: C_14  and  C_15
REMARK                            x       y       z     vdW  Elec       q    Type
REMARK                         _______ _______ _______ _____ _____    ______ ____
ROOT
ATOM      1  N   UNL     1       7.687   7.059  18.359  0.00  0.00    +0.000 N 
ATOM      2  C   UNL     1       7.184   6.150  17.433  0.00  0.00    +0.000 A 
ATOM      3  N   UNL     1       6.275   5.271  17.869  0.00  0.00    +0.000 NA
ATOM      4  C   UNL     1       5.780   4.386  16.976  0.00  0.00    +0.000 A 
ATOM      5  N   UNL     1       4.728   3.550  17.380  0.00  0.00    +0.000 N 
ATOM      6  C   UNL     1       6.186   4.379  15.635  0.00  0.00    +0.000 A 
ATOM      7  C   UNL     1       5.739   3.510  14.591  0.00  0.00    +0.000 A 
ATOM      8  C   UNL     1       6.222   3.653  13.290  0.00  0.00    +0.000 A 
ATOM      9  C   UNL     1       7.115   4.676  13.067  0.00  0.00    +0.000 A 
ATOM     10  N   UNL     1       7.540   5.518  14.031  0.00  0.00    +0.000 NA
ATOM     11  C   UNL     1       7.108   5.372  15.283  0.00  0.00    +0.000 A 
ATOM     12  N   UNL     1       7.592   6.220  16.171  0.00  0.00    +0.000 NA
ATOM     13  H   UNL     1       7.049   7.095  19.143  0.00  0.00    +0.000 HD
ATOM     14  H   UNL     1       4.760   2.587  17.070  0.00  0.00    +0.000 HD
ENDROOT
BRANCH   1  15
ATOM     15  C   UNL     1       8.083   8.338  17.780  0.00  0.00    +0.000 C 
BRANCH  15  16
ATOM     16  C   UNL     1       8.804   9.211  18.809  0.00  0.00    +0.000 C 
BRANCH  16  17
ATOM     17  C   UNL     1       9.268  10.539  18.207  0.00  0.00    +0.000 C 
BRANCH  17  19
ATOM     18  C   UNL     1      11.250  12.079  18.191  0.00  0.00    +0.000 C 
ATOM     19  C   UNL     1      10.357  11.198  19.051  0.00  0.00    +0.000 C 
ENDBRANCH  17  19
ENDBRANCH  16  17
ENDBRANCH  15  16
ENDBRANCH   1  15
BRANCH   5  20
ATOM     20  C   UNL     1       3.970   3.894  18.578  0.00  0.00    +0.000 C 
BRANCH  20  21
ATOM     21  C   UNL     1       2.699   4.681  18.270  0.00  0.00    +0.000 C 
BRANCH  21  22
ATOM     22  C   UNL     1       1.518   3.756  17.988  0.00  0.00    +0.000 C 
BRANCH  22  23
ATOM     23  C   UNL     1       1.461   2.617  19.004  0.00  0.00    +0.000 C 
ATOM     24  C   UNL     1       0.876   3.091  20.320  0.00  0.00    +0.000 C 
ENDBRANCH  22  23
ENDBRANCH  21  22
ENDBRANCH  20  21
ENDBRANCH   5  20
TORSDOF 8
ENDMDL
MODEL 3
REMARK VINA RESULT:      -7.5      2.783      5.410
REMARK  Name = 
REMARK  10 active torsions:
REMARK  status: ('A' for Active; 'I' for Inactive)
REMARK    1  A    between atoms: C_1  and  C_2
REMARK    2  A    between atoms: C_2  and  C_3
REMARK    3  A    between atoms: C_3  and  C_4
REMARK    4  A    between atoms: C_4  and  C_5
REMARK    5  A    between atoms: C_5  and  N_6
REMARK    6  A    between atoms: N_10  and  C_11
REMARK    7  A    between atoms: C_11  and  C_12
REMARK    8  A    between atoms: C_12  and  C_13
REMARK    9  A    between atoms: C_13  and  C_14
REMARK   10  A    between atoms: C_14  and  C_15
REMARK                            x       y       z     vdW  Elec       q    Type
REMARK                         _______ _______ _______ _____ _____    ______ ____
ROOT
ATOM      1  N   UNL     1       2.396   3.117  17.190  0.00  0.00    +0.000 N 
ATOM      2  C   UNL     1       3.702   3.599  17.215  0.00  0.00    +0.000 A 
ATOM      3  N   UNL     1       4.384   3.580  16.065  0.00  0.00    +0.000 NA
ATOM      4  C   UNL     1       5.652   4.047  16.081  0.00  0.00    +0.000 A 
ATOM      5  N   UNL     1       6.334   4.163  14.860  0.00  0.00    +0.000 N 
ATOM      6  C   UNL     1       6.244   4.548  17.248  0.00  0.00    +0.000 A 
ATOM      7  C   UNL     1       7.563   5.077  17.400  0.00  0.00    +0.000 A 
ATOM      8  C   UNL     1       7.996   5.568  18.633  0.00  0.00    +0.000 A 
ATOM      9  C   UNL     1       7.088   5.538  19.667  0.00  0.00    +0.000 A 
ATOM     10  N   UNL     1       5.833   5.057  19.544  0.00  0.00    +0.000 NA
ATOM     11  C   UNL     1       5.420   4.560  18.380  0.00  0.00    +0.000 A 
ATOM     12  N   UNL     1       4.188   4.086  18.351  0.00  0.00    +0.000 NA
ATOM     13  H   UNL     1       2.080   3.113  16.228  0.00  0.00    +0.000 HD
ATOM     14  H   UNL     1       7.310   3.897  14.852  0.00  0.00    +0.000 HD
ENDROOT
BRANCH   1  15
ATOM     15  C   UNL     1       1.512   3.748  18.163  0.00  0.00    +0.000 C 
BRANCH  15  16
ATOM     16  C   UNL     1       1.087   2.756  19.247  0.00  0.00    +0.000 C 
BRANCH  16  17
ATOM     17  C   UNL     1       0.891   3.440  20.603  0.00  0.00    +0.000 C 
BRANCH  17  19
ATOM     18  C   UNL     1       1.721   5.801  20.786  0.00  0.00    +0.000 C 
ATOM     19  C   UNL     1       2.074   4.333  20.967  0.00  0.00    +0.000 C 
ENDBRANCH  17  19
ENDBRANCH  16  17
ENDBRANCH  15  16
ENDBRANCH   1  15
BRANCH   5  20
ATOM     20  C   UNL     1       5.571   4.135  13.617  0.00  0.00    +0.000 C 
BRANCH  20  21
ATOM     21  C   UNL     1       6.308   3.424  12.485  0.00  0.00    +0.000 C 
BRANCH  21  22
ATOM     22  C   UNL     1       5.344   2.686  11.561  0.00  0.00    +0.000 C 
BRANCH  22  23
ATOM     23  C   UNL     1       3.956   3.322  11.596  0.00  0.00    +0.000 C 
ATOM     24  C   UNL     1       3.492   3.692  10.200  0.00  0.00    +0.000 C 
ENDBRANCH  22  23
ENDBRANCH  21  22
ENDBRANCH  20  21
ENDBRANCH   5  20
TORSDOF 8
ENDMDL
MODEL 4
REMARK VINA RESULT:      -7.4      1.823      4.543
REMARK  Name = 
REMARK  10 active torsions:
REMARK  status: ('A' for Active; 'I' for Inactive)
REMARK    1  A    between atoms: C_1  and  C_2
REMARK    2  A    between atoms: C_2  and  C_3
REMARK    3  A    between atoms: C_3  and  C_4
REMARK    4  A    between atoms: C_4  and  C_5
REMARK    5  A    between atoms: C_5  and  N_6
REMARK    6  A    between atoms: N_10  and  C_11
REMARK    7  A    between atoms: C_11  and  C_12
REMARK    8  A    between atoms: C_12  and  C_13
REMARK    9  A    between atoms: C_13  and  C_14
REMARK   10  A    between atoms: C_14  and  C_15
REMARK                            x       y       z     vdW  Elec       q    Type
REMARK                         _______ _______ _______ _____ _____    ______ ____
ROOT
ATOM      1  N   UNL     1       7.909   7.174  18.568  0.00  0.00    +0.000 N 
ATOM      2  C   UNL     1       7.347   6.216  17.729  0.00  0.00    +0.000 A 
ATOM      3  N   UNL     1       6.532   5.315  18.288  0.00  0.00    +0.000 NA
ATOM      4  C   UNL     1       5.982   4.382  17.481  0.00  0.00    +0.000 A 
ATOM      5  N   UNL     1       5.020   3.516  18.023  0.00  0.00    +0.000 N 
ATOM      6  C   UNL     1       6.235   4.350  16.103  0.00  0.00    +0.000 A 
ATOM      7  C   UNL     1       5.715   3.431  15.140  0.00  0.00    +0.000 A 
ATOM      8  C   UNL     1       6.042   3.553  13.789  0.00  0.00    +0.000 A 
ATOM      9  C   UNL     1       6.858   4.604  13.440  0.00  0.00    +0.000 A 
ATOM     10  N   UNL     1       7.350   5.493  14.328  0.00  0.00    +0.000 NA
ATOM     11  C   UNL     1       7.067   5.369  15.623  0.00  0.00    +0.000 A 
ATOM     12  N   UNL     1       7.609   6.264  16.428  0.00  0.00    +0.000 NA
ATOM     13  H   UNL     1       7.361   7.209  19.419  0.00  0.00    +0.000 HD
ATOM     14  H   UNL     1       5.061   2.546  17.737  0.00  0.00    +0.000 HD
ENDROOT
BRANCH   1  15
ATOM     15  C   UNL     1       8.180   8.450  17.915  0.00  0.00    +0.000 C 
BRANCH  15  16
ATOM     16  C   UNL     1       8.882   9.420  18.867  0.00  0.00    +0.000 C 
BRANCH  16  17
ATOM     17  C   UNL     1       9.170  10.767  18.201  0.00  0.00    +0.000 C 
BRANCH  17  19
ATOM     18  C   UNL     1      11.257  12.072  17.710  0.00  0.00    +0.000 C 
ATOM     19  C   UNL     1      10.398  11.449  18.800  0.00  0.00    +0.000 C 
ENDBRANCH  17  19
ENDBRANCH  16  17
ENDBRANCH  15  16
ENDBRANCH   1  15
BRANCH   5  20
ATOM     20  C   UNL     1       4.385   3.866  19.289  0.00  0.00    +0.000 C 
BRANCH  20  21
ATOM     21  C   UNL     1       3.035   4.554  19.106  0.00  0.00    +0.000 C 
BRANCH  21  22
ATOM     22  C   UNL     1       3.106   6.036  19.460  0.00  0.00    +0.000 C 
BRANCH  22  23
ATOM     23  C   UNL     1       2.609   6.900  18.302  0.00  0.00    +0.000 C 
ATOM     24  C   UNL     1       3.755   7.302  17.393  0.00  0.00    +0.000 C 
ENDBRANCH  22  23
ENDBRANCH  21  22
ENDBRANCH  20  21
ENDBRANCH   5  20
TORSDOF 8
ENDMDL
MODEL 5
REMARK VINA RESULT:      -7.3      3.272      5.738
REMARK  Name = 
REMARK  10 active torsions:
REMARK  status: ('A' for Active; 'I' for Inactive)
REMARK    1  A    between atoms: C_1  and  C_2
REMARK    2  A    between atoms: C_2  and  C_3
REMARK    3  A    between atoms: C_3  and  C_4
REMARK    4  A    between atoms: C_4  and  C_5
REMARK    5  A    between atoms: C_5  and  N_6
REMARK    6  A    between atoms: N_10  and  C_11
REMARK    7  A    between atoms: C_11  and  C_12
REMARK    8  A    between atoms: C_12  and  C_13
REMARK    9  A    between atoms: C_13  and  C_14
REMARK   10  A    between atoms: C_14  and  C_15
REMARK                            x       y       z     vdW  Elec       q    Type
REMARK                         _______ _______ _______ _____ _____    ______ ____
ROOT
ATOM      1  N   UNL     1       5.221   2.877  19.671  0.00  0.00    +0.000 N 
ATOM      2  C   UNL     1       4.871   4.054  19.016  0.00  0.00    +0.000 A 
ATOM      3  N   UNL     1       5.473   4.308  17.848  0.00  0.00    +0.000 NA
ATOM      4  C   UNL     1       5.137   5.447  17.206  0.00  0.00    +0.000 A 
ATOM      5  N   UNL     1       5.653   5.663  15.918  0.00  0.00    +0.000 N 
ATOM      6  C   UNL     1       4.188   6.339  17.722  0.00  0.00    +0.000 A 
ATOM      7  C   UNL     1       3.737   7.567  17.144  0.00  0.00    +0.000 A 
ATOM      8  C   UNL     1       2.755   8.332  17.774  0.00  0.00    +0.000 A 
ATOM      9  C   UNL     1       2.236   7.834  18.947  0.00  0.00    +0.000 A 
ATOM     10  N   UNL     1       2.634   6.672  19.505  0.00  0.00    +0.000 NA
ATOM     11  C   UNL     1       3.592   5.948  18.927  0.00  0.00    +0.000 A 
ATOM     12  N   UNL     1       3.942   4.838  19.550  0.00  0.00    +0.000 NA
ATOM     13  H   UNL     1       5.656   2.259  18.997  0.00  0.00    +0.000 HD
ATOM     14  H   UNL     1       5.956   6.602  15.695  0.00  0.00    +0.000 HD
ENDROOT
BRANCH   1  15
ATOM     15  C   UNL     1       4.151   2.308  20.482  0.00  0.00    +0.000 C 
BRANCH  15  16
ATOM     16  C   UNL     1       2.918   1.997  19.631  0.00  0.00    +0.000 C 
BRANCH  16  17
ATOM     17  C   UNL     1       1.619   2.357  20.355  0.00  0.00    +0.000 C 
BRANCH  17  19
ATOM     18  C   UNL     1       1.256   3.339  18.074  0.00  0.00    +0.000 C 
ATOM     19  C   UNL     1       0.691   3.196  19.479  0.00  0.00    +0.000 C 
ENDBRANCH  17  19
ENDBRANCH  16  17
ENDBRANCH  15  16
ENDBRANCH   1  15
BRANCH   5  20
ATOM     20  C   UNL     1       6.211   4.534  15.181  0.00  0.00    +0.000 C 
BRANCH  20  21
ATOM     21  C   UNL     1       5.416   4.198  13.922  0.00  0.00    +0.000 C 
BRANCH  21  22
ATOM     22  C   UNL     1       6.322   3.698  12.801  0.00  0.00    +0.000 C 
BRANCH  22  23
ATOM     23  C   UNL     1       5.571   2.744  11.875  0.00  0.00    +0.000 C 
ATOM     24  C   UNL     1       4.240   3.333  11.450  0.00  0.00    +0.000 C 
ENDBRANCH  22  23
ENDBRANCH  21  22
ENDBRANCH  20  21
ENDBRANCH   5  20
TORSDOF 8
ENDMDL
MODEL 6
REMARK VINA RESULT:      -7.3      1.742      4.751
REMARK  Name = 
REMARK  10 active torsions:
REMARK  status: ('A' for Active; 'I' for Inactive)
REMARK    1  A    between atoms: C_1  and  C_2
REMARK    2  A    between atoms: C_2  and  C_3
REMARK    3  A    between atoms: C_3  and  C_4
REMARK    4  A    between atoms: C_4  and  C_5
REMARK    5  A    between atoms: C_5  and  N_6
REMARK    6  A    between atoms: N_10  and  C_11
REMARK    7  A    between atoms: C_11  and  C_12
REMARK    8  A    between atoms: C_12  and  C_13
REMARK    9  A    between atoms: C_13  and  C_14
REMARK   10  A    between atoms: C_14  and  C_15
REMARK                            x       y       z     vdW  Elec       q    Type
REMARK                         _______ _______ _______ _____ _____    ______ ____
ROOT
ATOM      1  N   UNL     1       7.575   6.792  18.130  0.00  0.00    +0.000 N 
ATOM      2  C   UNL     1       7.142   5.926  17.130  0.00  0.00    +0.000 A 
ATOM      3  N   UNL     1       6.252   4.989  17.474  0.00  0.00    +0.000 NA
ATOM      4  C   UNL     1       5.826   4.145  16.509  0.00  0.00    +0.000 A 
ATOM      5  N   UNL     1       4.792   3.246  16.819  0.00  0.00    +0.000 N 
ATOM      6  C   UNL     1       6.280   4.238  15.187  0.00  0.00    +0.000 A 
ATOM      7  C   UNL     1       5.907   3.422  14.075  0.00  0.00    +0.000 A 
ATOM      8  C   UNL     1       6.431   3.665  12.805  0.00  0.00    +0.000 A 
ATOM      9  C   UNL     1       7.291   4.732  12.682  0.00  0.00    +0.000 A 
ATOM     10  N   UNL     1       7.647   5.526  13.713  0.00  0.00    +0.000 NA
ATOM     11  C   UNL     1       7.175   5.284  14.934  0.00  0.00    +0.000 A 
ATOM     12  N   UNL     1       7.593   6.091  15.892  0.00  0.00    +0.000 NA
ATOM     13  H   UNL     1       6.907   6.755  18.890  0.00  0.00    +0.000 HD
ATOM     14  H   UNL     1       4.874   2.307  16.451  0.00  0.00    +0.000 HD
ENDROOT
BRANCH   1  15
ATOM     15  C   UNL     1       7.941   8.119  17.648  0.00  0.00    +0.000 C 
BRANCH  15  16
ATOM     16  C   UNL     1       8.676   8.916  18.728  0.00  0.00    +0.000 C 
BRANCH  16  17
ATOM     17  C   UNL     1       8.927  10.363  18.300  0.00  0.00    +0.000 C 
BRANCH  17  19
ATOM     18  C   UNL     1       9.615  12.093  19.983  0.00  0.00    +0.000 C 
ATOM     19  C   UNL     1      10.097  10.987  19.056  0.00  0.00    +0.000 C 
ENDBRANCH  17  19
ENDBRANCH  16  17
ENDBRANCH  15  16
ENDBRANCH   1  15
BRANCH   5  20
ATOM     20  C   UNL     1       3.978   3.486  18.006  0.00  0.00    +0.000 C 
BRANCH  20  21
ATOM     21  C   UNL     1       2.481   3.402  17.723  0.00  0.00    +0.000 C 
BRANCH  21  22
ATOM     22  C   UNL     1       1.790   4.745  17.940  0.00  0.00    +0.000 C 
BRANCH  22  23
ATOM     23  C   UNL     1       2.410   5.495  19.117  0.00  0.00    +0.000 C 
ATOM     24  C   UNL     1       1.748   5.099  20.424  0.00  0.00    +0.000 C 
ENDBRANCH  22  23
ENDBRANCH  21  22
ENDBRANCH  20  21
ENDBRANCH   5  20
TORSDOF 8
ENDMDL
MODEL 7
REMARK VINA RESULT:      -7.3      2.915      5.760
REMARK  Name = 
REMARK  10 active torsions:
REMARK  status: ('A' for Active; 'I' for Inactive)
REMARK    1  A    between atoms: C_1  and  C_2
REMARK    2  A    between atoms: C_2  and  C_3
REMARK    3  A    between atoms: C_3  and  C_4
REMARK    4  A    between atoms: C_4  and  C_5
REMARK    5  A    between atoms: C_5  and  N_6
REMARK    6  A    between atoms: N_10  and  C_11
REMARK    7  A    between atoms: C_11  and  C_12
REMARK    8  A    between atoms: C_12  and  C_13
REMARK    9  A    between atoms: C_13  and  C_14
REMARK   10  A    between atoms: C_14  and  C_15
REMARK                            x       y       z     vdW  Elec       q    Type
REMARK                         _______ _______ _______ _____ _____    ______ ____
ROOT
ATOM      1  N   UNL     1       2.433   3.039  17.174  0.00  0.00    +0.000 N 
ATOM      2  C   UNL     1       3.733   3.537  17.208  0.00  0.00    +0.000 A 
ATOM      3  N   UNL     1       4.429   3.510  16.066  0.00  0.00    +0.000 NA
ATOM      4  C   UNL     1       5.690   3.992  16.090  0.00  0.00    +0.000 A 
ATOM      5  N   UNL     1       6.386   4.099  14.875  0.00  0.00    +0.000 N 
ATOM      6  C   UNL     1       6.263   4.515  17.257  0.00  0.00    +0.000 A 
ATOM      7  C   UNL     1       7.574   5.062  17.417  0.00  0.00    +0.000 A 
ATOM      8  C   UNL     1       7.987   5.575  18.648  0.00  0.00    +0.000 A 
ATOM      9  C   UNL     1       7.068   5.549  19.671  0.00  0.00    +0.000 A 
ATOM     10  N   UNL     1       5.820   5.052  19.541  0.00  0.00    +0.000 NA
ATOM     11  C   UNL     1       5.426   4.533  18.379  0.00  0.00    +0.000 A 
ATOM     12  N   UNL     1       4.201   4.044  18.342  0.00  0.00    +0.000 NA
ATOM     13  H   UNL     1       2.129   3.018  16.209  0.00  0.00    +0.000 HD
ATOM     14  H   UNL     1       7.365   3.845  14.882  0.00  0.00    +0.000 HD
ENDROOT
BRANCH   1  15
ATOM     15  C   UNL     1       1.530   3.672  18.129  0.00  0.00    +0.000 C 
BRANCH  15  16
ATOM     16  C   UNL     1       0.782   2.627  18.959  0.00  0.00    +0.000 C 
BRANCH  16  17
ATOM     17  C   UNL     1       0.681   3.032  20.431  0.00  0.00    +0.000 C 
BRANCH  17  19
ATOM     18  C   UNL     1       2.538   4.344  21.495  0.00  0.00    +0.000 C 
ATOM     19  C   UNL     1       2.032   2.954  21.139  0.00  0.00    +0.000 C 
ENDBRANCH  17  19
ENDBRANCH  16  17
ENDBRANCH  15  16
ENDBRANCH   1  15
BRANCH   5  20
ATOM     20  C   UNL     1       5.637   4.045  13.624  0.00  0.00    +0.000 C 
BRANCH  20  21
ATOM     21  C   UNL     1       6.468   3.514  12.459  0.00  0.00    +0.000 C 
BRANCH  21  22
ATOM     22  C   UNL     1       5.729   2.423  11.691  0.00  0.00    +0.000 C 
BRANCH  22  23
ATOM     23  C   UNL     1       6.704   1.386  11.138  0.00  0.00    +0.000 C 
ATOM     24  C   UNL     1       6.120  -0.011  11.224  0.00  0.00    +0.000 C 
ENDBRANCH  22  23
ENDBRANCH  21  22
ENDBRANCH  20  21
ENDBRANCH   5  20
TORSDOF 8
ENDMDL
MODEL 8
REMARK VINA RESULT:      -7.2      1.106      7.500
REMARK  Name = 
REMARK  10 active torsions:
REMARK  status: ('A' for Active; 'I' for Inactive)
REMARK    1  A    between atoms: C_1  and  C_2
REMARK    2  A    between atoms: C_2  and  C_3
REMARK    3  A    between atoms: C_3  and  C_4
REMARK    4  A    between atoms: C_4  and  C_5
REMARK    5  A    between atoms: C_5  and  N_6
REMARK    6  A    between atoms: N_10  and  C_11
REMARK    7  A    between atoms: C_11  and  C_12
REMARK    8  A    between atoms: C_12  and  C_13
REMARK    9  A    between atoms: C_13  and  C_14
REMARK   10  A    between atoms: C_14  and  C_15
REMARK                            x       y       z     vdW  Elec       q    Type
REMARK                         _______ _______ _______ _____ _____    ______ ____
ROOT
ATOM      1  N   UNL     1       6.890   4.687  13.994  0.00  0.00    +0.000 N 
ATOM      2  C   UNL     1       6.473   4.761  15.320  0.00  0.00    +0.000 A 
ATOM      3  N   UNL     1       7.058   5.681  16.095  0.00  0.00    +0.000 NA
ATOM      4  C   UNL     1       6.658   5.760  17.383  0.00  0.00    +0.000 A 
ATOM      5  N   UNL     1       7.159   6.808  18.172  0.00  0.00    +0.000 N 
ATOM      6  C   UNL     1       5.662   4.924  17.904  0.00  0.00    +0.000 A 
ATOM      7  C   UNL     1       5.142   4.909  19.236  0.00  0.00    +0.000 A 
ATOM      8  C   UNL     1       4.120   4.028  19.592  0.00  0.00    +0.000 A 
ATOM      9  C   UNL     1       3.633   3.208  18.600  0.00  0.00    +0.000 A 
ATOM     10  N   UNL     1       4.096   3.215  17.333  0.00  0.00    +0.000 NA
ATOM     11  C   UNL     1       5.091   4.031  16.990  0.00  0.00    +0.000 A 
ATOM     12  N   UNL     1       5.503   3.956  15.738  0.00  0.00    +0.000 NA
ATOM     13  H   UNL     1       7.357   5.554  13.761  0.00  0.00    +0.000 HD
ATOM     14  H   UNL     1       7.408   6.584  19.128  0.00  0.00    +0.000 HD
ENDROOT
BRANCH   1  15
ATOM     15  C   UNL     1       5.855   4.236  13.071  0.00  0.00    +0.000 C 
BRANCH  15  16
ATOM     16  C   UNL     1       6.295   2.979  12.318  0.00  0.00    +0.000 C 
BRANCH  16  17
ATOM     17  C   UNL     1       5.251   2.531  11.293  0.00  0.00    +0.000 C 
BRANCH  17  19
ATOM     18  C   UNL     1       3.271   3.507  10.098  0.00  0.00    +0.000 C 
ATOM     19  C   UNL     1       3.936   3.290  11.449  0.00  0.00    +0.000 C 
ENDBRANCH  17  19
ENDBRANCH  16  17
ENDBRANCH  15  16
ENDBRANCH   1  15
BRANCH   5  20
ATOM     20  C   UNL     1       7.777   7.955  17.517  0.00  0.00    +0.000 C 
BRANCH  20  21
ATOM     21  C   UNL     1       8.630   8.791  18.467  0.00  0.00    +0.000 C 
BRANCH  21  22
ATOM     22  C   UNL     1       8.568  10.276  18.121  0.00  0.00    +0.000 C 
BRANCH  22  23
ATOM     23  C   UNL     1       9.796  11.013  18.651  0.00  0.00    +0.000 C 
ATOM     24  C   UNL     1       9.809  11.029  20.168  0.00  0.00    +0.000 C 
ENDBRANCH  22  23
ENDBRANCH  21  22
ENDBRANCH  20  21
ENDBRANCH   5  20
TORSDOF 8
ENDMDL
MODEL 9
REMARK VINA RESULT:      -7.2      3.554      7.148
REMARK  Name = 
REMARK  10 active torsions:
REMARK  status: ('A' for Active; 'I' for Inactive)
REMARK    1  A    between atoms: C_1  and  C_2
REMARK    2  A    between atoms: C_2  and  C_3
REMARK    3  A    between atoms: C_3  and  C_4
REMARK    4  A    between atoms: C_4  and  C_5
REMARK    5  A    between atoms: C_5  and  N_6
REMARK    6  A    between atoms: N_10  and  C_11
REMARK    7  A    between atoms: C_11  and  C_12
REMARK    8  A    between atoms: C_12  and  C_13
REMARK    9  A    between atoms: C_13  and  C_14
REMARK   10  A    between atoms: C_14  and  C_15
REMARK                            x       y       z     vdW  Elec       q    Type
REMARK                         _______ _______ _______ _____ _____    ______ ____
ROOT
ATOM      1  N   UNL     1       5.619   5.178  15.658  0.00  0.00    +0.000 N 
ATOM      2  C   UNL     1       4.584   5.020  16.574  0.00  0.00    +0.000 A 
ATOM      3  N   UNL     1       4.102   6.127  17.151  0.00  0.00    +0.000 NA
ATOM      4  C   UNL     1       3.097   5.982  18.042  0.00  0.00    +0.000 A 
ATOM      5  N   UNL     1       2.488   7.139  18.552  0.00  0.00    +0.000 N 
ATOM      6  C   UNL     1       2.557   4.728  18.355  0.00  0.00    +0.000 A 
ATOM      7  C   UNL     1       1.494   4.436  19.265  0.00  0.00    +0.000 A 
ATOM      8  C   UNL     1       1.049   3.126  19.444  0.00  0.00    +0.000 A 
ATOM      9  C   UNL     1       1.663   2.152  18.690  0.00  0.00    +0.000 A 
ATOM     10  N   UNL     1       2.658   2.404  17.814  0.00  0.00    +0.000 NA
ATOM     11  C   UNL     1       3.109   3.647  17.657  0.00  0.00    +0.000 A 
ATOM     12  N   UNL     1       4.102   3.804  16.801  0.00  0.00    +0.000 NA
ATOM     13  H   UNL     1       5.628   6.145  15.356  0.00  0.00    +0.000 HD
ATOM     14  H   UNL     1       2.252   7.139  19.536  0.00  0.00    +0.000 HD
ENDROOT
BRANCH   1  15
ATOM     15  C   UNL     1       5.641   4.167  14.607  0.00  0.00    +0.000 C 
BRANCH  15  16
ATOM     16  C   UNL     1       6.882   4.315  13.724  0.00  0.00    +0.000 C 
BRANCH  16  17
ATOM     17  C   UNL     1       6.585   3.978  12.260  0.00  0.00    +0.000 C 
BRANCH  17  19
ATOM     18  C   UNL     1       4.362   3.276  11.332  0.00  0.00    +0.000 C 
ATOM     19  C   UNL     1       5.580   2.837  12.130  0.00  0.00    +0.000 C 
ENDBRANCH  17  19
ENDBRANCH  16  17
ENDBRANCH  15  16
ENDBRANCH   1  15
BRANCH   5  20
ATOM     20  C   UNL     1       2.687   8.408  17.861  0.00  0.00    +0.000 C 
BRANCH  20  21
ATOM     21  C   UNL     1       1.493   9.349  17.993  0.00  0.00    +0.000 C 
BRANCH  21  22
ATOM     22  C   UNL     1       0.943   9.364  19.416  0.00  0.00    +0.000 C 
BRANCH  22  23
ATOM     23  C   UNL     1      -0.023  10.530  19.616  0.00  0.00    +0.000 C 
ATOM     24  C   UNL     1      -1.277  10.348  18.783  0.00  0.00    +0.000 C 
ENDBRANCH  22  23
ENDBRANCH  21  22
ENDBRANCH  20  21
ENDBRANCH   5  20
TORSDOF 8
ENDMDL
