MODEL 1
REMARK VINA RESULT:      -7.3      0.000      0.000
REMARK  Name = 
REMARK  4 active torsions:
REMARK  status: ('A' for Active; 'I' for Inactive)
REMARK    1  A    between atoms: S_2  and  N_4
REMARK    2  A    between atoms: S_2  and  C_10
REMARK    3  A    between atoms: C_14  and  N_15
REMARK    4  A    between atoms: N_15  and  C_16
REMARK                            x       y       z     vdW  Elec       q    Type
REMARK                         _______ _______ _______ _____ _____    ______ ____
ROOT
ATOM      1  C   UNL     1       2.794   7.284  18.815  0.00  0.00    +0.000 A 
ATOM      2  C   UNL     1       2.074   7.473  19.992  0.00  0.00    +0.000 A 
ATOM      3  C   UNL     1       1.228   8.581  20.103  0.00  0.00    +0.000 A 
ATOM      4 CL   UNL     1       0.358   8.787  21.587  0.00  0.00    +0.000 Cl
ATOM      5  C   UNL     1       1.101   9.530  19.061  0.00  0.00    +0.000 A 
ATOM      6  C   UNL     1       1.824   9.294  17.884  0.00  0.00    +0.000 A 
ATOM      7  C   UNL     1       2.668   8.186  17.769  0.00  0.00    +0.000 A 
ATOM      8  F   UNL     1       3.336   8.006  16.621  0.00  0.00    +0.000 F 
ENDROOT
BRANCH   1  10
ATOM      9  O   UNL     1       3.941   5.268  19.950  0.00  0.00    +0.000 OA
ATOM     10  S   UNL     1       3.915   5.933  18.664  0.00  0.00    +0.000 S 
ATOM     11  O   UNL     1       5.125   6.450  18.065  0.00  0.00    +0.000 OA
BRANCH  10  12
ATOM     12  N   UNL     1       3.152   4.956  17.504  0.00  0.00    +0.000 N 
ATOM     13  C   UNL     1       2.781   3.707  18.062  0.00  0.00    +0.000 A 
ATOM     14  N   UNL     1       3.545   2.667  17.838  0.00  0.00    +0.000 NA
ATOM     15  C   UNL     1       2.994   1.567  18.468  0.00  0.00    +0.000 A 
ATOM     16  C   UNL     1       1.770   1.774  19.070  0.00  0.00    +0.000 A 
ATOM     17  S   UNL     1       1.307   3.416  18.874  0.00  0.00    +0.000 S 
ATOM     18  H   UNL     1       3.882   4.747  16.820  0.00  0.00    +0.000 HD
ENDBRANCH  10  12
ENDBRANCH   1  10
BRANCH   5  19
ATOM     19  N   UNL     1       0.192  10.589  19.187  0.00  0.00    +0.000 N 
ATOM     20  H   UNL     1       0.581  11.455  18.808  0.00  0.00    +0.000 HD
BRANCH  19  21
ATOM     21  C   UNL     1      -1.245  10.436  18.935  0.00  0.00    +0.000 C 
ATOM     22  C   UNL     1      -1.504   9.958  17.499  0.00  0.00    +0.000 C 
ATOM     23  C   UNL     1      -2.992  10.015  17.161  0.00  0.00    +0.000 C 
ATOM     24  C   UNL     1      -3.568  11.389  17.473  0.00  0.00    +0.000 C 
ATOM     25  O   UNL     1      -3.347  11.721  18.843  0.00  0.00    +0.000 OA
ATOM     26  C   UNL     1      -1.954  11.789  19.159  0.00  0.00    +0.000 C 
ENDBRANCH  19  21
ENDBRANCH   5  19
TORSDOF 4
ENDMDL
MODEL 2
REMARK VINA RESULT:      -7.3      3.374      7.658
REMARK  Name = 
REMARK  4 active torsions:
REMARK  status: ('A' for Active; 'I' for Inactive)
REMARK    1  A    between atoms: S_2  and  N_4
REMARK    2  A    between atoms: S_2  and  C_10
REMARK    3  A    between atoms: C_14  and  N_15
REMARK    4  A    between atoms: N_15  and  C_16
REMARK                            x       y       z     vdW  Elec       q    Type
REMARK                         _______ _______ _______ _____ _____    ______ ____
ROOT
ATOM      1  C   UNL     1       1.345   9.167  19.401  0.00  0.00    +0.000 A 
ATOM      2  C   UNL     1       1.398   8.026  20.200  0.00  0.00    +0.000 A 
ATOM      3  C   UNL     1       2.128   6.920  19.759  0.00  0.00    +0.000 A 
ATOM      4 CL   UNL     1       2.160   5.516  20.776  0.00  0.00    +0.000 Cl
ATOM      5  C   UNL     1       2.797   6.915  18.511  0.00  0.00    +0.000 A 
ATOM      6  C   UNL     1       2.740   8.087  17.747  0.00  0.00    +0.000 A 
ATOM      7  C   UNL     1       2.013   9.197  18.186  0.00  0.00    +0.000 A 
ATOM      8  F   UNL     1       1.991  10.294  17.417  0.00  0.00    +0.000 F 
ENDROOT
BRANCH   1  10
ATOM      9  O   UNL     1       1.282  11.463  20.582  0.00  0.00    +0.000 OA
ATOM     10  S   UNL     1       0.383  10.558  19.897  0.00  0.00    +0.000 S 
ATOM     11  O   UNL     1      -0.801  10.044  20.549  0.00  0.00    +0.000 OA
BRANCH  10  12
ATOM     12  N   UNL     1      -0.101  11.214  18.408  0.00  0.00    +0.000 N 
ATOM     13  C   UNL     1      -1.448  10.879  18.123  0.00  0.00    +0.000 A 
ATOM     14  N   UNL     1      -1.688   9.889  17.300  0.00  0.00    +0.000 NA
ATOM     15  C   UNL     1      -3.056   9.744  17.167  0.00  0.00    +0.000 A 
ATOM     16  C   UNL     1      -3.823  10.693  17.812  0.00  0.00    +0.000 A 
ATOM     17  S   UNL     1      -2.796  11.786  18.648  0.00  0.00    +0.000 S 
ATOM     18  H   UNL     1       0.461  10.720  17.712  0.00  0.00    +0.000 HD
ENDBRANCH  10  12
ENDBRANCH   1  10
BRANCH   5  19
ATOM     19  N   UNL     1       3.572   5.809  18.139  0.00  0.00    +0.000 N 
ATOM     20  H   UNL     1       3.150   5.312  17.351  0.00  0.00    +0.000 HD
BRANCH  19  21
ATOM     21  C   UNL     1       5.038   5.849  18.084  0.00  0.00    +0.000 C 
ATOM     22  C   UNL     1       5.532   5.955  16.634  0.00  0.00    +0.000 C 
ATOM     23  C   UNL     1       7.046   5.768  16.555  0.00  0.00    +0.000 C 
ATOM     24  C   UNL     1       7.475   4.494  17.268  0.00  0.00    +0.000 C 
ATOM     25  O   UNL     1       7.038   4.514  18.626  0.00  0.00    +0.000 OA
ATOM     26  C   UNL     1       5.612   4.570  18.729  0.00  0.00    +0.000 C 
ENDBRANCH  19  21
ENDBRANCH   5  19
TORSDOF 4
ENDMDL
MODEL 3
REMARK VINA RESULT:      -7.3      3.847      8.217
REMARK  Name = 
REMARK  4 active torsions:
REMARK  status: ('A' for Active; 'I' for Inactive)
REMARK    1  A    between atoms: S_2  and  N_4
REMARK    2  A    between atoms: S_2  and  C_10
REMARK    3  A    between atoms: C_14  and  N_15
REMARK    4  A    between atoms: N_15  and  C_16
REMARK                            x       y       z     vdW  Elec       q    Type
REMARK                         _______ _______ _______ _____ _____    ______ ____
ROOT
ATOM      1  C   UNL     1       0.462  10.157  20.036  0.00  0.00    +0.000 A 
ATOM      2  C   UNL     1       1.225   9.731  18.951  0.00  0.00    +0.000 A 
ATOM      3  C   UNL     1       1.886   8.502  19.024  0.00  0.00    +0.000 A 
ATOM      4 CL   UNL     1       2.834   8.012  17.659  0.00  0.00    +0.000 Cl
ATOM      5  C   UNL     1       1.823   7.687  20.181  0.00  0.00    +0.000 A 
ATOM      6  C   UNL     1       1.028   8.139  21.242  0.00  0.00    +0.000 A 
ATOM      7  C   UNL     1       0.363   9.366  21.171  0.00  0.00    +0.000 A 
ATOM      8  F   UNL     1      -0.386   9.751  22.214  0.00  0.00    +0.000 F 
ENDROOT
BRANCH   1  10
ATOM      9  O   UNL     1       0.221  12.502  21.090  0.00  0.00    +0.000 OA
ATOM     10  S   UNL     1      -0.335  11.728  20.001  0.00  0.00    +0.000 S 
ATOM     11  O   UNL     1      -1.757  11.481  19.908  0.00  0.00    +0.000 OA
BRANCH  10  12
ATOM     12  N   UNL     1       0.168  12.357  18.506  0.00  0.00    +0.000 N 
ATOM     13  C   UNL     1       0.968  13.513  18.689  0.00  0.00    +0.000 A 
ATOM     14  N   UNL     1       0.417  14.690  18.536  0.00  0.00    +0.000 NA
ATOM     15  C   UNL     1       1.375  15.662  18.756  0.00  0.00    +0.000 A 
ATOM     16  C   UNL     1       2.657  15.199  18.970  0.00  0.00    +0.000 A 
ATOM     17  S   UNL     1       2.658  13.482  18.933  0.00  0.00    +0.000 S 
ATOM     18  H   UNL     1      -0.691  12.684  18.059  0.00  0.00    +0.000 HD
ENDBRANCH  10  12
ENDBRANCH   1  10
BRANCH   5  19
ATOM     19  N   UNL     1       2.446   6.433  20.187  0.00  0.00    +0.000 N 
ATOM     20  H   UNL     1       3.237   6.418  20.834  0.00  0.00    +0.000 HD
BRANCH  19  21
ATOM     21  C   UNL     1       1.695   5.172  20.156  0.00  0.00    +0.000 C 
ATOM     22  C   UNL     1       2.151   4.233  21.280  0.00  0.00    +0.000 C 
ATOM     23  C   UNL     1       1.539   2.843  21.116  0.00  0.00    +0.000 C 
ATOM     24  C   UNL     1       1.786   2.302  19.715  0.00  0.00    +0.000 C 
ATOM     25  O   UNL     1       1.267   3.202  18.737  0.00  0.00    +0.000 OA
ATOM     26  C   UNL     1       1.907   4.480  18.792  0.00  0.00    +0.000 C 
ENDBRANCH  19  21
ENDBRANCH   5  19
TORSDOF 4
ENDMDL
MODEL 4
REMARK VINA RESULT:      -7.3      3.360      7.572
REMARK  Name = 
REMARK  4 active torsions:
REMARK  status: ('A' for Active; 'I' for Inactive)
REMARK    1  A    between atoms: S_2  and  N_4
REMARK    2  A    between atoms: S_2  and  C_10
REMARK    3  A    between atoms: C_14  and  N_15
REMARK    4  A    between atoms: N_15  and  C_16
REMARK                            x       y       z     vdW  Elec       q    Type
REMARK                         _______ _______ _______ _____ _____    ______ ____
ROOT
ATOM      1  C   UNL     1       1.537   8.899  19.305  0.00  0.00    +0.000 A 
ATOM      2  C   UNL     1       1.604   7.743  20.080  0.00  0.00    +0.000 A 
ATOM      3  C   UNL     1       2.401   6.680  19.649  0.00  0.00    +0.000 A 
ATOM      4 CL   UNL     1       2.449   5.255  20.635  0.00  0.00    +0.000 Cl
ATOM      5  C   UNL     1       3.127   6.734  18.434  0.00  0.00    +0.000 A 
ATOM      6  C   UNL     1       3.053   7.921  17.694  0.00  0.00    +0.000 A 
ATOM      7  C   UNL     1       2.258   8.987  18.123  0.00  0.00    +0.000 A 
ATOM      8  F   UNL     1       2.224  10.101  17.379  0.00  0.00    +0.000 F 
ENDROOT
BRANCH   1  10
ATOM      9  O   UNL     1       1.331  11.186  20.486  0.00  0.00    +0.000 OA
ATOM     10  S   UNL     1       0.494  10.235  19.786  0.00  0.00    +0.000 S 
ATOM     11  O   UNL     1      -0.672   9.657  20.417  0.00  0.00    +0.000 OA
BRANCH  10  12
ATOM     12  N   UNL     1      -0.000  10.867  18.290  0.00  0.00    +0.000 N 
ATOM     13  C   UNL     1      -1.399  10.721  18.117  0.00  0.00    +0.000 A 
ATOM     14  N   UNL     1      -1.841   9.731  17.383  0.00  0.00    +0.000 NA
ATOM     15  C   UNL     1      -3.222   9.785  17.350  0.00  0.00    +0.000 A 
ATOM     16  C   UNL     1      -3.793  10.874  17.976  0.00  0.00    +0.000 A 
ATOM     17  S   UNL     1      -2.558  11.849  18.664  0.00  0.00    +0.000 S 
ATOM     18  H   UNL     1       0.430  10.254  17.594  0.00  0.00    +0.000 HD
ENDBRANCH  10  12
ENDBRANCH   1  10
BRANCH   5  19
ATOM     19  N   UNL     1       3.966   5.672  18.074  0.00  0.00    +0.000 N 
ATOM     20  H   UNL     1       3.548   4.772  18.320  0.00  0.00    +0.000 HD
BRANCH  19  21
ATOM     21  C   UNL     1       4.710   5.642  16.809  0.00  0.00    +0.000 C 
ATOM     22  C   UNL     1       4.731   4.226  16.217  0.00  0.00    +0.000 C 
ATOM     23  C   UNL     1       5.688   4.141  15.029  0.00  0.00    +0.000 C 
ATOM     24  C   UNL     1       7.062   4.683  15.398  0.00  0.00    +0.000 C 
ATOM     25  O   UNL     1       6.956   6.025  15.869  0.00  0.00    +0.000 OA
ATOM     26  C   UNL     1       6.158   6.117  17.052  0.00  0.00    +0.000 C 
ENDBRANCH  19  21
ENDBRANCH   5  19
TORSDOF 4
ENDMDL
MODEL 5
REMARK VINA RESULT:      -7.3      1.148      1.292
REMARK  Name = 
REMARK  4 active torsions:
REMARK  status: ('A' for Active; 'I' for Inactive)
REMARK    1  A    between atoms: S_2  and  N_4
REMARK    2  A    between atoms: S_2  and  C_10
REMARK    3  A    between atoms: C_14  and  N_15
REMARK    4  A    between atoms: N_15  and  C_16
REMARK                            x       y       z     vdW  Elec       q    Type
REMARK                         _______ _______ _______ _____ _____    ______ ____
ROOT
ATOM      1  C   UNL     1       2.876   7.063  18.758  0.00  0.00    +0.000 A 
ATOM      2  C   UNL     1       2.146   7.263  19.928  0.00  0.00    +0.000 A 
ATOM      3  C   UNL     1       1.361   8.413  20.053  0.00  0.00    +0.000 A 
ATOM      4 CL   UNL     1       0.477   8.631  21.528  0.00  0.00    +0.000 Cl
ATOM      5  C   UNL     1       1.306   9.394  19.034  0.00  0.00    +0.000 A 
ATOM      6  C   UNL     1       2.035   9.146  17.863  0.00  0.00    +0.000 A 
ATOM      7  C   UNL     1       2.818   7.996  17.734  0.00  0.00    +0.000 A 
ATOM      8  F   UNL     1       3.495   7.807  16.593  0.00  0.00    +0.000 F 
ENDROOT
BRANCH   1  10
ATOM      9  O   UNL     1       5.281   6.124  18.762  0.00  0.00    +0.000 OA
ATOM     10  S   UNL     1       3.922   5.655  18.592  0.00  0.00    +0.000 S 
ATOM     11  O   UNL     1       3.514   4.963  17.390  0.00  0.00    +0.000 OA
BRANCH  10  12
ATOM     12  N   UNL     1       3.454   4.697  19.913  0.00  0.00    +0.000 N 
ATOM     13  C   UNL     1       2.609   3.639  19.495  0.00  0.00    +0.000 A 
ATOM     14  N   UNL     1       1.316   3.768  19.653  0.00  0.00    +0.000 NA
ATOM     15  C   UNL     1       0.694   2.625  19.184  0.00  0.00    +0.000 A 
ATOM     16  C   UNL     1       1.538   1.613  18.774  0.00  0.00    +0.000 A 
ATOM     17  S   UNL     1       3.168   2.122  18.946  0.00  0.00    +0.000 S 
ATOM     18  H   UNL     1       2.868   5.310  20.484  0.00  0.00    +0.000 HD
ENDBRANCH  10  12
ENDBRANCH   1  10
BRANCH   5  19
ATOM     19  N   UNL     1       0.455  10.498  19.172  0.00  0.00    +0.000 N 
ATOM     20  H   UNL     1       0.863  11.333  18.745  0.00  0.00    +0.000 HD
BRANCH  19  21
ATOM     21  C   UNL     1      -1.000  10.407  19.000  0.00  0.00    +0.000 C 
ATOM     22  C   UNL     1      -1.358   9.939  17.583  0.00  0.00    +0.000 C 
ATOM     23  C   UNL     1      -2.859  10.060  17.327  0.00  0.00    +0.000 C 
ATOM     24  C   UNL     1      -3.357  11.457  17.667  0.00  0.00    +0.000 C 
ATOM     25  O   UNL     1      -3.046  11.780  19.021  0.00  0.00    +0.000 OA
ATOM     26  C   UNL     1      -1.636  11.788  19.260  0.00  0.00    +0.000 C 
ENDBRANCH  19  21
ENDBRANCH   5  19
TORSDOF 4
ENDMDL
MODEL 6
REMARK VINA RESULT:      -7.1      2.095      2.705
REMARK  Name = 
REMARK  4 active torsions:
REMARK  status: ('A' for Active; 'I' for Inactive)
REMARK    1  A    between atoms: S_2  and  N_4
REMARK    2  A    between atoms: S_2  and  C_10
REMARK    3  A    between atoms: C_14  and  N_15
REMARK    4  A    between atoms: N_15  and  C_16
REMARK                            x       y       z     vdW  Elec       q    Type
REMARK                         _______ _______ _______ _____ _____    ______ ____
ROOT
ATOM      1  C   UNL     1       2.508   6.843  19.282  0.00  0.00    +0.000 A 
ATOM      2  C   UNL     1       1.830   7.208  20.443  0.00  0.00    +0.000 A 
ATOM      3  C   UNL     1       1.158   8.433  20.482  0.00  0.00    +0.000 A 
ATOM      4 CL   UNL     1       0.336   8.857  21.948  0.00  0.00    +0.000 Cl
ATOM      5  C   UNL     1       1.166   9.325  19.382  0.00  0.00    +0.000 A 
ATOM      6  C   UNL     1       1.840   8.913  18.225  0.00  0.00    +0.000 A 
ATOM      7  C   UNL     1       2.510   7.687  18.182  0.00  0.00    +0.000 A 
ATOM      8  F   UNL     1       3.138   7.340  17.050  0.00  0.00    +0.000 F 
ENDROOT
BRANCH   1  10
ATOM      9  O   UNL     1       3.329   4.851  17.857  0.00  0.00    +0.000 OA
ATOM     10  S   UNL     1       3.416   5.334  19.219  0.00  0.00    +0.000 S 
ATOM     11  O   UNL     1       2.970   4.524  20.331  0.00  0.00    +0.000 OA
BRANCH  10  12
ATOM     12  N   UNL     1       4.997   5.847  19.567  0.00  0.00    +0.000 N 
ATOM     13  C   UNL     1       5.862   5.595  18.474  0.00  0.00    +0.000 A 
ATOM     14  N   UNL     1       6.634   4.539  18.513  0.00  0.00    +0.000 NA
ATOM     15  C   UNL     1       7.388   4.495  17.355  0.00  0.00    +0.000 A 
ATOM     16  C   UNL     1       7.245   5.576  16.509  0.00  0.00    +0.000 A 
ATOM     17  S   UNL     1       6.096   6.670  17.167  0.00  0.00    +0.000 S 
ATOM     18  H   UNL     1       5.312   5.228  20.317  0.00  0.00    +0.000 HD
ENDBRANCH  10  12
ENDBRANCH   1  10
BRANCH   5  19
ATOM     19  N   UNL     1       0.425  10.512  19.440  0.00  0.00    +0.000 N 
ATOM     20  H   UNL     1       0.896  11.265  18.934  0.00  0.00    +0.000 HD
BRANCH  19  21
ATOM     21  C   UNL     1      -1.036  10.543  19.304  0.00  0.00    +0.000 C 
ATOM     22  C   UNL     1      -1.474   9.982  17.944  0.00  0.00    +0.000 C 
ATOM     23  C   UNL     1      -2.964  10.220  17.706  0.00  0.00    +0.000 C 
ATOM     24  C   UNL     1      -3.322  11.684  17.921  0.00  0.00    +0.000 C 
ATOM     25  O   UNL     1      -2.946  12.100  19.232  0.00  0.00    +0.000 OA
ATOM     26  C   UNL     1      -1.535  11.997  19.443  0.00  0.00    +0.000 C 
ENDBRANCH  19  21
ENDBRANCH   5  19
TORSDOF 4
ENDMDL
MODEL 7
REMARK VINA RESULT:      -7.1      3.539      8.158
REMARK  Name = 
REMARK  4 active torsions:
REMARK  status: ('A' for Active; 'I' for Inactive)
REMARK    1  A    between atoms: S_2  and  N_4
REMARK    2  A    between atoms: S_2  and  C_10
REMARK    3  A    between atoms: C_14  and  N_15
REMARK    4  A    between atoms: N_15  and  C_16
REMARK                            x       y       z     vdW  Elec       q    Type
REMARK                         _______ _______ _______ _____ _____    ______ ____
ROOT
ATOM      1  C   UNL     1       1.234   8.679  20.228  0.00  0.00    +0.000 A 
ATOM      2  C   UNL     1       1.449   7.406  20.752  0.00  0.00    +0.000 A 
ATOM      3  C   UNL     1       2.164   6.472  19.998  0.00  0.00    +0.000 A 
ATOM      4 CL   UNL     1       2.402   4.895  20.679  0.00  0.00    +0.000 Cl
ATOM      5  C   UNL     1       2.657   6.774  18.706  0.00  0.00    +0.000 A 
ATOM      6  C   UNL     1       2.440   8.071  18.223  0.00  0.00    +0.000 A 
ATOM      7  C   UNL     1       1.728   9.009  18.975  0.00  0.00    +0.000 A 
ATOM      8  F   UNL     1       1.550  10.236  18.467  0.00  0.00    +0.000 F 
ENDROOT
BRANCH   1  10
ATOM      9  O   UNL     1       1.191  10.923  21.505  0.00  0.00    +0.000 OA
ATOM     10  S   UNL     1       0.284   9.861  21.125  0.00  0.00    +0.000 S 
ATOM     11  O   UNL     1      -0.473   9.132  22.119  0.00  0.00    +0.000 OA
BRANCH  10  12
ATOM     12  N   UNL     1      -0.815  10.409  19.952  0.00  0.00    +0.000 N 
ATOM     13  C   UNL     1      -1.063  11.796  20.101  0.00  0.00    +0.000 A 
ATOM     14  N   UNL     1      -2.156  12.177  20.713  0.00  0.00    +0.000 NA
ATOM     15  C   UNL     1      -2.192  13.559  20.740  0.00  0.00    +0.000 A 
ATOM     16  C   UNL     1      -1.176  14.196  20.057  0.00  0.00    +0.000 A 
ATOM     17  S   UNL     1      -0.114  13.024  19.388  0.00  0.00    +0.000 S 
ATOM     18  H   UNL     1      -1.696   9.945  20.184  0.00  0.00    +0.000 HD
ENDBRANCH  10  12
ENDBRANCH   1  10
BRANCH   5  19
ATOM     19  N   UNL     1       3.426   5.831  18.013  0.00  0.00    +0.000 N 
ATOM     20  H   UNL     1       3.004   5.603  17.110  0.00  0.00    +0.000 HD
BRANCH  19  21
ATOM     21  C   UNL     1       4.893   5.874  17.975  0.00  0.00    +0.000 C 
ATOM     22  C   UNL     1       5.404   5.951  16.530  0.00  0.00    +0.000 C 
ATOM     23  C   UNL     1       6.920   5.768  16.474  0.00  0.00    +0.000 C 
ATOM     24  C   UNL     1       7.343   4.510  17.218  0.00  0.00    +0.000 C 
ATOM     25  O   UNL     1       6.889   4.556  18.570  0.00  0.00    +0.000 OA
ATOM     26  C   UNL     1       5.462   4.610  18.654  0.00  0.00    +0.000 C 
ENDBRANCH  19  21
ENDBRANCH   5  19
TORSDOF 4
ENDMDL
MODEL 8
REMARK VINA RESULT:      -7.1      3.579      8.220
REMARK  Name = 
REMARK  4 active torsions:
REMARK  status: ('A' for Active; 'I' for Inactive)
REMARK    1  A    between atoms: S_2  and  N_4
REMARK    2  A    between atoms: S_2  and  C_10
REMARK    3  A    between atoms: C_14  and  N_15
REMARK    4  A    between atoms: N_15  and  C_16
REMARK                            x       y       z     vdW  Elec       q    Type
REMARK                         _______ _______ _______ _____ _____    ______ ____
ROOT
ATOM      1  C   UNL     1       1.136   8.899  19.886  0.00  0.00    +0.000 A 
ATOM      2  C   UNL     1       1.402   7.702  20.549  0.00  0.00    +0.000 A 
ATOM      3  C   UNL     1       2.174   6.728  19.912  0.00  0.00    +0.000 A 
ATOM      4 CL   UNL     1       2.473   5.249  20.765  0.00  0.00    +0.000 Cl
ATOM      5  C   UNL     1       2.676   6.911  18.601  0.00  0.00    +0.000 A 
ATOM      6  C   UNL     1       2.407   8.136  17.975  0.00  0.00    +0.000 A 
ATOM      7  C   UNL     1       1.637   9.114  18.611  0.00  0.00    +0.000 A 
ATOM      8  F   UNL     1       1.410  10.268  17.969  0.00  0.00    +0.000 F 
ENDROOT
BRANCH   1  10
ATOM      9  O   UNL     1      -0.221   9.635  21.956  0.00  0.00    +0.000 OA
ATOM     10  S   UNL     1       0.114  10.124  20.636  0.00  0.00    +0.000 S 
ATOM     11  O   UNL     1      -0.915  10.461  19.678  0.00  0.00    +0.000 OA
BRANCH  10  12
ATOM     12  N   UNL     1       1.164  11.455  20.743  0.00  0.00    +0.000 N 
ATOM     13  C   UNL     1       0.501  12.650  20.370  0.00  0.00    +0.000 A 
ATOM     14  N   UNL     1       0.687  13.121  19.162  0.00  0.00    +0.000 NA
ATOM     15  C   UNL     1      -0.045  14.285  19.021  0.00  0.00    +0.000 A 
ATOM     16  C   UNL     1      -0.689  14.727  20.159  0.00  0.00    +0.000 A 
ATOM     17  S   UNL     1      -0.400  13.625  21.444  0.00  0.00    +0.000 S 
ATOM     18  H   UNL     1       1.866  11.290  20.019  0.00  0.00    +0.000 HD
ENDBRANCH  10  12
ENDBRANCH   1  10
BRANCH   5  19
ATOM     19  N   UNL     1       3.501   5.937  18.025  0.00  0.00    +0.000 N 
ATOM     20  H   UNL     1       3.229   5.749  17.058  0.00  0.00    +0.000 HD
BRANCH  19  21
ATOM     21  C   UNL     1       4.952   5.898  18.241  0.00  0.00    +0.000 C 
ATOM     22  C   UNL     1       5.706   6.415  17.008  0.00  0.00    +0.000 C 
ATOM     23  C   UNL     1       7.207   6.165  17.137  0.00  0.00    +0.000 C 
ATOM     24  C   UNL     1       7.489   4.708  17.473  0.00  0.00    +0.000 C 
ATOM     25  O   UNL     1       6.809   4.334  18.670  0.00  0.00    +0.000 OA
ATOM     26  C   UNL     1       5.389   4.447  18.537  0.00  0.00    +0.000 C 
ENDBRANCH  19  21
ENDBRANCH   5  19
TORSDOF 4
ENDMDL
MODEL 9
REMARK VINA RESULT:      -7.1      4.998      6.418
REMARK  Name = 
REMARK  4 active torsions:
REMARK  status: ('A' for Active; 'I' for Inactive)
REMARK    1  A    between atoms: S_2  and  N_4
REMARK    2  A    between atoms: S_2  and  C_10
REMARK    3  A    between atoms: C_14  and  N_15
REMARK    4  A    between atoms: N_15  and  C_16
REMARK                            x       y       z     vdW  Elec       q    Type
REMARK                         _______ _______ _______ _____ _____    ______ ____
ROOT
ATOM      1  C   UNL     1       5.728   5.948  17.507  0.00  0.00    +0.000 A 
ATOM      2  C   UNL     1       4.589   6.707  17.247  0.00  0.00    +0.000 A 
ATOM      3  C   UNL     1       3.539   6.697  18.170  0.00  0.00    +0.000 A 
ATOM      4 CL   UNL     1       2.135   7.644  17.806  0.00  0.00    +0.000 Cl
ATOM      5  C   UNL     1       3.590   5.917  19.351  0.00  0.00    +0.000 A 
ATOM      6  C   UNL     1       4.761   5.186  19.588  0.00  0.00    +0.000 A 
ATOM      7  C   UNL     1       5.814   5.196  18.669  0.00  0.00    +0.000 A 
ATOM      8  F   UNL     1       6.913   4.480  18.944  0.00  0.00    +0.000 F 
ENDROOT
BRANCH   1  10
ATOM      9  O   UNL     1       7.552   4.535  16.347  0.00  0.00    +0.000 OA
ATOM     10  S   UNL     1       7.045   5.890  16.337  0.00  0.00    +0.000 S 
ATOM     11  O   UNL     1       7.909   7.016  16.614  0.00  0.00    +0.000 OA
BRANCH  10  12
ATOM     12  N   UNL     1       6.244   6.213  14.874  0.00  0.00    +0.000 N 
ATOM     13  C   UNL     1       6.449   5.164  13.944  0.00  0.00    +0.000 A 
ATOM     14  N   UNL     1       7.354   5.319  13.011  0.00  0.00    +0.000 NA
ATOM     15  C   UNL     1       7.379   4.184  12.222  0.00  0.00    +0.000 A 
ATOM     16  C   UNL     1       6.421   3.234  12.513  0.00  0.00    +0.000 A 
ATOM     17  S   UNL     1       5.477   3.763  13.847  0.00  0.00    +0.000 S 
ATOM     18  H   UNL     1       6.730   7.025  14.486  0.00  0.00    +0.000 HD
ENDBRANCH  10  12
ENDBRANCH   1  10
BRANCH   5  19
ATOM     19  N   UNL     1       2.545   5.988  20.280  0.00  0.00    +0.000 N 
ATOM     20  H   UNL     1       2.073   6.894  20.236  0.00  0.00    +0.000 HD
BRANCH  19  21
ATOM     21  C   UNL     1       1.631   4.868  20.535  0.00  0.00    +0.000 C 
ATOM     22  C   UNL     1       2.236   3.884  21.546  0.00  0.00    +0.000 C 
ATOM     23  C   UNL     1       1.398   2.611  21.642  0.00  0.00    +0.000 C 
ATOM     24  C   UNL     1       1.153   2.015  20.264  0.00  0.00    +0.000 C 
ATOM     25  O   UNL     1       0.524   2.973  19.414  0.00  0.00    +0.000 OA
ATOM     26  C   UNL     1       1.342   4.129  19.212  0.00  0.00    +0.000 C 
ENDBRANCH  19  21
ENDBRANCH   5  19
TORSDOF 4
ENDMDL
