MODEL 1
REMARK VINA RESULT:      -8.1      0.000      0.000
REMARK  Name = 
REMARK  14 active torsions:
REMARK  status: ('A' for Active; 'I' for Inactive)
REMARK    1  A    between atoms: C_1  and  O_2
REMARK    2  A    between atoms: O_2  and  C_3
REMARK    3  A    between atoms: C_5  and  C_6
REMARK    4  A    between atoms: C_6  and  N_7
REMARK    5  A    between atoms: N_7  and  C_8
REMARK    6  A    between atoms: N_7  and  C_22
REMARK    7  A    between atoms: C_8  and  C_9
REMARK    8  A    between atoms: C_9  and  C_10
REMARK    9  A    between atoms: C_10  and  O_11
REMARK   10  A    between atoms: C_10  and  C_12
REMARK   11  A    between atoms: C_22  and  C_23
REMARK   12  A    between atoms: C_22  and  C_24
REMARK   13  A    between atoms: C_26  and  O_27
REMARK   14  A    between atoms: O_27  and  C_28
REMARK                            x       y       z     vdW  Elec       q    Type
REMARK                         _______ _______ _______ _____ _____    ______ ____
ROOT
ATOM      1  N   UNL     1       3.017   4.102  19.268  0.00  0.00    +0.000 NA
ENDROOT
BRANCH   1   2
ATOM      2  C   UNL     1       2.343   2.880  19.801  0.00  0.00    +0.000 C 
ATOM      3  C   UNL     1       1.794   3.067  21.229  0.00  0.00    +0.000 C 
ATOM      4  C   UNL     1       1.168   2.406  18.931  0.00  0.00    +0.000 C 
ENDBRANCH   1   2
BRANCH   1   5
ATOM      5  C   UNL     1       3.243   3.971  17.811  0.00  0.00    +0.000 C 
BRANCH   5   8
ATOM      6  C   UNL     1       7.020   4.564  17.660  0.00  0.00    +0.000 A 
ATOM      7  C   UNL     1       5.706   4.514  18.145  0.00  0.00    +0.000 A 
ATOM      8  C   UNL     1       4.626   4.283  17.280  0.00  0.00    +0.000 A 
ATOM      9  C   UNL     1       4.885   4.140  15.911  0.00  0.00    +0.000 A 
ATOM     10  C   UNL     1       6.192   4.148  15.427  0.00  0.00    +0.000 A 
ATOM     11  C   UNL     1       7.260   4.378  16.296  0.00  0.00    +0.000 A 
BRANCH   6  13
ATOM     12  C   UNL     1       7.699   5.737  19.618  0.00  0.00    +0.000 C 
ATOM     13  O   UNL     1       7.977   4.762  18.620  0.00  0.00    +0.000 OA
ENDBRANCH   6  13
BRANCH  10  14
ATOM     14  O   UNL     1       6.318   3.919  14.084  0.00  0.00    +0.000 OA
ATOM     15  C   UNL     1       7.168   4.825  13.385  0.00  0.00    +0.000 C 
ENDBRANCH  10  14
ENDBRANCH   5   8
ENDBRANCH   1   5
BRANCH   1  16
ATOM     16  C   UNL     1       2.307   5.365  19.605  0.00  0.00    +0.000 C 
BRANCH  16  17
ATOM     17  C   UNL     1       1.997   6.279  18.407  0.00  0.00    +0.000 C 
BRANCH  17  18
ATOM     18  C   UNL     1       2.546   7.710  18.539  0.00  0.00    +0.000 C 
BRANCH  18  19
ATOM     19  C   UNL     1       1.619   8.684  19.262  0.00  0.00    +0.000 A 
ATOM     20  C   UNL     1       1.067   9.760  18.548  0.00  0.00    +0.000 A 
ATOM     21  C   UNL     1       0.211  10.679  19.169  0.00  0.00    +0.000 A 
ATOM     22  C   UNL     1      -0.119  10.552  20.529  0.00  0.00    +0.000 A 
ATOM     23  C   UNL     1      -0.998  11.444  21.167  0.00  0.00    +0.000 A 
ATOM     24  C   UNL     1      -1.316  11.292  22.519  0.00  0.00    +0.000 A 
ATOM     25  C   UNL     1      -0.747  10.257  23.254  0.00  0.00    +0.000 A 
ATOM     26  C   UNL     1       0.129   9.367  22.634  0.00  0.00    +0.000 A 
ATOM     27  C   UNL     1       0.440   9.492  21.272  0.00  0.00    +0.000 A 
ATOM     28  C   UNL     1       1.299   8.576  20.625  0.00  0.00    +0.000 A 
ENDBRANCH  18  19
BRANCH  18  29
ATOM     29  O   UNL     1       2.825   8.219  17.235  0.00  0.00    +0.000 OA
ATOM     30  H   UNL     1       3.254   9.085  17.351  0.00  0.00    +0.000 HD
ENDBRANCH  18  29
ENDBRANCH  17  18
ENDBRANCH  16  17
ENDBRANCH   1  16
TORSDOF 10
ENDMDL
MODEL 2
REMARK VINA RESULT:      -8.0      0.997      1.165
REMARK  Name = 
REMARK  14 active torsions:
REMARK  status: ('A' for Active; 'I' for Inactive)
REMARK    1  A    between atoms: C_1  and  O_2
REMARK    2  A    between atoms: O_2  and  C_3
REMARK    3  A    between atoms: C_5  and  C_6
REMARK    4  A    between atoms: C_6  and  N_7
REMARK    5  A    between atoms: N_7  and  C_8
REMARK    6  A    between atoms: N_7  and  C_22
REMARK    7  A    between atoms: C_8  and  C_9
REMARK    8  A    between atoms: C_9  and  C_10
REMARK    9  A    between atoms: C_10  and  O_11
REMARK   10  A    between atoms: C_10  and  C_12
REMARK   11  A    between atoms: C_22  and  C_23
REMARK   12  A    between atoms: C_22  and  C_24
REMARK   13  A    between atoms: C_26  and  O_27
REMARK   14  A    between atoms: O_27  and  C_28
REMARK                            x       y       z     vdW  Elec       q    Type
REMARK                         _______ _______ _______ _____ _____    ______ ____
ROOT
ATOM      1  N   UNL     1       2.713   4.393  19.604  0.00  0.00    +0.000 NA
ENDROOT
BRANCH   1   2
ATOM      2  C   UNL     1       1.993   3.798  20.771  0.00  0.00    +0.000 C 
ATOM      3  C   UNL     1       0.630   3.188  20.392  0.00  0.00    +0.000 C 
ATOM      4  C   UNL     1       2.793   2.695  21.479  0.00  0.00    +0.000 C 
ENDBRANCH   1   2
BRANCH   1   5
ATOM      5  C   UNL     1       3.877   3.556  19.237  0.00  0.00    +0.000 C 
BRANCH   5   8
ATOM      6  C   UNL     1       7.029   5.406  18.101  0.00  0.00    +0.000 A 
ATOM      7  C   UNL     1       5.917   5.032  18.869  0.00  0.00    +0.000 A 
ATOM      8  C   UNL     1       4.938   4.174  18.349  0.00  0.00    +0.000 A 
ATOM      9  C   UNL     1       5.073   3.727  17.028  0.00  0.00    +0.000 A 
ATOM     10  C   UNL     1       6.195   4.062  16.272  0.00  0.00    +0.000 A 
ATOM     11  C   UNL     1       7.165   4.916  16.799  0.00  0.00    +0.000 A 
BRANCH   6  13
ATOM     12  C   UNL     1       8.071   7.543  18.244  0.00  0.00    +0.000 C 
ATOM     13  O   UNL     1       7.922   6.220  18.746  0.00  0.00    +0.000 OA
ENDBRANCH   6  13
BRANCH  10  14
ATOM     14  O   UNL     1       6.249   3.498  15.026  0.00  0.00    +0.000 OA
ATOM     15  C   UNL     1       6.303   4.419  13.940  0.00  0.00    +0.000 C 
ENDBRANCH  10  14
ENDBRANCH   5   8
ENDBRANCH   1   5
BRANCH   1  16
ATOM     16  C   UNL     1       1.831   4.654  18.434  0.00  0.00    +0.000 C 
BRANCH  16  17
ATOM     17  C   UNL     1       2.035   6.018  17.755  0.00  0.00    +0.000 C 
BRANCH  17  18
ATOM     18  C   UNL     1       2.798   7.046  18.607  0.00  0.00    +0.000 C 
BRANCH  18  19
ATOM     19  C   UNL     1       1.921   8.115  19.254  0.00  0.00    +0.000 A 
ATOM     20  C   UNL     1       1.470   9.193  18.476  0.00  0.00    +0.000 A 
ATOM     21  C   UNL     1       0.663  10.198  19.026  0.00  0.00    +0.000 A 
ATOM     22  C   UNL     1       0.282  10.157  20.377  0.00  0.00    +0.000 A 
ATOM     23  C   UNL     1      -0.550  11.137  20.945  0.00  0.00    +0.000 A 
ATOM     24  C   UNL     1      -0.920  11.070  22.290  0.00  0.00    +0.000 A 
ATOM     25  C   UNL     1      -0.450  10.033  23.089  0.00  0.00    +0.000 A 
ATOM     26  C   UNL     1       0.379   9.056  22.540  0.00  0.00    +0.000 A 
ATOM     27  C   UNL     1       0.740   9.096  21.185  0.00  0.00    +0.000 A 
ATOM     28  C   UNL     1       1.551   8.094  20.609  0.00  0.00    +0.000 A 
ENDBRANCH  18  19
BRANCH  18  29
ATOM     29  O   UNL     1       3.779   7.685  17.791  0.00  0.00    +0.000 OA
ATOM     30  H   UNL     1       3.336   8.421  17.333  0.00  0.00    +0.000 HD
ENDBRANCH  18  29
ENDBRANCH  17  18
ENDBRANCH  16  17
ENDBRANCH   1  16
TORSDOF 10
ENDMDL
MODEL 3
REMARK VINA RESULT:      -7.7      0.972      2.907
REMARK  Name = 
REMARK  14 active torsions:
REMARK  status: ('A' for Active; 'I' for Inactive)
REMARK    1  A    between atoms: C_1  and  O_2
REMARK    2  A    between atoms: O_2  and  C_3
REMARK    3  A    between atoms: C_5  and  C_6
REMARK    4  A    between atoms: C_6  and  N_7
REMARK    5  A    between atoms: N_7  and  C_8
REMARK    6  A    between atoms: N_7  and  C_22
REMARK    7  A    between atoms: C_8  and  C_9
REMARK    8  A    between atoms: C_9  and  C_10
REMARK    9  A    between atoms: C_10  and  O_11
REMARK   10  A    between atoms: C_10  and  C_12
REMARK   11  A    between atoms: C_22  and  C_23
REMARK   12  A    between atoms: C_22  and  C_24
REMARK   13  A    between atoms: C_26  and  O_27
REMARK   14  A    between atoms: O_27  and  C_28
REMARK                            x       y       z     vdW  Elec       q    Type
REMARK                         _______ _______ _______ _____ _____    ______ ____
ROOT
ATOM      1  N   UNL     1       2.586   4.268  19.637  0.00  0.00    +0.000 NA
ENDROOT
BRANCH   1   2
ATOM      2  C   UNL     1       1.369   3.678  20.272  0.00  0.00    +0.000 C 
ATOM      3  C   UNL     1       0.611   2.711  19.342  0.00  0.00    +0.000 C 
ATOM      4  C   UNL     1       1.673   2.906  21.565  0.00  0.00    +0.000 C 
ENDBRANCH   1   2
BRANCH   1   5
ATOM      5  C   UNL     1       3.028   3.434  18.498  0.00  0.00    +0.000 C 
BRANCH   5   8
ATOM      6  C   UNL     1       5.679   4.399  15.913  0.00  0.00    +0.000 A 
ATOM      7  C   UNL     1       4.508   3.872  16.475  0.00  0.00    +0.000 A 
ATOM      8  C   UNL     1       4.366   3.754  17.866  0.00  0.00    +0.000 A 
ATOM      9  C   UNL     1       5.437   4.138  18.682  0.00  0.00    +0.000 A 
ATOM     10  C   UNL     1       6.589   4.701  18.132  0.00  0.00    +0.000 A 
ATOM     11  C   UNL     1       6.719   4.815  16.748  0.00  0.00    +0.000 A 
BRANCH   6  13
ATOM     12  C   UNL     1       6.919   4.685  13.900  0.00  0.00    +0.000 C 
ATOM     13  O   UNL     1       5.666   4.489  14.546  0.00  0.00    +0.000 OA
ENDBRANCH   6  13
BRANCH  10  14
ATOM     14  O   UNL     1       7.529   5.109  19.039  0.00  0.00    +0.000 OA
ATOM     15  C   UNL     1       8.024   6.432  18.852  0.00  0.00    +0.000 C 
ENDBRANCH  10  14
ENDBRANCH   5   8
ENDBRANCH   1   5
BRANCH   1  16
ATOM     16  C   UNL     1       2.417   5.694  19.244  0.00  0.00    +0.000 C 
BRANCH  16  17
ATOM     17  C   UNL     1       1.855   6.611  20.342  0.00  0.00    +0.000 C 
BRANCH  17  18
ATOM     18  C   UNL     1       1.964   8.114  20.035  0.00  0.00    +0.000 C 
BRANCH  18  19
ATOM     19  C   UNL     1       1.007   8.999  20.831  0.00  0.00    +0.000 A 
ATOM     20  C   UNL     1       0.863   8.781  22.210  0.00  0.00    +0.000 A 
ATOM     21  C   UNL     1      -0.003   9.568  22.982  0.00  0.00    +0.000 A 
ATOM     22  C   UNL     1      -0.755  10.599  22.396  0.00  0.00    +0.000 A 
ATOM     23  C   UNL     1      -1.608  11.421  23.153  0.00  0.00    +0.000 A 
ATOM     24  C   UNL     1      -2.339  12.445  22.547  0.00  0.00    +0.000 A 
ATOM     25  C   UNL     1      -2.242  12.650  21.175  0.00  0.00    +0.000 A 
ATOM     26  C   UNL     1      -1.402  11.841  20.411  0.00  0.00    +0.000 A 
ATOM     27  C   UNL     1      -0.642  10.824  21.008  0.00  0.00    +0.000 A 
ATOM     28  C   UNL     1       0.237  10.020  20.250  0.00  0.00    +0.000 A 
ENDBRANCH  18  19
BRANCH  18  29
ATOM     29  O   UNL     1       1.730   8.318  18.642  0.00  0.00    +0.000 OA
ATOM     30  H   UNL     1       0.814   8.634  18.548  0.00  0.00    +0.000 HD
ENDBRANCH  18  29
ENDBRANCH  17  18
ENDBRANCH  16  17
ENDBRANCH   1  16
TORSDOF 10
ENDMDL
MODEL 4
REMARK VINA RESULT:      -7.7      1.184      2.608
REMARK  Name = 
REMARK  14 active torsions:
REMARK  status: ('A' for Active; 'I' for Inactive)
REMARK    1  A    between atoms: C_1  and  O_2
REMARK    2  A    between atoms: O_2  and  C_3
REMARK    3  A    between atoms: C_5  and  C_6
REMARK    4  A    between atoms: C_6  and  N_7
REMARK    5  A    between atoms: N_7  and  C_8
REMARK    6  A    between atoms: N_7  and  C_22
REMARK    7  A    between atoms: C_8  and  C_9
REMARK    8  A    between atoms: C_9  and  C_10
REMARK    9  A    between atoms: C_10  and  O_11
REMARK   10  A    between atoms: C_10  and  C_12
REMARK   11  A    between atoms: C_22  and  C_23
REMARK   12  A    between atoms: C_22  and  C_24
REMARK   13  A    between atoms: C_26  and  O_27
REMARK   14  A    between atoms: O_27  and  C_28
REMARK                            x       y       z     vdW  Elec       q    Type
REMARK                         _______ _______ _______ _____ _____    ______ ____
ROOT
ATOM      1  N   UNL     1       3.478   4.008  18.283  0.00  0.00    +0.000 NA
ENDROOT
BRANCH   1   2
ATOM      2  C   UNL     1       3.185   3.054  19.395  0.00  0.00    +0.000 C 
ATOM      3  C   UNL     1       2.144   1.983  19.014  0.00  0.00    +0.000 C 
ATOM      4  C   UNL     1       4.430   2.306  19.897  0.00  0.00    +0.000 C 
ENDBRANCH   1   2
BRANCH   1   5
ATOM      5  C   UNL     1       4.044   3.287  17.122  0.00  0.00    +0.000 C 
BRANCH   5   8
ATOM      6  C   UNL     1       6.596   4.436  14.512  0.00  0.00    +0.000 A 
ATOM      7  C   UNL     1       5.554   3.723  15.121  0.00  0.00    +0.000 A 
ATOM      8  C   UNL     1       5.308   3.839  16.497  0.00  0.00    +0.000 A 
ATOM      9  C   UNL     1       6.152   4.655  17.260  0.00  0.00    +0.000 A 
ATOM     10  C   UNL     1       7.165   5.399  16.655  0.00  0.00    +0.000 A 
ATOM     11  C   UNL     1       7.400   5.277  15.285  0.00  0.00    +0.000 A 
BRANCH   6  13
ATOM     12  C   UNL     1       5.807   3.320  12.562  0.00  0.00    +0.000 C 
ATOM     13  O   UNL     1       6.699   4.255  13.158  0.00  0.00    +0.000 OA
ENDBRANCH   6  13
BRANCH  10  14
ATOM     14  O   UNL     1       7.868   6.219  17.496  0.00  0.00    +0.000 OA
ATOM     15  C   UNL     1       7.413   7.569  17.554  0.00  0.00    +0.000 C 
ENDBRANCH  10  14
ENDBRANCH   5   8
ENDBRANCH   1   5
BRANCH   1  16
ATOM     16  C   UNL     1       2.308   4.844  17.896  0.00  0.00    +0.000 C 
BRANCH  16  17
ATOM     17  C   UNL     1       1.709   5.691  19.031  0.00  0.00    +0.000 C 
BRANCH  17  18
ATOM     18  C   UNL     1       2.509   6.960  19.369  0.00  0.00    +0.000 C 
BRANCH  18  19
ATOM     19  C   UNL     1       1.663   8.142  19.836  0.00  0.00    +0.000 A 
ATOM     20  C   UNL     1       1.394   9.187  18.938  0.00  0.00    +0.000 A 
ATOM     21  C   UNL     1       0.622  10.292  19.321  0.00  0.00    +0.000 A 
ATOM     22  C   UNL     1       0.095  10.387  20.620  0.00  0.00    +0.000 A 
ATOM     23  C   UNL     1      -0.706  11.471  21.020  0.00  0.00    +0.000 A 
ATOM     24  C   UNL     1      -1.224  11.539  22.315  0.00  0.00    +0.000 A 
ATOM     25  C   UNL     1      -0.935  10.535  23.233  0.00  0.00    +0.000 A 
ATOM     26  C   UNL     1      -0.139   9.455  22.851  0.00  0.00    +0.000 A 
ATOM     27  C   UNL     1       0.369   9.360  21.546  0.00  0.00    +0.000 A 
ATOM     28  C   UNL     1       1.148   8.256  21.138  0.00  0.00    +0.000 A 
ENDBRANCH  18  19
BRANCH  18  29
ATOM     29  O   UNL     1       3.258   7.353  18.220  0.00  0.00    +0.000 OA
ATOM     30  H   UNL     1       3.725   6.562  17.897  0.00  0.00    +0.000 HD
ENDBRANCH  18  29
ENDBRANCH  17  18
ENDBRANCH  16  17
ENDBRANCH   1  16
TORSDOF 10
ENDMDL
MODEL 5
REMARK VINA RESULT:      -7.6      0.829      2.566
REMARK  Name = 
REMARK  14 active torsions:
REMARK  status: ('A' for Active; 'I' for Inactive)
REMARK    1  A    between atoms: C_1  and  O_2
REMARK    2  A    between atoms: O_2  and  C_3
REMARK    3  A    between atoms: C_5  and  C_6
REMARK    4  A    between atoms: C_6  and  N_7
REMARK    5  A    between atoms: N_7  and  C_8
REMARK    6  A    between atoms: N_7  and  C_22
REMARK    7  A    between atoms: C_8  and  C_9
REMARK    8  A    between atoms: C_9  and  C_10
REMARK    9  A    between atoms: C_10  and  O_11
REMARK   10  A    between atoms: C_10  and  C_12
REMARK   11  A    between atoms: C_22  and  C_23
REMARK   12  A    between atoms: C_22  and  C_24
REMARK   13  A    between atoms: C_26  and  O_27
REMARK   14  A    between atoms: O_27  and  C_28
REMARK                            x       y       z     vdW  Elec       q    Type
REMARK                         _______ _______ _______ _____ _____    ______ ____
ROOT
ATOM      1  N   UNL     1       2.646   4.850  18.904  0.00  0.00    +0.000 NA
ENDROOT
BRANCH   1   2
ATOM      2  C   UNL     1       1.596   4.208  19.751  0.00  0.00    +0.000 C 
ATOM      3  C   UNL     1       0.995   2.941  19.111  0.00  0.00    +0.000 C 
ATOM      4  C   UNL     1       2.103   3.804  21.144  0.00  0.00    +0.000 C 
ENDBRANCH   1   2
BRANCH   1   5
ATOM      5  C   UNL     1       3.075   3.929  17.829  0.00  0.00    +0.000 C 
BRANCH   5   8
ATOM      6  C   UNL     1       6.041   4.643  15.519  0.00  0.00    +0.000 A 
ATOM      7  C   UNL     1       4.757   4.287  15.954  0.00  0.00    +0.000 A 
ATOM      8  C   UNL     1       4.492   4.059  17.312  0.00  0.00    +0.000 A 
ATOM      9  C   UNL     1       5.550   4.157  18.225  0.00  0.00    +0.000 A 
ATOM     10  C   UNL     1       6.821   4.550  17.806  0.00  0.00    +0.000 A 
ATOM     11  C   UNL     1       7.073   4.776  16.452  0.00  0.00    +0.000 A 
BRANCH   6  13
ATOM     12  C   UNL     1       6.265   3.727  13.333  0.00  0.00    +0.000 C 
ATOM     13  O   UNL     1       6.147   4.870  14.172  0.00  0.00    +0.000 OA
ENDBRANCH   6  13
BRANCH  10  14
ATOM     14  O   UNL     1       7.748   4.687  18.803  0.00  0.00    +0.000 OA
ATOM     15  C   UNL     1       8.016   6.027  19.210  0.00  0.00    +0.000 C 
ENDBRANCH  10  14
ENDBRANCH   5   8
ENDBRANCH   1   5
BRANCH   1  16
ATOM     16  C   UNL     1       2.241   6.177  18.364  0.00  0.00    +0.000 C 
BRANCH  16  17
ATOM     17  C   UNL     1       2.185   7.313  19.399  0.00  0.00    +0.000 C 
BRANCH  17  18
ATOM     18  C   UNL     1       2.132   8.725  18.793  0.00  0.00    +0.000 C 
BRANCH  18  19
ATOM     19  C   UNL     1       1.058   9.634  19.386  0.00  0.00    +0.000 A 
ATOM     20  C   UNL     1       0.344  10.493  18.536  0.00  0.00    +0.000 A 
ATOM     21  C   UNL     1      -0.651  11.345  19.034  0.00  0.00    +0.000 A 
ATOM     22  C   UNL     1      -0.962  11.365  20.404  0.00  0.00    +0.000 A 
ATOM     23  C   UNL     1      -1.975  12.189  20.924  0.00  0.00    +0.000 A 
ATOM     24  C   UNL     1      -2.271  12.186  22.290  0.00  0.00    +0.000 A 
ATOM     25  C   UNL     1      -1.547  11.372  23.155  0.00  0.00    +0.000 A 
ATOM     26  C   UNL     1      -0.537  10.552  22.653  0.00  0.00    +0.000 A 
ATOM     27  C   UNL     1      -0.244  10.526  21.281  0.00  0.00    +0.000 A 
ATOM     28  C   UNL     1       0.753   9.675  20.756  0.00  0.00    +0.000 A 
ENDBRANCH  18  19
BRANCH  18  29
ATOM     29  O   UNL     1       1.919   8.616  17.386  0.00  0.00    +0.000 OA
ATOM     30  H   UNL     1       2.791   8.685  16.958  0.00  0.00    +0.000 HD
ENDBRANCH  18  29
ENDBRANCH  17  18
ENDBRANCH  16  17
ENDBRANCH   1  16
TORSDOF 10
ENDMDL
MODEL 6
REMARK VINA RESULT:      -7.6      1.598      2.859
REMARK  Name = 
REMARK  14 active torsions:
REMARK  status: ('A' for Active; 'I' for Inactive)
REMARK    1  A    between atoms: C_1  and  O_2
REMARK    2  A    between atoms: O_2  and  C_3
REMARK    3  A    between atoms: C_5  and  C_6
REMARK    4  A    between atoms: C_6  and  N_7
REMARK    5  A    between atoms: N_7  and  C_8
REMARK    6  A    between atoms: N_7  and  C_22
REMARK    7  A    between atoms: C_8  and  C_9
REMARK    8  A    between atoms: C_9  and  C_10
REMARK    9  A    between atoms: C_10  and  O_11
REMARK   10  A    between atoms: C_10  and  C_12
REMARK   11  A    between atoms: C_22  and  C_23
REMARK   12  A    between atoms: C_22  and  C_24
REMARK   13  A    between atoms: C_26  and  O_27
REMARK   14  A    between atoms: O_27  and  C_28
REMARK                            x       y       z     vdW  Elec       q    Type
REMARK                         _______ _______ _______ _____ _____    ______ ____
ROOT
ATOM      1  N   UNL     1       4.273   3.367  18.656  0.00  0.00    +0.000 NA
ENDROOT
BRANCH   1   2
ATOM      2  C   UNL     1       3.281   2.322  19.055  0.00  0.00    +0.000 C 
ATOM      3  C   UNL     1       3.002   2.302  20.570  0.00  0.00    +0.000 C 
ATOM      4  C   UNL     1       1.923   2.474  18.353  0.00  0.00    +0.000 C 
ENDBRANCH   1   2
BRANCH   1   5
ATOM      5  C   UNL     1       3.991   3.847  17.286  0.00  0.00    +0.000 C 
BRANCH   5   8
ATOM      6  C   UNL     1       6.224   4.021  14.183  0.00  0.00    +0.000 A 
ATOM      7  C   UNL     1       5.265   3.571  15.100  0.00  0.00    +0.000 A 
ATOM      8  C   UNL     1       5.172   4.134  16.382  0.00  0.00    +0.000 A 
ATOM      9  C   UNL     1       6.086   5.132  16.741  0.00  0.00    +0.000 A 
ATOM     10  C   UNL     1       7.017   5.613  15.821  0.00  0.00    +0.000 A 
ATOM     11  C   UNL     1       7.100   5.047  14.548  0.00  0.00    +0.000 A 
BRANCH   6  13
ATOM     12  C   UNL     1       7.031   3.924  11.945  0.00  0.00    +0.000 C 
ATOM     13  O   UNL     1       6.178   3.407  12.959  0.00  0.00    +0.000 OA
ENDBRANCH   6  13
BRANCH  10  14
ATOM     14  O   UNL     1       7.799   6.643  16.267  0.00  0.00    +0.000 OA
ATOM     15  C   UNL     1       7.434   7.185  17.534  0.00  0.00    +0.000 C 
ENDBRANCH  10  14
ENDBRANCH   5   8
ENDBRANCH   1   5
BRANCH   1  16
ATOM     16  C   UNL     1       4.370   4.492  19.626  0.00  0.00    +0.000 C 
BRANCH  16  17
ATOM     17  C   UNL     1       3.576   5.752  19.245  0.00  0.00    +0.000 C 
BRANCH  17  18
ATOM     18  C   UNL     1       2.259   5.934  20.018  0.00  0.00    +0.000 C 
BRANCH  18  19
ATOM     19  C   UNL     1       1.732   7.367  20.053  0.00  0.00    +0.000 A 
ATOM     20  C   UNL     1       1.900   8.184  18.924  0.00  0.00    +0.000 A 
ATOM     21  C   UNL     1       1.433   9.506  18.910  0.00  0.00    +0.000 A 
ATOM     22  C   UNL     1       0.784  10.052  20.029  0.00  0.00    +0.000 A 
ATOM     23  C   UNL     1       0.281  11.365  20.030  0.00  0.00    +0.000 A 
ATOM     24  C   UNL     1      -0.366  11.884  21.153  0.00  0.00    +0.000 A 
ATOM     25  C   UNL     1      -0.505  11.104  22.296  0.00  0.00    +0.000 A 
ATOM     26  C   UNL     1      -0.008   9.801  22.311  0.00  0.00    +0.000 A 
ATOM     27  C   UNL     1       0.623   9.258  21.183  0.00  0.00    +0.000 A 
ATOM     28  C   UNL     1       1.100   7.929  21.174  0.00  0.00    +0.000 A 
ENDBRANCH  18  19
BRANCH  18  29
ATOM     29  O   UNL     1       2.443   5.476  21.357  0.00  0.00    +0.000 OA
ATOM     30  H   UNL     1       2.698   6.249  21.892  0.00  0.00    +0.000 HD
ENDBRANCH  18  29
ENDBRANCH  17  18
ENDBRANCH  16  17
ENDBRANCH   1  16
TORSDOF 10
ENDMDL
MODEL 7
REMARK VINA RESULT:      -7.6      1.010      1.757
REMARK  Name = 
REMARK  14 active torsions:
REMARK  status: ('A' for Active; 'I' for Inactive)
REMARK    1  A    between atoms: C_1  and  O_2
REMARK    2  A    between atoms: O_2  and  C_3
REMARK    3  A    between atoms: C_5  and  C_6
REMARK    4  A    between atoms: C_6  and  N_7
REMARK    5  A    between atoms: N_7  and  C_8
REMARK    6  A    between atoms: N_7  and  C_22
REMARK    7  A    between atoms: C_8  and  C_9
REMARK    8  A    between atoms: C_9  and  C_10
REMARK    9  A    between atoms: C_10  and  O_11
REMARK   10  A    between atoms: C_10  and  C_12
REMARK   11  A    between atoms: C_22  and  C_23
REMARK   12  A    between atoms: C_22  and  C_24
REMARK   13  A    between atoms: C_26  and  O_27
REMARK   14  A    between atoms: O_27  and  C_28
REMARK                            x       y       z     vdW  Elec       q    Type
REMARK                         _______ _______ _______ _____ _____    ______ ____
ROOT
ATOM      1  N   UNL     1       3.255   3.779  18.641  0.00  0.00    +0.000 NA
ENDROOT
BRANCH   1   2
ATOM      2  C   UNL     1       3.132   2.427  19.264  0.00  0.00    +0.000 C 
ATOM      3  C   UNL     1       1.677   2.050  19.608  0.00  0.00    +0.000 C 
ATOM      4  C   UNL     1       3.687   1.299  18.382  0.00  0.00    +0.000 C 
ENDBRANCH   1   2
BRANCH   1   5
ATOM      5  C   UNL     1       3.630   3.656  17.215  0.00  0.00    +0.000 C 
BRANCH   5   8
ATOM      6  C   UNL     1       6.989   5.490  17.236  0.00  0.00    +0.000 A 
ATOM      7  C   UNL     1       5.738   5.015  17.651  0.00  0.00    +0.000 A 
ATOM      8  C   UNL     1       4.862   4.401  16.743  0.00  0.00    +0.000 A 
ATOM      9  C   UNL     1       5.248   4.308  15.400  0.00  0.00    +0.000 A 
ATOM     10  C   UNL     1       6.507   4.742  14.988  0.00  0.00    +0.000 A 
ATOM     11  C   UNL     1       7.372   5.350  15.899  0.00  0.00    +0.000 A 
BRANCH   6  13
ATOM     12  C   UNL     1       7.473   5.616  19.564  0.00  0.00    +0.000 C 
ATOM     13  O   UNL     1       7.754   6.034  18.233  0.00  0.00    +0.000 OA
ENDBRANCH   6  13
BRANCH  10  14
ATOM     14  O   UNL     1       6.796   4.523  13.668  0.00  0.00    +0.000 OA
ATOM     15  C   UNL     1       5.983   3.551  13.017  0.00  0.00    +0.000 C 
ENDBRANCH  10  14
ENDBRANCH   5   8
ENDBRANCH   1   5
BRANCH   1  16
ATOM     16  C   UNL     1       2.044   4.627  18.821  0.00  0.00    +0.000 C 
BRANCH  16  17
ATOM     17  C   UNL     1       2.018   5.914  17.981  0.00  0.00    +0.000 C 
BRANCH  17  18
ATOM     18  C   UNL     1       2.779   7.097  18.603  0.00  0.00    +0.000 C 
BRANCH  18  19
ATOM     19  C   UNL     1       1.907   8.072  19.391  0.00  0.00    +0.000 A 
ATOM     20  C   UNL     1       1.609   7.792  20.733  0.00  0.00    +0.000 A 
ATOM     21  C   UNL     1       0.813   8.658  21.496  0.00  0.00    +0.000 A 
ATOM     22  C   UNL     1       0.287   9.833  20.936  0.00  0.00    +0.000 A 
ATOM     23  C   UNL     1      -0.490  10.732  21.687  0.00  0.00    +0.000 A 
ATOM     24  C   UNL     1      -0.997  11.898  21.109  0.00  0.00    +0.000 A 
ATOM     25  C   UNL     1      -0.749  12.173  19.768  0.00  0.00    +0.000 A 
ATOM     26  C   UNL     1       0.018  11.289  19.010  0.00  0.00    +0.000 A 
ATOM     27  C   UNL     1       0.554  10.126  19.582  0.00  0.00    +0.000 A 
ATOM     28  C   UNL     1       1.359   9.240  18.834  0.00  0.00    +0.000 A 
ENDBRANCH  18  19
BRANCH  18  29
ATOM     29  O   UNL     1       3.450   7.812  17.566  0.00  0.00    +0.000 OA
ATOM     30  H   UNL     1       4.160   8.329  17.987  0.00  0.00    +0.000 HD
ENDBRANCH  18  29
ENDBRANCH  17  18
ENDBRANCH  16  17
ENDBRANCH   1  16
TORSDOF 10
ENDMDL
MODEL 8
REMARK VINA RESULT:      -7.5      1.814      3.459
REMARK  Name = 
REMARK  14 active torsions:
REMARK  status: ('A' for Active; 'I' for Inactive)
REMARK    1  A    between atoms: C_1  and  O_2
REMARK    2  A    between atoms: O_2  and  C_3
REMARK    3  A    between atoms: C_5  and  C_6
REMARK    4  A    between atoms: C_6  and  N_7
REMARK    5  A    between atoms: N_7  and  C_8
REMARK    6  A    between atoms: N_7  and  C_22
REMARK    7  A    between atoms: C_8  and  C_9
REMARK    8  A    between atoms: C_9  and  C_10
REMARK    9  A    between atoms: C_10  and  O_11
REMARK   10  A    between atoms: C_10  and  C_12
REMARK   11  A    between atoms: C_22  and  C_23
REMARK   12  A    between atoms: C_22  and  C_24
REMARK   13  A    between atoms: C_26  and  O_27
REMARK   14  A    between atoms: O_27  and  C_28
REMARK                            x       y       z     vdW  Elec       q    Type
REMARK                         _______ _______ _______ _____ _____    ______ ____
ROOT
ATOM      1  N   UNL     1       2.939   5.695  18.978  0.00  0.00    +0.000 NA
ENDROOT
BRANCH   1   2
ATOM      2  C   UNL     1       2.008   4.592  19.366  0.00  0.00    +0.000 C 
ATOM      3  C   UNL     1       1.389   3.870  18.154  0.00  0.00    +0.000 C 
ATOM      4  C   UNL     1       2.674   3.514  20.235  0.00  0.00    +0.000 C 
ENDBRANCH   1   2
BRANCH   1   5
ATOM      5  C   UNL     1       3.288   5.592  17.544  0.00  0.00    +0.000 C 
BRANCH   5   8
ATOM      6  C   UNL     1       6.192   4.167  15.499  0.00  0.00    +0.000 A 
ATOM      7  C   UNL     1       4.890   4.513  15.888  0.00  0.00    +0.000 A 
ATOM      8  C   UNL     1       4.623   4.974  17.185  0.00  0.00    +0.000 A 
ATOM      9  C   UNL     1       5.681   5.046  18.100  0.00  0.00    +0.000 A 
ATOM     10  C   UNL     1       6.985   4.743  17.710  0.00  0.00    +0.000 A 
ATOM     11  C   UNL     1       7.240   4.286  16.416  0.00  0.00    +0.000 A 
BRANCH   6  13
ATOM     12  C   UNL     1       7.043   4.620  13.322  0.00  0.00    +0.000 C 
ATOM     13  O   UNL     1       6.312   3.766  14.195  0.00  0.00    +0.000 OA
ENDBRANCH   6  13
BRANCH  10  14
ATOM     14  O   UNL     1       7.940   4.929  18.672  0.00  0.00    +0.000 OA
ATOM     15  C   UNL     1       8.007   6.243  19.221  0.00  0.00    +0.000 C 
ENDBRANCH  10  14
ENDBRANCH   5   8
ENDBRANCH   1   5
BRANCH   1  16
ATOM     16  C   UNL     1       2.430   7.049  19.326  0.00  0.00    +0.000 C 
BRANCH  16  17
ATOM     17  C   UNL     1       1.854   7.853  18.148  0.00  0.00    +0.000 C 
BRANCH  17  18
ATOM     18  C   UNL     1       1.923   9.379  18.323  0.00  0.00    +0.000 C 
BRANCH  18  19
ATOM     19  C   UNL     1       0.573  10.056  18.552  0.00  0.00    +0.000 A 
ATOM     20  C   UNL     1       0.458  11.028  19.558  0.00  0.00    +0.000 A 
ATOM     21  C   UNL     1      -0.760  11.676  19.805  0.00  0.00    +0.000 A 
ATOM     22  C   UNL     1      -1.905  11.369  19.051  0.00  0.00    +0.000 A 
ATOM     23  C   UNL     1      -3.130  12.025  19.259  0.00  0.00    +0.000 A 
ATOM     24  C   UNL     1      -4.253  11.707  18.492  0.00  0.00    +0.000 A 
ATOM     25  C   UNL     1      -4.170  10.716  17.518  0.00  0.00    +0.000 A 
ATOM     26  C   UNL     1      -2.962  10.055  17.303  0.00  0.00    +0.000 A 
ATOM     27  C   UNL     1      -1.819  10.381  18.049  0.00  0.00    +0.000 A 
ATOM     28  C   UNL     1      -0.582   9.741  17.817  0.00  0.00    +0.000 A 
ENDBRANCH  18  19
BRANCH  18  29
ATOM     29  O   UNL     1       2.536   9.950  17.168  0.00  0.00    +0.000 OA
ATOM     30  H   UNL     1       2.867   9.213  16.625  0.00  0.00    +0.000 HD
ENDBRANCH  18  29
ENDBRANCH  17  18
ENDBRANCH  16  17
ENDBRANCH   1  16
TORSDOF 10
ENDMDL
MODEL 9
REMARK VINA RESULT:      -7.5      1.163      2.423
REMARK  Name = 
REMARK  14 active torsions:
REMARK  status: ('A' for Active; 'I' for Inactive)
REMARK    1  A    between atoms: C_1  and  O_2
REMARK    2  A    between atoms: O_2  and  C_3
REMARK    3  A    between atoms: C_5  and  C_6
REMARK    4  A    between atoms: C_6  and  N_7
REMARK    5  A    between atoms: N_7  and  C_8
REMARK    6  A    between atoms: N_7  and  C_22
REMARK    7  A    between atoms: C_8  and  C_9
REMARK    8  A    between atoms: C_9  and  C_10
REMARK    9  A    between atoms: C_10  and  O_11
REMARK   10  A    between atoms: C_10  and  C_12
REMARK   11  A    between atoms: C_22  and  C_23
REMARK   12  A    between atoms: C_22  and  C_24
REMARK   13  A    between atoms: C_26  and  O_27
REMARK   14  A    between atoms: O_27  and  C_28
REMARK                            x       y       z     vdW  Elec       q    Type
REMARK                         _______ _______ _______ _____ _____    ______ ____
ROOT
ATOM      1  N   UNL     1       3.364   4.297  19.776  0.00  0.00    +0.000 NA
ENDROOT
BRANCH   1   2
ATOM      2  C   UNL     1       2.277   3.375  20.226  0.00  0.00    +0.000 C 
ATOM      3  C   UNL     1       2.544   2.760  21.614  0.00  0.00    +0.000 C 
ATOM      4  C   UNL     1       0.898   4.048  20.294  0.00  0.00    +0.000 C 
ENDBRANCH   1   2
BRANCH   1   5
ATOM      5  C   UNL     1       4.482   3.526  19.188  0.00  0.00    +0.000 C 
BRANCH   5   8
ATOM      6  C   UNL     1       5.859   5.026  15.948  0.00  0.00    +0.000 A 
ATOM      7  C   UNL     1       5.168   4.180  16.827  0.00  0.00    +0.000 A 
ATOM      8  C   UNL     1       5.392   4.239  18.210  0.00  0.00    +0.000 A 
ATOM      9  C   UNL     1       6.353   5.136  18.694  0.00  0.00    +0.000 A 
ATOM     10  C   UNL     1       7.014   6.009  17.830  0.00  0.00    +0.000 A 
ATOM     11  C   UNL     1       6.783   5.943  16.456  0.00  0.00    +0.000 A 
BRANCH   6  13
ATOM     12  C   UNL     1       6.211   3.893  13.883  0.00  0.00    +0.000 C 
ATOM     13  O   UNL     1       5.515   4.884  14.629  0.00  0.00    +0.000 OA
ENDBRANCH   6  13
BRANCH  10  14
ATOM     14  O   UNL     1       7.868   6.891  18.434  0.00  0.00    +0.000 OA
ATOM     15  C   UNL     1       7.944   8.180  17.830  0.00  0.00    +0.000 C 
ENDBRANCH  10  14
ENDBRANCH   5   8
ENDBRANCH   1   5
BRANCH   1  16
ATOM     16  C   UNL     1       2.889   5.368  18.857  0.00  0.00    +0.000 C 
BRANCH  16  17
ATOM     17  C   UNL     1       3.051   6.801  19.388  0.00  0.00    +0.000 C 
BRANCH  17  18
ATOM     18  C   UNL     1       2.409   7.885  18.505  0.00  0.00    +0.000 C 
BRANCH  18  19
ATOM     19  C   UNL     1       1.536   8.886  19.257  0.00  0.00    +0.000 A 
ATOM     20  C   UNL     1       1.147  10.071  18.614  0.00  0.00    +0.000 A 
ATOM     21  C   UNL     1       0.346  11.020  19.263  0.00  0.00    +0.000 A 
ATOM     22  C   UNL     1      -0.090  10.813  20.583  0.00  0.00    +0.000 A 
ATOM     23  C   UNL     1      -0.918  11.735  21.246  0.00  0.00    +0.000 A 
ATOM     24  C   UNL     1      -1.343  11.503  22.556  0.00  0.00    +0.000 A 
ATOM     25  C   UNL     1      -0.934  10.354  23.226  0.00  0.00    +0.000 A 
ATOM     26  C   UNL     1      -0.110   9.432  22.581  0.00  0.00    +0.000 A 
ATOM     27  C   UNL     1       0.306   9.640  21.257  0.00  0.00    +0.000 A 
ATOM     28  C   UNL     1       1.112   8.697  20.582  0.00  0.00    +0.000 A 
ENDBRANCH  18  19
BRANCH  18  29
ATOM     29  O   UNL     1       1.622   7.251  17.497  0.00  0.00    +0.000 OA
ATOM     30  H   UNL     1       0.758   7.700  17.483  0.00  0.00    +0.000 HD
ENDBRANCH  18  29
ENDBRANCH  17  18
ENDBRANCH  16  17
ENDBRANCH   1  16
TORSDOF 10
ENDMDL
