MODEL 1
REMARK VINA RESULT:      -8.0      0.000      0.000
REMARK  Name = 
REMARK  8 active torsions:
REMARK  status: ('A' for Active; 'I' for Inactive)
REMARK    1  A    between atoms: C_3  and  C_4
REMARK    2  A    between atoms: C_4  and  C_5
REMARK    3  A    between atoms: C_5  and  N_6
REMARK    4  A    between atoms: C_10  and  C_11
REMARK    5  A    between atoms: C_14  and  C_15
REMARK    6  A    between atoms: C_15  and  N_16
REMARK    7  A    between atoms: C_23  and  N_24
REMARK    8  A    between atoms: N_24  and  C_25
REMARK                            x       y       z     vdW  Elec       q    Type
REMARK                         _______ _______ _______ _____ _____    ______ ____
ROOT
ATOM      1  N   UNL     1       4.767   5.992  16.594  0.00  0.00    +0.000 N 
ATOM      2  C   UNL     1       3.909   6.529  17.542  0.00  0.00    +0.000 A 
ATOM      3  N   UNL     1       3.422   7.734  17.237  0.00  0.00    +0.000 NA
ATOM      4  C   UNL     1       2.596   8.296  18.142  0.00  0.00    +0.000 A 
ATOM      5  C   UNL     1       2.207   7.705  19.329  0.00  0.00    +0.000 A 
ATOM      6  C   UNL     1       2.773   6.454  19.563  0.00  0.00    +0.000 A 
ATOM      7  N   UNL     1       3.614   5.875  18.671  0.00  0.00    +0.000 NA
ATOM      8  H   UNL     1       4.605   6.527  15.746  0.00  0.00    +0.000 HD
ENDROOT
BRANCH   5   9
ATOM      9  C   UNL     1       1.306   8.427  20.209  0.00  0.00    +0.000 A 
ATOM     10  N   UNL     1       0.789   8.055  21.362  0.00  0.00    +0.000 NA
ATOM     11  N   UNL     1       0.011   9.102  21.806  0.00  0.00    +0.000 NA
ATOM     12  C   UNL     1       0.111  10.052  20.901  0.00  0.00    +0.000 A 
ATOM     13  O   UNL     1       0.911   9.691  19.846  0.00  0.00    +0.000 OA
BRANCH  12  14
ATOM     14  C   UNL     1      -0.474  11.431  20.922  0.00  0.00    +0.000 C 
BRANCH  14  15
ATOM     15  N   UNL     1      -1.441  11.724  19.842  0.00  0.00    +0.000 NA
ATOM     16  C   UNL     1      -2.587  12.536  20.304  0.00  0.00    +0.000 C 
ATOM     17  C   UNL     1      -2.246  13.999  20.669  0.00  0.00    +0.000 C 
ATOM     18  N   UNL     1      -1.494  14.718  19.635  0.00  0.00    +0.000 NA
ATOM     19  C   UNL     1      -0.401  13.922  19.066  0.00  0.00    +0.000 C 
ATOM     20  C   UNL     1      -0.785  12.460  18.738  0.00  0.00    +0.000 C 
ATOM     21  H   UNL     1      -1.120  15.583  20.025  0.00  0.00    +0.000 HD
ENDBRANCH  14  15
ENDBRANCH  12  14
ENDBRANCH   5   9
BRANCH   6  22
ATOM     22  N   UNL     1       2.422   5.698  20.704  0.00  0.00    +0.000 N 
ATOM     23  H   UNL     1       3.228   5.472  21.284  0.00  0.00    +0.000 HD
BRANCH  22  24
ATOM     24  C   UNL     1       1.410   4.684  20.728  0.00  0.00    +0.000 C 
ATOM     25  C   UNL     1       1.298   3.916  19.390  0.00  0.00    +0.000 C 
ATOM     26  C   UNL     1       1.344   2.599  20.187  0.00  0.00    +0.000 C 
ATOM     27  C   UNL     1       1.942   3.382  21.368  0.00  0.00    +0.000 C 
ENDBRANCH  22  24
ENDBRANCH   6  22
BRANCH   1  28
ATOM     28  C   UNL     1       4.734   4.545  16.437  0.00  0.00    +0.000 C 
BRANCH  28  29
ATOM     29  C   UNL     1       6.150   4.042  16.100  0.00  0.00    +0.000 C 
BRANCH  29  32
ATOM     30  C   UNL     1       6.219   3.593  12.333  0.00  0.00    +0.000 A 
ATOM     31  C   UNL     1       5.866   3.417  13.664  0.00  0.00    +0.000 A 
ATOM     32  C   UNL     1       6.529   4.164  14.643  0.00  0.00    +0.000 A 
ATOM     33  C   UNL     1       7.510   5.068  14.226  0.00  0.00    +0.000 A 
ATOM     34  C   UNL     1       7.794   5.172  12.872  0.00  0.00    +0.000 A 
ATOM     35  N   UNL     1       7.173   4.452  11.915  0.00  0.00    +0.000 NA
ENDBRANCH  29  32
ENDBRANCH  28  29
ENDBRANCH   1  28
TORSDOF 8
ENDMDL
MODEL 2
REMARK VINA RESULT:      -8.0      0.529      1.038
REMARK  Name = 
REMARK  8 active torsions:
REMARK  status: ('A' for Active; 'I' for Inactive)
REMARK    1  A    between atoms: C_3  and  C_4
REMARK    2  A    between atoms: C_4  and  C_5
REMARK    3  A    between atoms: C_5  and  N_6
REMARK    4  A    between atoms: C_10  and  C_11
REMARK    5  A    between atoms: C_14  and  C_15
REMARK    6  A    between atoms: C_15  and  N_16
REMARK    7  A    between atoms: C_23  and  N_24
REMARK    8  A    between atoms: N_24  and  C_25
REMARK                            x       y       z     vdW  Elec       q    Type
REMARK                         _______ _______ _______ _____ _____    ______ ____
ROOT
ATOM      1  N   UNL     1       4.687   5.863  16.627  0.00  0.00    +0.000 N 
ATOM      2  C   UNL     1       3.859   6.406  17.598  0.00  0.00    +0.000 A 
ATOM      3  N   UNL     1       3.358   7.606  17.299  0.00  0.00    +0.000 NA
ATOM      4  C   UNL     1       2.561   8.174  18.227  0.00  0.00    +0.000 A 
ATOM      5  C   UNL     1       2.213   7.592  19.431  0.00  0.00    +0.000 A 
ATOM      6  C   UNL     1       2.790   6.345  19.656  0.00  0.00    +0.000 A 
ATOM      7  N   UNL     1       3.604   5.760  18.743  0.00  0.00    +0.000 NA
ATOM      8  H   UNL     1       4.496   6.390  15.781  0.00  0.00    +0.000 HD
ENDROOT
BRANCH   5   9
ATOM      9  C   UNL     1       1.339   8.319  20.334  0.00  0.00    +0.000 A 
ATOM     10  N   UNL     1       0.657   7.877  21.370  0.00  0.00    +0.000 NA
ATOM     11  N   UNL     1      -0.004   8.962  21.904  0.00  0.00    +0.000 NA
ATOM     12  C   UNL     1       0.326  10.000  21.165  0.00  0.00    +0.000 A 
ATOM     13  O   UNL     1       1.171   9.667  20.136  0.00  0.00    +0.000 OA
BRANCH  12  14
ATOM     14  C   UNL     1      -0.053  11.439  21.348  0.00  0.00    +0.000 C 
BRANCH  14  15
ATOM     15  N   UNL     1      -1.408  11.799  20.878  0.00  0.00    +0.000 NA
ATOM     16  C   UNL     1      -1.729  13.226  21.097  0.00  0.00    +0.000 C 
ATOM     17  C   UNL     1      -0.940  14.217  20.214  0.00  0.00    +0.000 C 
ATOM     18  N   UNL     1      -0.969  13.902  18.782  0.00  0.00    +0.000 NA
ATOM     19  C   UNL     1      -0.754  12.478  18.505  0.00  0.00    +0.000 C 
ATOM     20  C   UNL     1      -1.549  11.525  19.430  0.00  0.00    +0.000 C 
ATOM     21  H   UNL     1      -0.262  14.455  18.296  0.00  0.00    +0.000 HD
ENDBRANCH  14  15
ENDBRANCH  12  14
ENDBRANCH   5   9
BRANCH   6  22
ATOM     22  N   UNL     1       2.480   5.598  20.815  0.00  0.00    +0.000 N 
ATOM     23  H   UNL     1       3.287   5.471  21.424  0.00  0.00    +0.000 HD
BRANCH  22  24
ATOM     24  C   UNL     1       1.570   4.491  20.850  0.00  0.00    +0.000 C 
ATOM     25  C   UNL     1       1.223   3.954  19.441  0.00  0.00    +0.000 C 
ATOM     26  C   UNL     1       1.533   2.534  19.949  0.00  0.00    +0.000 C 
ATOM     27  C   UNL     1       2.317   3.164  21.112  0.00  0.00    +0.000 C 
ENDBRANCH  22  24
ENDBRANCH   6  22
BRANCH   1  28
ATOM     28  C   UNL     1       4.654   4.414  16.484  0.00  0.00    +0.000 C 
BRANCH  28  29
ATOM     29  C   UNL     1       6.060   3.913  16.107  0.00  0.00    +0.000 C 
BRANCH  29  32
ATOM     30  C   UNL     1       7.748   5.192  12.959  0.00  0.00    +0.000 A 
ATOM     31  C   UNL     1       7.407   5.062  14.298  0.00  0.00    +0.000 A 
ATOM     32  C   UNL     1       6.434   4.124  14.659  0.00  0.00    +0.000 A 
ATOM     33  C   UNL     1       5.863   3.349  13.646  0.00  0.00    +0.000 A 
ATOM     34  C   UNL     1       6.269   3.554  12.334  0.00  0.00    +0.000 A 
ATOM     35  N   UNL     1       7.197   4.461  11.967  0.00  0.00    +0.000 NA
ENDBRANCH  29  32
ENDBRANCH  28  29
ENDBRANCH   1  28
TORSDOF 8
ENDMDL
MODEL 3
REMARK VINA RESULT:      -8.0      0.495      1.099
REMARK  Name = 
REMARK  8 active torsions:
REMARK  status: ('A' for Active; 'I' for Inactive)
REMARK    1  A    between atoms: C_3  and  C_4
REMARK    2  A    between atoms: C_4  and  C_5
REMARK    3  A    between atoms: C_5  and  N_6
REMARK    4  A    between atoms: C_10  and  C_11
REMARK    5  A    between atoms: C_14  and  C_15
REMARK    6  A    between atoms: C_15  and  N_16
REMARK    7  A    between atoms: C_23  and  N_24
REMARK    8  A    between atoms: N_24  and  C_25
REMARK                            x       y       z     vdW  Elec       q    Type
REMARK                         _______ _______ _______ _____ _____    ______ ____
ROOT
ATOM      1  N   UNL     1       4.726   5.838  16.548  0.00  0.00    +0.000 N 
ATOM      2  C   UNL     1       3.906   6.387  17.522  0.00  0.00    +0.000 A 
ATOM      3  N   UNL     1       3.412   7.591  17.224  0.00  0.00    +0.000 NA
ATOM      4  C   UNL     1       2.622   8.165  18.154  0.00  0.00    +0.000 A 
ATOM      5  C   UNL     1       2.276   7.586  19.360  0.00  0.00    +0.000 A 
ATOM      6  C   UNL     1       2.846   6.335  19.585  0.00  0.00    +0.000 A 
ATOM      7  N   UNL     1       3.652   5.745  18.668  0.00  0.00    +0.000 NA
ATOM      8  H   UNL     1       4.534   6.366  15.702  0.00  0.00    +0.000 HD
ENDROOT
BRANCH   5   9
ATOM      9  C   UNL     1       1.410   8.320  20.266  0.00  0.00    +0.000 A 
ATOM     10  N   UNL     1       0.924   7.955  21.435  0.00  0.00    +0.000 NA
ATOM     11  N   UNL     1       0.173   9.011  21.901  0.00  0.00    +0.000 NA
ATOM     12  C   UNL     1       0.257   9.959  20.992  0.00  0.00    +0.000 A 
ATOM     13  O   UNL     1       1.021   9.588  19.914  0.00  0.00    +0.000 OA
BRANCH  12  14
ATOM     14  C   UNL     1      -0.311  11.346  21.030  0.00  0.00    +0.000 C 
BRANCH  14  15
ATOM     15  N   UNL     1      -0.478  11.996  19.712  0.00  0.00    +0.000 NA
ATOM     16  C   UNL     1      -1.800  11.730  19.106  0.00  0.00    +0.000 C 
ATOM     17  C   UNL     1      -2.993  12.407  19.816  0.00  0.00    +0.000 C 
ATOM     18  N   UNL     1      -2.818  13.844  20.048  0.00  0.00    +0.000 NA
ATOM     19  C   UNL     1      -1.485  14.184  20.558  0.00  0.00    +0.000 C 
ATOM     20  C   UNL     1      -0.326  13.464  19.830  0.00  0.00    +0.000 C 
ATOM     21  H   UNL     1      -3.529  14.174  20.703  0.00  0.00    +0.000 HD
ENDBRANCH  14  15
ENDBRANCH  12  14
ENDBRANCH   5   9
BRANCH   6  22
ATOM     22  N   UNL     1       2.536   5.592  20.746  0.00  0.00    +0.000 N 
ATOM     23  H   UNL     1       3.364   5.355  21.290  0.00  0.00    +0.000 HD
BRANCH  22  24
ATOM     24  C   UNL     1       1.509   4.595  20.822  0.00  0.00    +0.000 C 
ATOM     25  C   UNL     1       1.242   3.902  19.465  0.00  0.00    +0.000 C 
ATOM     26  C   UNL     1       1.341   2.544  20.184  0.00  0.00    +0.000 C 
ATOM     27  C   UNL     1       2.076   3.251  21.335  0.00  0.00    +0.000 C 
ENDBRANCH  22  24
ENDBRANCH   6  22
BRANCH   1  28
ATOM     28  C   UNL     1       4.683   4.390  16.406  0.00  0.00    +0.000 C 
BRANCH  28  29
ATOM     29  C   UNL     1       6.085   3.878  16.029  0.00  0.00    +0.000 C 
BRANCH  29  32
ATOM     30  C   UNL     1       7.820   5.243  12.943  0.00  0.00    +0.000 A 
ATOM     31  C   UNL     1       7.460   5.076  14.273  0.00  0.00    +0.000 A 
ATOM     32  C   UNL     1       6.479   4.130  14.593  0.00  0.00    +0.000 A 
ATOM     33  C   UNL     1       5.919   3.388  13.550  0.00  0.00    +0.000 A 
ATOM     34  C   UNL     1       6.343   3.629  12.251  0.00  0.00    +0.000 A 
ATOM     35  N   UNL     1       7.280   4.544  11.923  0.00  0.00    +0.000 NA
ENDBRANCH  29  32
ENDBRANCH  28  29
ENDBRANCH   1  28
TORSDOF 8
ENDMDL
MODEL 4
REMARK VINA RESULT:      -7.9      3.114     11.575
REMARK  Name = 
REMARK  8 active torsions:
REMARK  status: ('A' for Active; 'I' for Inactive)
REMARK    1  A    between atoms: C_3  and  C_4
REMARK    2  A    between atoms: C_4  and  C_5
REMARK    3  A    between atoms: C_5  and  N_6
REMARK    4  A    between atoms: C_10  and  C_11
REMARK    5  A    between atoms: C_14  and  C_15
REMARK    6  A    between atoms: C_15  and  N_16
REMARK    7  A    between atoms: C_23  and  N_24
REMARK    8  A    between atoms: N_24  and  C_25
REMARK                            x       y       z     vdW  Elec       q    Type
REMARK                         _______ _______ _______ _____ _____    ______ ____
ROOT
ATOM      1  N   UNL     1      -1.682  12.127  23.193  0.00  0.00    +0.000 N 
ATOM      2  C   UNL     1      -1.002  11.426  22.208  0.00  0.00    +0.000 A 
ATOM      3  N   UNL     1       0.012  10.680  22.652  0.00  0.00    +0.000 NA
ATOM      4  C   UNL     1       0.708   9.996  21.721  0.00  0.00    +0.000 A 
ATOM      5  C   UNL     1       0.427   9.996  20.368  0.00  0.00    +0.000 A 
ATOM      6  C   UNL     1      -0.643  10.809  20.001  0.00  0.00    +0.000 A 
ATOM      7  N   UNL     1      -1.349  11.515  20.919  0.00  0.00    +0.000 NA
ATOM      8  H   UNL     1      -1.421  11.687  24.070  0.00  0.00    +0.000 HD
ENDROOT
BRANCH   5   9
ATOM      9  C   UNL     1       1.260   9.205  19.480  0.00  0.00    +0.000 A 
ATOM     10  N   UNL     1       1.650   9.467  18.249  0.00  0.00    +0.000 NA
ATOM     11  N   UNL     1       2.439   8.412  17.849  0.00  0.00    +0.000 NA
ATOM     12  C   UNL     1       2.491   7.577  18.865  0.00  0.00    +0.000 A 
ATOM     13  O   UNL     1       1.754   8.009  19.939  0.00  0.00    +0.000 OA
BRANCH  12  14
ATOM     14  C   UNL     1       3.271   6.304  18.993  0.00  0.00    +0.000 C 
BRANCH  14  15
ATOM     15  N   UNL     1       3.471   5.556  17.733  0.00  0.00    +0.000 NA
ATOM     16  C   UNL     1       4.833   5.720  17.180  0.00  0.00    +0.000 C 
ATOM     17  C   UNL     1       5.956   5.041  17.995  0.00  0.00    +0.000 C 
ATOM     18  N   UNL     1       5.701   3.633  18.315  0.00  0.00    +0.000 NA
ATOM     19  C   UNL     1       4.329   3.390  18.776  0.00  0.00    +0.000 C 
ATOM     20  C   UNL     1       3.243   4.108  17.941  0.00  0.00    +0.000 C 
ATOM     21  H   UNL     1       6.361   3.319  19.026  0.00  0.00    +0.000 HD
ENDBRANCH  14  15
ENDBRANCH  12  14
ENDBRANCH   5   9
BRANCH   6  22
ATOM     22  N   UNL     1      -1.089  10.864  18.662  0.00  0.00    +0.000 N 
ATOM     23  H   UNL     1      -0.890  11.760  18.221  0.00  0.00    +0.000 HD
BRANCH  22  24
ATOM     24  C   UNL     1      -2.296  10.257  18.181  0.00  0.00    +0.000 C 
ATOM     25  C   UNL     1      -3.400  11.291  17.858  0.00  0.00    +0.000 C 
ATOM     26  C   UNL     1      -3.594  10.599  16.496  0.00  0.00    +0.000 C 
ATOM     27  C   UNL     1      -2.205   9.961  16.667  0.00  0.00    +0.000 C 
ENDBRANCH  22  24
ENDBRANCH   6  22
BRANCH   1  28
ATOM     28  C   UNL     1      -3.111  12.313  22.985  0.00  0.00    +0.000 C 
BRANCH  28  29
ATOM     29  C   UNL     1      -3.466  13.793  23.220  0.00  0.00    +0.000 C 
BRANCH  29  32
ATOM     30  C   UNL     1      -6.772  15.527  23.897  0.00  0.00    +0.000 A 
ATOM     31  C   UNL     1      -5.424  15.346  23.620  0.00  0.00    +0.000 A 
ATOM     32  C   UNL     1      -4.916  14.044  23.562  0.00  0.00    +0.000 A 
ATOM     33  C   UNL     1      -5.802  12.984  23.772  0.00  0.00    +0.000 A 
ATOM     34  C   UNL     1      -7.133  13.265  24.044  0.00  0.00    +0.000 A 
ATOM     35  N   UNL     1      -7.638  14.515  24.115  0.00  0.00    +0.000 NA
ENDBRANCH  29  32
ENDBRANCH  28  29
ENDBRANCH   1  28
TORSDOF 8
ENDMDL
MODEL 5
REMARK VINA RESULT:      -7.9      1.053      1.511
REMARK  Name = 
REMARK  8 active torsions:
REMARK  status: ('A' for Active; 'I' for Inactive)
REMARK    1  A    between atoms: C_3  and  C_4
REMARK    2  A    between atoms: C_4  and  C_5
REMARK    3  A    between atoms: C_5  and  N_6
REMARK    4  A    between atoms: C_10  and  C_11
REMARK    5  A    between atoms: C_14  and  C_15
REMARK    6  A    between atoms: C_15  and  N_16
REMARK    7  A    between atoms: C_23  and  N_24
REMARK    8  A    between atoms: N_24  and  C_25
REMARK                            x       y       z     vdW  Elec       q    Type
REMARK                         _______ _______ _______ _____ _____    ______ ____
ROOT
ATOM      1  N   UNL     1       4.859   6.370  16.510  0.00  0.00    +0.000 N 
ATOM      2  C   UNL     1       3.956   6.796  17.472  0.00  0.00    +0.000 A 
ATOM      3  N   UNL     1       3.412   7.992  17.238  0.00  0.00    +0.000 NA
ATOM      4  C   UNL     1       2.540   8.447  18.161  0.00  0.00    +0.000 A 
ATOM      5  C   UNL     1       2.160   7.756  19.296  0.00  0.00    +0.000 A 
ATOM      6  C   UNL     1       2.787   6.523  19.457  0.00  0.00    +0.000 A 
ATOM      7  N   UNL     1       3.675   6.051  18.548  0.00  0.00    +0.000 NA
ATOM      8  H   UNL     1       4.686   6.953  15.697  0.00  0.00    +0.000 HD
ENDROOT
BRANCH   5   9
ATOM      9  C   UNL     1       1.205   8.369  20.201  0.00  0.00    +0.000 A 
ATOM     10  N   UNL     1       0.697   7.899  21.322  0.00  0.00    +0.000 NA
ATOM     11  N   UNL     1      -0.149   8.867  21.814  0.00  0.00    +0.000 NA
ATOM     12  C   UNL     1      -0.097   9.874  20.967  0.00  0.00    +0.000 A 
ATOM     13  O   UNL     1       0.738   9.626  19.906  0.00  0.00    +0.000 OA
BRANCH  12  14
ATOM     14  C   UNL     1      -0.766  11.211  21.060  0.00  0.00    +0.000 C 
BRANCH  14  15
ATOM     15  N   UNL     1      -0.198  12.134  22.066  0.00  0.00    +0.000 NA
ATOM     16  C   UNL     1       0.367  13.361  21.464  0.00  0.00    +0.000 C 
ATOM     17  C   UNL     1      -0.673  14.334  20.865  0.00  0.00    +0.000 C 
ATOM     18  N   UNL     1      -1.774  14.671  21.773  0.00  0.00    +0.000 NA
ATOM     19  C   UNL     1      -2.313  13.503  22.478  0.00  0.00    +0.000 C 
ATOM     20  C   UNL     1      -1.234  12.548  23.040  0.00  0.00    +0.000 C 
ATOM     21  H   UNL     1      -2.521  15.129  21.249  0.00  0.00    +0.000 HD
ENDBRANCH  14  15
ENDBRANCH  12  14
ENDBRANCH   5   9
BRANCH   6  22
ATOM     22  N   UNL     1       2.455   5.674  20.536  0.00  0.00    +0.000 N 
ATOM     23  H   UNL     1       2.774   6.039  21.432  0.00  0.00    +0.000 HD
BRANCH  22  24
ATOM     24  C   UNL     1       2.466   4.242  20.478  0.00  0.00    +0.000 C 
ATOM     25  C   UNL     1       2.283   3.583  21.865  0.00  0.00    +0.000 C 
ATOM     26  C   UNL     1       1.192   2.686  21.251  0.00  0.00    +0.000 C 
ATOM     27  C   UNL     1       1.075   3.690  20.092  0.00  0.00    +0.000 C 
ENDBRANCH  22  24
ENDBRANCH   6  22
BRANCH   1  28
ATOM     28  C   UNL     1       4.906   4.937  16.255  0.00  0.00    +0.000 C 
BRANCH  28  29
ATOM     29  C   UNL     1       6.356   4.529  15.937  0.00  0.00    +0.000 C 
BRANCH  29  32
ATOM     30  C   UNL     1       6.274   3.481  12.291  0.00  0.00    +0.000 A 
ATOM     31  C   UNL     1       5.983   3.515  13.648  0.00  0.00    +0.000 A 
ATOM     32  C   UNL     1       6.669   4.422  14.463  0.00  0.00    +0.000 A 
ATOM     33  C   UNL     1       7.608   5.264  13.861  0.00  0.00    +0.000 A 
ATOM     34  C   UNL     1       7.831   5.154  12.496  0.00  0.00    +0.000 A 
ATOM     35  N   UNL     1       7.187   4.278  11.697  0.00  0.00    +0.000 NA
ENDBRANCH  29  32
ENDBRANCH  28  29
ENDBRANCH   1  28
TORSDOF 8
ENDMDL
MODEL 6
REMARK VINA RESULT:      -7.9      2.746     11.006
REMARK  Name = 
REMARK  8 active torsions:
REMARK  status: ('A' for Active; 'I' for Inactive)
REMARK    1  A    between atoms: C_3  and  C_4
REMARK    2  A    between atoms: C_4  and  C_5
REMARK    3  A    between atoms: C_5  and  N_6
REMARK    4  A    between atoms: C_10  and  C_11
REMARK    5  A    between atoms: C_14  and  C_15
REMARK    6  A    between atoms: C_15  and  N_16
REMARK    7  A    between atoms: C_23  and  N_24
REMARK    8  A    between atoms: N_24  and  C_25
REMARK                            x       y       z     vdW  Elec       q    Type
REMARK                         _______ _______ _______ _____ _____    ______ ____
ROOT
ATOM      1  N   UNL     1      -0.870  12.715  22.806  0.00  0.00    +0.000 N 
ATOM      2  C   UNL     1      -0.326  11.961  21.777  0.00  0.00    +0.000 A 
ATOM      3  N   UNL     1       0.446  10.947  22.173  0.00  0.00    +0.000 NA
ATOM      4  C   UNL     1       1.006  10.200  21.200  0.00  0.00    +0.000 A 
ATOM      5  C   UNL     1       0.813  10.396  19.846  0.00  0.00    +0.000 A 
ATOM      6  C   UNL     1       0.000  11.481  19.530  0.00  0.00    +0.000 A 
ATOM      7  N   UNL     1      -0.564  12.253  20.492  0.00  0.00    +0.000 NA
ATOM      8  H   UNL     1      -0.777  12.144  23.640  0.00  0.00    +0.000 HD
ENDROOT
BRANCH   5   9
ATOM      9  C   UNL     1       1.478   9.508  18.909  0.00  0.00    +0.000 A 
ATOM     10  N   UNL     1       1.870   9.742  17.673  0.00  0.00    +0.000 NA
ATOM     11  N   UNL     1       2.462   8.585  17.217  0.00  0.00    +0.000 NA
ATOM     12  C   UNL     1       2.403   7.720  18.208  0.00  0.00    +0.000 A 
ATOM     13  O   UNL     1       1.779   8.233  19.317  0.00  0.00    +0.000 OA
BRANCH  12  14
ATOM     14  C   UNL     1       2.965   6.332  18.274  0.00  0.00    +0.000 C 
BRANCH  14  15
ATOM     15  N   UNL     1       4.439   6.243  18.194  0.00  0.00    +0.000 NA
ATOM     16  C   UNL     1       5.011   5.320  19.197  0.00  0.00    +0.000 C 
ATOM     17  C   UNL     1       4.707   3.824  18.959  0.00  0.00    +0.000 C 
ATOM     18  N   UNL     1       5.011   3.356  17.603  0.00  0.00    +0.000 NA
ATOM     19  C   UNL     1       4.553   4.283  16.562  0.00  0.00    +0.000 C 
ATOM     20  C   UNL     1       4.862   5.770  16.856  0.00  0.00    +0.000 C 
ATOM     21  H   UNL     1       4.588   2.440  17.454  0.00  0.00    +0.000 HD
ENDBRANCH  14  15
ENDBRANCH  12  14
ENDBRANCH   5   9
BRANCH   6  22
ATOM     22  N   UNL     1      -0.340  11.771  18.190  0.00  0.00    +0.000 N 
ATOM     23  H   UNL     1       0.056  12.652  17.869  0.00  0.00    +0.000 HD
BRANCH  22  24
ATOM     24  C   UNL     1      -1.607  11.473  17.589  0.00  0.00    +0.000 C 
ATOM     25  C   UNL     1      -1.744   9.986  17.183  0.00  0.00    +0.000 C 
ATOM     26  C   UNL     1      -3.108   9.958  17.897  0.00  0.00    +0.000 C 
ATOM     27  C   UNL     1      -2.687  11.222  18.666  0.00  0.00    +0.000 C 
ENDBRANCH  22  24
ENDBRANCH   6  22
BRANCH   1  28
ATOM     28  C   UNL     1      -2.195  13.271  22.570  0.00  0.00    +0.000 C 
BRANCH  28  29
ATOM     29  C   UNL     1      -3.223  12.497  23.416  0.00  0.00    +0.000 C 
BRANCH  29  32
ATOM     30  C   UNL     1      -6.402  13.020  21.412  0.00  0.00    +0.000 A 
ATOM     31  C   UNL     1      -5.060  12.820  21.705  0.00  0.00    +0.000 A 
ATOM     32  C   UNL     1      -4.664  12.758  23.045  0.00  0.00    +0.000 A 
ATOM     33  C   UNL     1      -5.650  12.887  24.027  0.00  0.00    +0.000 A 
ATOM     34  C   UNL     1      -6.966  13.087  23.635  0.00  0.00    +0.000 A 
ATOM     35  N   UNL     1      -7.364  13.160  22.347  0.00  0.00    +0.000 NA
ENDBRANCH  29  32
ENDBRANCH  28  29
ENDBRANCH   1  28
TORSDOF 8
ENDMDL
MODEL 7
REMARK VINA RESULT:      -7.8      3.150     11.434
REMARK  Name = 
REMARK  8 active torsions:
REMARK  status: ('A' for Active; 'I' for Inactive)
REMARK    1  A    between atoms: C_3  and  C_4
REMARK    2  A    between atoms: C_4  and  C_5
REMARK    3  A    between atoms: C_5  and  N_6
REMARK    4  A    between atoms: C_10  and  C_11
REMARK    5  A    between atoms: C_14  and  C_15
REMARK    6  A    between atoms: C_15  and  N_16
REMARK    7  A    between atoms: C_23  and  N_24
REMARK    8  A    between atoms: N_24  and  C_25
REMARK                            x       y       z     vdW  Elec       q    Type
REMARK                         _______ _______ _______ _____ _____    ______ ____
ROOT
ATOM      1  N   UNL     1      -1.302  12.449  22.769  0.00  0.00    +0.000 N 
ATOM      2  C   UNL     1      -0.700  11.719  21.755  0.00  0.00    +0.000 A 
ATOM      3  N   UNL     1       0.323  10.956  22.147  0.00  0.00    +0.000 NA
ATOM      4  C   UNL     1       0.945  10.243  21.185  0.00  0.00    +0.000 A 
ATOM      5  C   UNL     1       0.580  10.230  19.853  0.00  0.00    +0.000 A 
ATOM      6  C   UNL     1      -0.492  11.062  19.540  0.00  0.00    +0.000 A 
ATOM      7  N   UNL     1      -1.124  11.797  20.488  0.00  0.00    +0.000 NA
ATOM      8  H   UNL     1      -0.997  12.015  23.635  0.00  0.00    +0.000 HD
ENDROOT
BRANCH   5   9
ATOM      9  C   UNL     1       1.339   9.408  18.927  0.00  0.00    +0.000 A 
ATOM     10  N   UNL     1       1.834   9.720  17.747  0.00  0.00    +0.000 NA
ATOM     11  N   UNL     1       2.482   8.599  17.278  0.00  0.00    +0.000 NA
ATOM     12  C   UNL     1       2.351   7.675  18.207  0.00  0.00    +0.000 A 
ATOM     13  O   UNL     1       1.624   8.113  19.285  0.00  0.00    +0.000 OA
BRANCH  12  14
ATOM     14  C   UNL     1       2.927   6.292  18.241  0.00  0.00    +0.000 C 
BRANCH  14  15
ATOM     15  N   UNL     1       3.547   5.897  19.525  0.00  0.00    +0.000 NA
ATOM     16  C   UNL     1       2.771   4.861  20.239  0.00  0.00    +0.000 C 
ATOM     17  C   UNL     1       2.778   3.465  19.576  0.00  0.00    +0.000 C 
ATOM     18  N   UNL     1       4.115   2.963  19.243  0.00  0.00    +0.000 NA
ATOM     19  C   UNL     1       4.969   3.980  18.619  0.00  0.00    +0.000 C 
ATOM     20  C   UNL     1       4.911   5.365  19.305  0.00  0.00    +0.000 C 
ATOM     21  H   UNL     1       4.033   2.158  18.622  0.00  0.00    +0.000 HD
ENDBRANCH  14  15
ENDBRANCH  12  14
ENDBRANCH   5   9
BRANCH   6  22
ATOM     22  N   UNL     1      -1.020  11.107  18.230  0.00  0.00    +0.000 N 
ATOM     23  H   UNL     1      -0.891  12.017  17.790  0.00  0.00    +0.000 HD
BRANCH  22  24
ATOM     24  C   UNL     1      -2.222  10.447  17.814  0.00  0.00    +0.000 C 
ATOM     25  C   UNL     1      -3.465  11.366  17.880  0.00  0.00    +0.000 C 
ATOM     26  C   UNL     1      -3.816  10.927  16.446  0.00  0.00    +0.000 C 
ATOM     27  C   UNL     1      -2.361  10.461  16.275  0.00  0.00    +0.000 C 
ENDBRANCH  22  24
ENDBRANCH   6  22
BRANCH   1  28
ATOM     28  C   UNL     1      -2.736  12.665  22.647  0.00  0.00    +0.000 C 
BRANCH  28  29
ATOM     29  C   UNL     1      -3.192  13.649  23.741  0.00  0.00    +0.000 C 
BRANCH  29  32
ATOM     30  C   UNL     1      -6.672  15.161  23.791  0.00  0.00    +0.000 A 
ATOM     31  C   UNL     1      -5.288  15.067  23.720  0.00  0.00    +0.000 A 
ATOM     32  C   UNL     1      -4.690  13.810  23.854  0.00  0.00    +0.000 A 
ATOM     33  C   UNL     1      -5.523  12.703  24.038  0.00  0.00    +0.000 A 
ATOM     34  C   UNL     1      -6.896  12.898  24.097  0.00  0.00    +0.000 A 
ATOM     35  N   UNL     1      -7.489  14.105  23.980  0.00  0.00    +0.000 NA
ENDBRANCH  29  32
ENDBRANCH  28  29
ENDBRANCH   1  28
TORSDOF 8
ENDMDL
MODEL 8
REMARK VINA RESULT:      -7.7      3.018     11.330
REMARK  Name = 
REMARK  8 active torsions:
REMARK  status: ('A' for Active; 'I' for Inactive)
REMARK    1  A    between atoms: C_3  and  C_4
REMARK    2  A    between atoms: C_4  and  C_5
REMARK    3  A    between atoms: C_5  and  N_6
REMARK    4  A    between atoms: C_10  and  C_11
REMARK    5  A    between atoms: C_14  and  C_15
REMARK    6  A    between atoms: C_15  and  N_16
REMARK    7  A    between atoms: C_23  and  N_24
REMARK    8  A    between atoms: N_24  and  C_25
REMARK                            x       y       z     vdW  Elec       q    Type
REMARK                         _______ _______ _______ _____ _____    ______ ____
ROOT
ATOM      1  N   UNL     1      -1.439  11.865  22.916  0.00  0.00    +0.000 N 
ATOM      2  C   UNL     1      -0.754  11.261  21.872  0.00  0.00    +0.000 A 
ATOM      3  N   UNL     1       0.016  10.231  22.230  0.00  0.00    +0.000 NA
ATOM      4  C   UNL     1       0.711   9.628  21.244  0.00  0.00    +0.000 A 
ATOM      5  C   UNL     1       0.657   9.983  19.910  0.00  0.00    +0.000 A 
ATOM      6  C   UNL     1      -0.166  11.073  19.636  0.00  0.00    +0.000 A 
ATOM      7  N   UNL     1      -0.865  11.701  20.613  0.00  0.00    +0.000 NA
ATOM      8  H   UNL     1      -1.411  11.199  23.681  0.00  0.00    +0.000 HD
ENDROOT
BRANCH   5   9
ATOM      9  C   UNL     1       1.458   9.239  18.954  0.00  0.00    +0.000 A 
ATOM     10  N   UNL     1       1.931   9.621  17.786  0.00  0.00    +0.000 NA
ATOM     11  N   UNL     1       2.640   8.556  17.276  0.00  0.00    +0.000 NA
ATOM     12  C   UNL     1       2.565   7.594  18.171  0.00  0.00    +0.000 A 
ATOM     13  O   UNL     1       1.817   7.951  19.265  0.00  0.00    +0.000 OA
BRANCH  12  14
ATOM     14  C   UNL     1       3.218   6.246  18.154  0.00  0.00    +0.000 C 
BRANCH  14  15
ATOM     15  N   UNL     1       3.819   5.819  19.437  0.00  0.00    +0.000 NA
ATOM     16  C   UNL     1       3.235   4.562  19.952  0.00  0.00    +0.000 C 
ATOM     17  C   UNL     1       3.584   3.297  19.136  0.00  0.00    +0.000 C 
ATOM     18  N   UNL     1       5.017   3.125  18.876  0.00  0.00    +0.000 NA
ATOM     19  C   UNL     1       5.675   4.366  18.455  0.00  0.00    +0.000 C 
ATOM     20  C   UNL     1       5.276   5.608  19.287  0.00  0.00    +0.000 C 
ATOM     21  H   UNL     1       5.150   2.408  18.161  0.00  0.00    +0.000 HD
ENDBRANCH  14  15
ENDBRANCH  12  14
ENDBRANCH   5   9
BRANCH   6  22
ATOM     22  N   UNL     1      -0.372  11.514  18.309  0.00  0.00    +0.000 N 
ATOM     23  H   UNL     1       0.070  12.412  18.124  0.00  0.00    +0.000 HD
BRANCH  22  24
ATOM     24  C   UNL     1      -1.583  11.320  17.567  0.00  0.00    +0.000 C 
ATOM     25  C   UNL     1      -1.784   9.854  17.117  0.00  0.00    +0.000 C 
ATOM     26  C   UNL     1      -3.217   9.921  17.676  0.00  0.00    +0.000 C 
ATOM     27  C   UNL     1      -2.792  11.140  18.512  0.00  0.00    +0.000 C 
ENDBRANCH  22  24
ENDBRANCH   6  22
BRANCH   1  28
ATOM     28  C   UNL     1      -2.755  12.403  22.601  0.00  0.00    +0.000 C 
BRANCH  28  29
ATOM     29  C   UNL     1      -3.530  12.637  23.910  0.00  0.00    +0.000 C 
BRANCH  29  32
ATOM     30  C   UNL     1      -5.317  15.977  24.126  0.00  0.00    +0.000 A 
ATOM     31  C   UNL     1      -5.055  14.654  23.797  0.00  0.00    +0.000 A 
ATOM     32  C   UNL     1      -3.843  14.085  24.205  0.00  0.00    +0.000 A 
ATOM     33  C   UNL     1      -2.960  14.879  24.940  0.00  0.00    +0.000 A 
ATOM     34  C   UNL     1      -3.310  16.193  25.218  0.00  0.00    +0.000 A 
ATOM     35  N   UNL     1      -4.469  16.761  24.824  0.00  0.00    +0.000 NA
ENDBRANCH  29  32
ENDBRANCH  28  29
ENDBRANCH   1  28
TORSDOF 8
ENDMDL
MODEL 9
REMARK VINA RESULT:      -7.7      3.866      6.613
REMARK  Name = 
REMARK  8 active torsions:
REMARK  status: ('A' for Active; 'I' for Inactive)
REMARK    1  A    between atoms: C_3  and  C_4
REMARK    2  A    between atoms: C_4  and  C_5
REMARK    3  A    between atoms: C_5  and  N_6
REMARK    4  A    between atoms: C_10  and  C_11
REMARK    5  A    between atoms: C_14  and  C_15
REMARK    6  A    between atoms: C_15  and  N_16
REMARK    7  A    between atoms: C_23  and  N_24
REMARK    8  A    between atoms: N_24  and  C_25
REMARK                            x       y       z     vdW  Elec       q    Type
REMARK                         _______ _______ _______ _____ _____    ______ ____
ROOT
ATOM      1  N   UNL     1       1.498   7.461  21.068  0.00  0.00    +0.000 N 
ATOM      2  C   UNL     1       0.765   8.588  21.409  0.00  0.00    +0.000 A 
ATOM      3  N   UNL     1       0.724   8.855  22.716  0.00  0.00    +0.000 NA
ATOM      4  C   UNL     1       0.006   9.935  23.088  0.00  0.00    +0.000 A 
ATOM      5  C   UNL     1      -0.653  10.781  22.218  0.00  0.00    +0.000 A 
ATOM      6  C   UNL     1      -0.559  10.417  20.877  0.00  0.00    +0.000 A 
ATOM      7  N   UNL     1       0.147   9.329  20.481  0.00  0.00    +0.000 NA
ATOM      8  H   UNL     1       2.073   7.255  21.880  0.00  0.00    +0.000 HD
ENDROOT
BRANCH   5   9
ATOM      9  C   UNL     1      -1.385  11.912  22.760  0.00  0.00    +0.000 A 
ATOM     10  N   UNL     1      -1.032  13.180  22.827  0.00  0.00    +0.000 NA
ATOM     11  N   UNL     1      -2.080  13.854  23.414  0.00  0.00    +0.000 NA
ATOM     12  C   UNL     1      -3.011  12.956  23.660  0.00  0.00    +0.000 A 
ATOM     13  O   UNL     1      -2.636  11.692  23.281  0.00  0.00    +0.000 OA
BRANCH  12  14
ATOM     14  C   UNL     1      -4.384  13.161  24.224  0.00  0.00    +0.000 C 
BRANCH  14  15
ATOM     15  N   UNL     1      -5.282  14.008  23.409  0.00  0.00    +0.000 NA
ATOM     16  C   UNL     1      -5.208  13.697  21.966  0.00  0.00    +0.000 C 
ATOM     17  C   UNL     1      -5.800  12.329  21.561  0.00  0.00    +0.000 C 
ATOM     18  N   UNL     1      -7.155  12.086  22.066  0.00  0.00    +0.000 NA
ATOM     19  C   UNL     1      -7.319  12.471  23.472  0.00  0.00    +0.000 C 
ATOM     20  C   UNL     1      -6.690  13.837  23.833  0.00  0.00    +0.000 C 
ATOM     21  H   UNL     1      -7.391  11.100  21.952  0.00  0.00    +0.000 HD
ENDBRANCH  14  15
ENDBRANCH  12  14
ENDBRANCH   5   9
BRANCH   6  22
ATOM     22  N   UNL     1      -1.129  11.220  19.863  0.00  0.00    +0.000 N 
ATOM     23  H   UNL     1      -1.996  11.664  20.159  0.00  0.00    +0.000 HD
BRANCH  22  24
ATOM     24  C   UNL     1      -1.108  10.901  18.466  0.00  0.00    +0.000 C 
ATOM     25  C   UNL     1      -2.329  10.059  18.024  0.00  0.00    +0.000 C 
ATOM     26  C   UNL     1      -2.538  11.046  16.860  0.00  0.00    +0.000 C 
ATOM     27  C   UNL     1      -1.674  12.065  17.621  0.00  0.00    +0.000 C 
ENDBRANCH  22  24
ENDBRANCH   6  22
BRANCH   1  28
ATOM     28  C   UNL     1       2.204   7.509  19.796  0.00  0.00    +0.000 C 
BRANCH  28  29
ATOM     29  C   UNL     1       3.076   6.248  19.656  0.00  0.00    +0.000 C 
BRANCH  29  32
ATOM     30  C   UNL     1       1.024   3.058  19.760  0.00  0.00    +0.000 A 
ATOM     31  C   UNL     1       1.743   4.164  20.192  0.00  0.00    +0.000 A 
ATOM     32  C   UNL     1       2.322   5.007  19.238  0.00  0.00    +0.000 A 
ATOM     33  C   UNL     1       2.134   4.698  17.888  0.00  0.00    +0.000 A 
ATOM     34  C   UNL     1       1.400   3.568  17.554  0.00  0.00    +0.000 A 
ATOM     35  N   UNL     1       0.843   2.738  18.461  0.00  0.00    +0.000 NA
ENDBRANCH  29  32
ENDBRANCH  28  29
ENDBRANCH   1  28
TORSDOF 8
ENDMDL
