MODEL 1
REMARK VINA RESULT:      -7.4      0.000      0.000
REMARK  Name = 
REMARK  16 active torsions:
REMARK  status: ('A' for Active; 'I' for Inactive)
REMARK    1  A    between atoms: C_1  and  C_2
REMARK    2  A    between atoms: C_2  and  C_3
REMARK    3  A    between atoms: C_2  and  C_4
REMARK    4  A    between atoms: C_4  and  C_5
REMARK    5  A    between atoms: C_5  and  O_6
REMARK    6  A    between atoms: O_6  and  C_7
REMARK    7  A    between atoms: C_7  and  C_9
REMARK    8  A    between atoms: C_9  and  C_10
REMARK    9  A    between atoms: C_9  and  N_19
REMARK   10  A    between atoms: C_10  and  C_11
REMARK   11  A    between atoms: C_14  and  O_15
REMARK   12  A    between atoms: C_16  and  O_17
REMARK   13  A    between atoms: C_20  and  C_22
REMARK   14  A    between atoms: C_22  and  C_23
REMARK   15  A    between atoms: C_22  and  C_24
REMARK   16  A    between atoms: C_22  and  N_25
REMARK                            x       y       z     vdW  Elec       q    Type
REMARK                         _______ _______ _______ _____ _____    ______ ____
ROOT
ATOM      1  C   UNL     1       5.144   4.717  16.675  0.00  0.00    +0.000 C 
ENDROOT
BRANCH   1   2
ATOM      2  N   UNL     1       4.890   3.714  17.720  0.00  0.00    +0.000 N 
ATOM      3  C   UNL     1       3.664   3.091  17.799  0.00  0.00    +0.000 C 
ATOM      4  O   UNL     1       2.739   3.384  17.037  0.00  0.00    +0.000 OA
ATOM      5  H   UNL     1       5.653   3.429  18.321  0.00  0.00    +0.000 HD
BRANCH   3   6
ATOM      6  C   UNL     1       3.513   1.990  18.888  0.00  0.00    +0.000 C 
ATOM      7  C   UNL     1       4.330   2.335  20.134  0.00  0.00    +0.000 C 
ATOM      8  C   UNL     1       2.037   1.795  19.240  0.00  0.00    +0.000 C 
BRANCH   6   9
ATOM      9  N   UNL     1       4.033   0.712  18.341  0.00  0.00    +0.000 NA
ATOM     10  H   UNL     1       4.106   0.818  17.324  0.00  0.00    +0.000 HD
ATOM     11  H   UNL     1       3.296   0.008  18.444  0.00  0.00    +0.000 HD
ENDBRANCH   6   9
ENDBRANCH   3   6
ENDBRANCH   1   2
BRANCH   1  12
ATOM     12  C   UNL     1       6.317   4.333  15.736  0.00  0.00    +0.000 C 
ATOM     13  O   UNL     1       7.496   4.517  16.010  0.00  0.00    +0.000 OA
BRANCH  12  14
ATOM     14  O   UNL     1       5.877   3.858  14.531  0.00  0.00    +0.000 OA
BRANCH  14  15
ATOM     15  C   UNL     1       6.479   4.480  13.385  0.00  0.00    +0.000 C 
BRANCH  15  16
ATOM     16  C   UNL     1       6.692   3.510  12.224  0.00  0.00    +0.000 C 
BRANCH  16  18
ATOM     17  C   UNL     1       4.334   3.168  11.301  0.00  0.00    +0.000 C 
ATOM     18  C   UNL     1       5.544   2.514  11.968  0.00  0.00    +0.000 C 
ATOM     19  C   UNL     1       6.041   1.364  11.084  0.00  0.00    +0.000 C 
ENDBRANCH  16  18
ENDBRANCH  15  16
ENDBRANCH  14  15
ENDBRANCH  12  14
ENDBRANCH   1  12
BRANCH   1  20
ATOM     20  C   UNL     1       5.363   6.124  17.268  0.00  0.00    +0.000 C 
BRANCH  20  21
ATOM     21  C   UNL     1       4.164   6.780  17.941  0.00  0.00    +0.000 A 
ATOM     22  C   UNL     1       3.565   6.267  19.106  0.00  0.00    +0.000 A 
ATOM     23  C   UNL     1       2.462   6.901  19.698  0.00  0.00    +0.000 A 
ATOM     24  C   UNL     1       1.939   8.045  19.111  0.00  0.00    +0.000 A 
ATOM     25  C   UNL     1       2.492   8.537  17.935  0.00  0.00    +0.000 A 
ATOM     26  C   UNL     1       3.588   7.915  17.345  0.00  0.00    +0.000 A 
BRANCH  24  27
ATOM     27  O   UNL     1       0.881   8.720  19.648  0.00  0.00    +0.000 OA
ATOM     28  H   UNL     1       1.207   9.252  20.398  0.00  0.00    +0.000 HD
ENDBRANCH  24  27
BRANCH  25  29
ATOM     29  O   UNL     1       1.956   9.647  17.345  0.00  0.00    +0.000 OA
ATOM     30  H   UNL     1       2.519   9.803  16.561  0.00  0.00    +0.000 HD
ENDBRANCH  25  29
ENDBRANCH  20  21
ENDBRANCH   1  20
TORSDOF 12
ENDMDL
MODEL 2
REMARK VINA RESULT:      -7.2      3.455      5.313
REMARK  Name = 
REMARK  16 active torsions:
REMARK  status: ('A' for Active; 'I' for Inactive)
REMARK    1  A    between atoms: C_1  and  C_2
REMARK    2  A    between atoms: C_2  and  C_3
REMARK    3  A    between atoms: C_2  and  C_4
REMARK    4  A    between atoms: C_4  and  C_5
REMARK    5  A    between atoms: C_5  and  O_6
REMARK    6  A    between atoms: O_6  and  C_7
REMARK    7  A    between atoms: C_7  and  C_9
REMARK    8  A    between atoms: C_9  and  C_10
REMARK    9  A    between atoms: C_9  and  N_19
REMARK   10  A    between atoms: C_10  and  C_11
REMARK   11  A    between atoms: C_14  and  O_15
REMARK   12  A    between atoms: C_16  and  O_17
REMARK   13  A    between atoms: C_20  and  C_22
REMARK   14  A    between atoms: C_22  and  C_23
REMARK   15  A    between atoms: C_22  and  C_24
REMARK   16  A    between atoms: C_22  and  N_25
REMARK                            x       y       z     vdW  Elec       q    Type
REMARK                         _______ _______ _______ _____ _____    ______ ____
ROOT
ATOM      1  C   UNL     1       3.615   6.232  18.175  0.00  0.00    +0.000 C 
ENDROOT
BRANCH   1   2
ATOM      2  N   UNL     1       5.067   6.223  17.946  0.00  0.00    +0.000 N 
ATOM      3  C   UNL     1       5.913   5.677  18.885  0.00  0.00    +0.000 C 
ATOM      4  O   UNL     1       5.490   5.227  19.953  0.00  0.00    +0.000 OA
ATOM      5  H   UNL     1       5.425   6.545  17.056  0.00  0.00    +0.000 HD
BRANCH   3   6
ATOM      6  C   UNL     1       7.426   5.644  18.523  0.00  0.00    +0.000 C 
ATOM      7  C   UNL     1       7.735   4.498  17.559  0.00  0.00    +0.000 C 
ATOM      8  C   UNL     1       7.855   6.986  17.930  0.00  0.00    +0.000 C 
BRANCH   6   9
ATOM      9  N   UNL     1       8.203   5.415  19.768  0.00  0.00    +0.000 NA
ATOM     10  H   UNL     1       7.540   5.411  20.550  0.00  0.00    +0.000 HD
ATOM     11  H   UNL     1       8.758   6.257  19.945  0.00  0.00    +0.000 HD
ENDBRANCH   6   9
ENDBRANCH   3   6
ENDBRANCH   1   2
BRANCH   1  12
ATOM     12  C   UNL     1       2.911   4.946  17.666  0.00  0.00    +0.000 C 
ATOM     13  O   UNL     1       1.709   4.870  17.450  0.00  0.00    +0.000 OA
BRANCH  12  14
ATOM     14  O   UNL     1       3.773   3.887  17.584  0.00  0.00    +0.000 OA
BRANCH  14  15
ATOM     15  C   UNL     1       3.223   2.633  18.017  0.00  0.00    +0.000 C 
BRANCH  15  16
ATOM     16  C   UNL     1       3.123   2.521  19.538  0.00  0.00    +0.000 C 
BRANCH  16  18
ATOM     17  C   UNL     1       1.304   3.835  20.760  0.00  0.00    +0.000 C 
ATOM     18  C   UNL     1       1.694   2.506  20.113  0.00  0.00    +0.000 C 
ATOM     19  C   UNL     1       0.689   2.178  19.002  0.00  0.00    +0.000 C 
ENDBRANCH  16  18
ENDBRANCH  15  16
ENDBRANCH  14  15
ENDBRANCH  12  14
ENDBRANCH   1  12
BRANCH   1  20
ATOM     20  C   UNL     1       2.946   7.488  17.579  0.00  0.00    +0.000 C 
BRANCH  20  21
ATOM     21  C   UNL     1       2.055   8.300  18.509  0.00  0.00    +0.000 A 
ATOM     22  C   UNL     1       1.851   7.962  19.860  0.00  0.00    +0.000 A 
ATOM     23  C   UNL     1       1.022   8.736  20.687  0.00  0.00    +0.000 A 
ATOM     24  C   UNL     1       0.375   9.844  20.157  0.00  0.00    +0.000 A 
ATOM     25  C   UNL     1       0.530  10.161  18.813  0.00  0.00    +0.000 A 
ATOM     26  C   UNL     1       1.353   9.401  17.988  0.00  0.00    +0.000 A 
BRANCH  24  27
ATOM     27  O   UNL     1      -0.428  10.648  20.913  0.00  0.00    +0.000 OA
ATOM     28  H   UNL     1      -1.297  10.214  21.004  0.00  0.00    +0.000 HD
ENDBRANCH  24  27
BRANCH  25  29
ATOM     29  O   UNL     1      -0.132  11.236  18.288  0.00  0.00    +0.000 OA
ATOM     30  H   UNL     1      -1.051  11.136  18.606  0.00  0.00    +0.000 HD
ENDBRANCH  25  29
ENDBRANCH  20  21
ENDBRANCH   1  20
TORSDOF 12
ENDMDL
MODEL 3
REMARK VINA RESULT:      -7.2      2.898      7.114
REMARK  Name = 
REMARK  16 active torsions:
REMARK  status: ('A' for Active; 'I' for Inactive)
REMARK    1  A    between atoms: C_1  and  C_2
REMARK    2  A    between atoms: C_2  and  C_3
REMARK    3  A    between atoms: C_2  and  C_4
REMARK    4  A    between atoms: C_4  and  C_5
REMARK    5  A    between atoms: C_5  and  O_6
REMARK    6  A    between atoms: O_6  and  C_7
REMARK    7  A    between atoms: C_7  and  C_9
REMARK    8  A    between atoms: C_9  and  C_10
REMARK    9  A    between atoms: C_9  and  N_19
REMARK   10  A    between atoms: C_10  and  C_11
REMARK   11  A    between atoms: C_14  and  O_15
REMARK   12  A    between atoms: C_16  and  O_17
REMARK   13  A    between atoms: C_20  and  C_22
REMARK   14  A    between atoms: C_22  and  C_23
REMARK   15  A    between atoms: C_22  and  C_24
REMARK   16  A    between atoms: C_22  and  N_25
REMARK                            x       y       z     vdW  Elec       q    Type
REMARK                         _______ _______ _______ _____ _____    ______ ____
ROOT
ATOM      1  C   UNL     1       3.100   7.143  18.256  0.00  0.00    +0.000 C 
ENDROOT
BRANCH   1   2
ATOM      2  N   UNL     1       2.403   5.850  18.184  0.00  0.00    +0.000 N 
ATOM      3  C   UNL     1       2.606   4.898  19.159  0.00  0.00    +0.000 C 
ATOM      4  O   UNL     1       3.403   5.079  20.083  0.00  0.00    +0.000 OA
ATOM      5  H   UNL     1       1.712   5.705  17.459  0.00  0.00    +0.000 HD
BRANCH   3   6
ATOM      6  C   UNL     1       1.769   3.592  19.040  0.00  0.00    +0.000 C 
ATOM      7  C   UNL     1       2.669   2.357  19.095  0.00  0.00    +0.000 C 
ATOM      8  C   UNL     1       0.709   3.543  20.141  0.00  0.00    +0.000 C 
BRANCH   6   9
ATOM      9  N   UNL     1       1.077   3.594  17.727  0.00  0.00    +0.000 NA
ATOM     10  H   UNL     1       0.751   2.639  17.547  0.00  0.00    +0.000 HD
ATOM     11  H   UNL     1       1.788   3.733  17.003  0.00  0.00    +0.000 HD
ENDBRANCH   6   9
ENDBRANCH   3   6
ENDBRANCH   1   2
BRANCH   1  12
ATOM     12  C   UNL     1       2.136   8.357  18.195  0.00  0.00    +0.000 C 
ATOM     13  O   UNL     1       1.981   9.052  17.200  0.00  0.00    +0.000 OA
BRANCH  12  14
ATOM     14  O   UNL     1       1.558   8.616  19.408  0.00  0.00    +0.000 OA
BRANCH  14  15
ATOM     15  C   UNL     1       1.019   9.940  19.544  0.00  0.00    +0.000 C 
BRANCH  15  16
ATOM     16  C   UNL     1      -0.503   9.979  19.409  0.00  0.00    +0.000 C 
BRANCH  16  18
ATOM     17  C   UNL     1      -2.294   9.951  17.588  0.00  0.00    +0.000 C 
ATOM     18  C   UNL     1      -1.043  10.644  18.128  0.00  0.00    +0.000 C 
ATOM     19  C   UNL     1      -1.368  12.117  18.404  0.00  0.00    +0.000 C 
ENDBRANCH  16  18
ENDBRANCH  15  16
ENDBRANCH  14  15
ENDBRANCH  12  14
ENDBRANCH   1  12
BRANCH   1  20
ATOM     20  C   UNL     1       4.197   7.266  17.179  0.00  0.00    +0.000 C 
BRANCH  20  21
ATOM     21  C   UNL     1       5.392   6.331  17.303  0.00  0.00    +0.000 A 
ATOM     22  C   UNL     1       5.748   5.408  16.302  0.00  0.00    +0.000 A 
ATOM     23  C   UNL     1       6.858   4.562  16.453  0.00  0.00    +0.000 A 
ATOM     24  C   UNL     1       7.606   4.623  17.621  0.00  0.00    +0.000 A 
ATOM     25  C   UNL     1       7.238   5.496  18.637  0.00  0.00    +0.000 A 
ATOM     26  C   UNL     1       6.141   6.341  18.492  0.00  0.00    +0.000 A 
BRANCH  24  27
ATOM     27  O   UNL     1       8.708   3.842  17.820  0.00  0.00    +0.000 OA
ATOM     28  H   UNL     1       9.480   4.427  17.933  0.00  0.00    +0.000 HD
ENDBRANCH  24  27
BRANCH  25  29
ATOM     29  O   UNL     1       7.960   5.532  19.796  0.00  0.00    +0.000 OA
ATOM     30  H   UNL     1       7.859   4.636  20.175  0.00  0.00    +0.000 HD
ENDBRANCH  25  29
ENDBRANCH  20  21
ENDBRANCH   1  20
TORSDOF 12
ENDMDL
MODEL 4
REMARK VINA RESULT:      -7.1      3.058      6.660
REMARK  Name = 
REMARK  16 active torsions:
REMARK  status: ('A' for Active; 'I' for Inactive)
REMARK    1  A    between atoms: C_1  and  C_2
REMARK    2  A    between atoms: C_2  and  C_3
REMARK    3  A    between atoms: C_2  and  C_4
REMARK    4  A    between atoms: C_4  and  C_5
REMARK    5  A    between atoms: C_5  and  O_6
REMARK    6  A    between atoms: O_6  and  C_7
REMARK    7  A    between atoms: C_7  and  C_9
REMARK    8  A    between atoms: C_9  and  C_10
REMARK    9  A    between atoms: C_9  and  N_19
REMARK   10  A    between atoms: C_10  and  C_11
REMARK   11  A    between atoms: C_14  and  O_15
REMARK   12  A    between atoms: C_16  and  O_17
REMARK   13  A    between atoms: C_20  and  C_22
REMARK   14  A    between atoms: C_22  and  C_23
REMARK   15  A    between atoms: C_22  and  C_24
REMARK   16  A    between atoms: C_22  and  N_25
REMARK                            x       y       z     vdW  Elec       q    Type
REMARK                         _______ _______ _______ _____ _____    ______ ____
ROOT
ATOM      1  C   UNL     1       2.656   6.115  19.310  0.00  0.00    +0.000 C 
ENDROOT
BRANCH   1   2
ATOM      2  N   UNL     1       2.128   7.475  19.493  0.00  0.00    +0.000 N 
ATOM      3  C   UNL     1       1.889   8.278  18.399  0.00  0.00    +0.000 C 
ATOM      4  O   UNL     1       2.150   7.905  17.253  0.00  0.00    +0.000 OA
ATOM      5  H   UNL     1       1.865   7.778  20.422  0.00  0.00    +0.000 HD
BRANCH   3   6
ATOM      6  C   UNL     1       1.259   9.672  18.685  0.00  0.00    +0.000 C 
ATOM      7  C   UNL     1       0.826   9.790  20.146  0.00  0.00    +0.000 C 
ATOM      8  C   UNL     1       2.246  10.781  18.317  0.00  0.00    +0.000 C 
BRANCH   6   9
ATOM      9  N   UNL     1       0.051   9.825  17.836  0.00  0.00    +0.000 NA
ATOM     10  H   UNL     1       0.163   9.210  17.025  0.00  0.00    +0.000 HD
ATOM     11  H   UNL     1       0.082  10.760  17.420  0.00  0.00    +0.000 HD
ENDBRANCH   6   9
ENDBRANCH   3   6
ENDBRANCH   1   2
BRANCH   1  12
ATOM     12  C   UNL     1       1.937   5.060  20.191  0.00  0.00    +0.000 C 
ATOM     13  O   UNL     1       2.244   4.823  21.353  0.00  0.00    +0.000 OA
BRANCH  12  14
ATOM     14  O   UNL     1       0.991   4.363  19.491  0.00  0.00    +0.000 OA
BRANCH  14  15
ATOM     15  C   UNL     1       1.485   3.694  18.320  0.00  0.00    +0.000 C 
BRANCH  15  16
ATOM     16  C   UNL     1       1.797   2.219  18.566  0.00  0.00    +0.000 C 
BRANCH  16  18
ATOM     17  C   UNL     1       3.944   2.443  17.199  0.00  0.00    +0.000 C 
ATOM     18  C   UNL     1       3.278   1.817  18.424  0.00  0.00    +0.000 C 
ATOM     19  C   UNL     1       4.052   2.234  19.680  0.00  0.00    +0.000 C 
ENDBRANCH  16  18
ENDBRANCH  15  16
ENDBRANCH  14  15
ENDBRANCH  12  14
ENDBRANCH   1  12
BRANCH   1  20
ATOM     20  C   UNL     1       4.182   6.056  19.529  0.00  0.00    +0.000 C 
BRANCH  20  21
ATOM     21  C   UNL     1       5.039   5.723  18.315  0.00  0.00    +0.000 A 
ATOM     22  C   UNL     1       4.643   6.016  16.997  0.00  0.00    +0.000 A 
ATOM     23  C   UNL     1       5.462   5.694  15.902  0.00  0.00    +0.000 A 
ATOM     24  C   UNL     1       6.674   5.056  16.124  0.00  0.00    +0.000 A 
ATOM     25  C   UNL     1       7.055   4.718  17.416  0.00  0.00    +0.000 A 
ATOM     26  C   UNL     1       6.251   5.038  18.506  0.00  0.00    +0.000 A 
BRANCH  24  27
ATOM     27  O   UNL     1       7.524   4.734  15.104  0.00  0.00    +0.000 OA
ATOM     28  H   UNL     1       8.316   4.315  15.488  0.00  0.00    +0.000 HD
ENDBRANCH  24  27
BRANCH  25  29
ATOM     29  O   UNL     1       8.237   4.064  17.627  0.00  0.00    +0.000 OA
ATOM     30  H   UNL     1       8.492   3.729  16.745  0.00  0.00    +0.000 HD
ENDBRANCH  25  29
ENDBRANCH  20  21
ENDBRANCH   1  20
TORSDOF 12
ENDMDL
MODEL 5
REMARK VINA RESULT:      -7.0      3.146      6.663
REMARK  Name = 
REMARK  16 active torsions:
REMARK  status: ('A' for Active; 'I' for Inactive)
REMARK    1  A    between atoms: C_1  and  C_2
REMARK    2  A    between atoms: C_2  and  C_3
REMARK    3  A    between atoms: C_2  and  C_4
REMARK    4  A    between atoms: C_4  and  C_5
REMARK    5  A    between atoms: C_5  and  O_6
REMARK    6  A    between atoms: O_6  and  C_7
REMARK    7  A    between atoms: C_7  and  C_9
REMARK    8  A    between atoms: C_9  and  C_10
REMARK    9  A    between atoms: C_9  and  N_19
REMARK   10  A    between atoms: C_10  and  C_11
REMARK   11  A    between atoms: C_14  and  O_15
REMARK   12  A    between atoms: C_16  and  O_17
REMARK   13  A    between atoms: C_20  and  C_22
REMARK   14  A    between atoms: C_22  and  C_23
REMARK   15  A    between atoms: C_22  and  C_24
REMARK   16  A    between atoms: C_22  and  N_25
REMARK                            x       y       z     vdW  Elec       q    Type
REMARK                         _______ _______ _______ _____ _____    ______ ____
ROOT
ATOM      1  C   UNL     1       2.578   6.185  19.259  0.00  0.00    +0.000 C 
ENDROOT
BRANCH   1   2
ATOM      2  N   UNL     1       2.035   7.019  20.341  0.00  0.00    +0.000 N 
ATOM      3  C   UNL     1       1.609   8.303  20.079  0.00  0.00    +0.000 C 
ATOM      4  O   UNL     1       1.712   8.802  18.956  0.00  0.00    +0.000 OA
ATOM      5  H   UNL     1       1.901   6.609  21.257  0.00  0.00    +0.000 HD
BRANCH   3   6
ATOM      6  C   UNL     1       0.981   9.084  21.270  0.00  0.00    +0.000 C 
ATOM      7  C   UNL     1       0.743  10.548  20.900  0.00  0.00    +0.000 C 
ATOM      8  C   UNL     1      -0.322   8.413  21.710  0.00  0.00    +0.000 C 
BRANCH   6   9
ATOM      9  N   UNL     1       1.931   9.048  22.410  0.00  0.00    +0.000 NA
ATOM     10  H   UNL     1       2.165   8.067  22.587  0.00  0.00    +0.000 HD
ATOM     11  H   UNL     1       1.413   9.314  23.252  0.00  0.00    +0.000 HD
ENDBRANCH   6   9
ENDBRANCH   3   6
ENDBRANCH   1   2
BRANCH   1  12
ATOM     12  C   UNL     1       1.636   5.018  18.861  0.00  0.00    +0.000 C 
ATOM     13  O   UNL     1       1.411   4.691  17.703  0.00  0.00    +0.000 OA
BRANCH  12  14
ATOM     14  O   UNL     1       1.014   4.465  19.947  0.00  0.00    +0.000 OA
BRANCH  14  15
ATOM     15  C   UNL     1       1.242   3.057  20.115  0.00  0.00    +0.000 C 
BRANCH  15  16
ATOM     16  C   UNL     1       2.616   2.743  20.706  0.00  0.00    +0.000 C 
BRANCH  16  18
ATOM     17  C   UNL     1       3.513   2.109  18.399  0.00  0.00    +0.000 C 
ATOM     18  C   UNL     1       3.487   1.768  19.890  0.00  0.00    +0.000 C 
ATOM     19  C   UNL     1       4.922   1.777  20.429  0.00  0.00    +0.000 C 
ENDBRANCH  16  18
ENDBRANCH  15  16
ENDBRANCH  14  15
ENDBRANCH  12  14
ENDBRANCH   1  12
BRANCH   1  20
ATOM     20  C   UNL     1       3.987   5.654  19.593  0.00  0.00    +0.000 C 
BRANCH  20  21
ATOM     21  C   UNL     1       4.974   5.549  18.437  0.00  0.00    +0.000 A 
ATOM     22  C   UNL     1       6.177   4.825  18.523  0.00  0.00    +0.000 A 
ATOM     23  C   UNL     1       7.061   4.750  17.436  0.00  0.00    +0.000 A 
ATOM     24  C   UNL     1       6.752   5.420  16.260  0.00  0.00    +0.000 A 
ATOM     25  C   UNL     1       5.590   6.177  16.177  0.00  0.00    +0.000 A 
ATOM     26  C   UNL     1       4.707   6.252  17.250  0.00  0.00    +0.000 A 
BRANCH  24  27
ATOM     27  O   UNL     1       7.560   5.370  15.161  0.00  0.00    +0.000 OA
ATOM     28  H   UNL     1       7.574   4.451  14.833  0.00  0.00    +0.000 HD
ENDBRANCH  24  27
BRANCH  25  29
ATOM     29  O   UNL     1       5.304   6.859  15.028  0.00  0.00    +0.000 OA
ATOM     30  H   UNL     1       4.414   7.233  15.180  0.00  0.00    +0.000 HD
ENDBRANCH  25  29
ENDBRANCH  20  21
ENDBRANCH   1  20
TORSDOF 12
ENDMDL
MODEL 6
REMARK VINA RESULT:      -7.0      3.478      7.231
REMARK  Name = 
REMARK  16 active torsions:
REMARK  status: ('A' for Active; 'I' for Inactive)
REMARK    1  A    between atoms: C_1  and  C_2
REMARK    2  A    between atoms: C_2  and  C_3
REMARK    3  A    between atoms: C_2  and  C_4
REMARK    4  A    between atoms: C_4  and  C_5
REMARK    5  A    between atoms: C_5  and  O_6
REMARK    6  A    between atoms: O_6  and  C_7
REMARK    7  A    between atoms: C_7  and  C_9
REMARK    8  A    between atoms: C_9  and  C_10
REMARK    9  A    between atoms: C_9  and  N_19
REMARK   10  A    between atoms: C_10  and  C_11
REMARK   11  A    between atoms: C_14  and  O_15
REMARK   12  A    between atoms: C_16  and  O_17
REMARK   13  A    between atoms: C_20  and  C_22
REMARK   14  A    between atoms: C_22  and  C_23
REMARK   15  A    between atoms: C_22  and  C_24
REMARK   16  A    between atoms: C_22  and  N_25
REMARK                            x       y       z     vdW  Elec       q    Type
REMARK                         _______ _______ _______ _____ _____    ______ ____
ROOT
ATOM      1  C   UNL     1       3.073   6.674  17.670  0.00  0.00    +0.000 C 
ENDROOT
BRANCH   1   2
ATOM      2  N   UNL     1       4.496   6.364  17.875  0.00  0.00    +0.000 N 
ATOM      3  C   UNL     1       5.393   6.515  16.841  0.00  0.00    +0.000 C 
ATOM      4  O   UNL     1       5.030   6.863  15.715  0.00  0.00    +0.000 OA
ATOM      5  H   UNL     1       4.816   6.122  18.804  0.00  0.00    +0.000 HD
BRANCH   3   6
ATOM      6  C   UNL     1       6.889   6.235  17.172  0.00  0.00    +0.000 C 
ATOM      7  C   UNL     1       7.617   7.525  17.551  0.00  0.00    +0.000 C 
ATOM      8  C   UNL     1       6.996   5.198  18.291  0.00  0.00    +0.000 C 
BRANCH   6   9
ATOM      9  N   UNL     1       7.542   5.681  15.959  0.00  0.00    +0.000 NA
ATOM     10  H   UNL     1       7.064   6.074  15.143  0.00  0.00    +0.000 HD
ATOM     11  H   UNL     1       7.303   4.687  15.906  0.00  0.00    +0.000 HD
ENDBRANCH   6   9
ENDBRANCH   3   6
ENDBRANCH   1   2
BRANCH   1  12
ATOM     12  C   UNL     1       2.545   7.767  18.636  0.00  0.00    +0.000 C 
ATOM     13  O   UNL     1       2.280   7.562  19.814  0.00  0.00    +0.000 OA
BRANCH  12  14
ATOM     14  O   UNL     1       2.319   8.954  17.996  0.00  0.00    +0.000 OA
BRANCH  14  15
ATOM     15  C   UNL     1       0.932   9.287  17.823  0.00  0.00    +0.000 C 
BRANCH  15  16
ATOM     16  C   UNL     1       0.496  10.478  18.676  0.00  0.00    +0.000 C 
BRANCH  16  18
ATOM     17  C   UNL     1      -1.194  12.355  18.289  0.00  0.00    +0.000 C 
ATOM     18  C   UNL     1      -0.992  10.866  18.570  0.00  0.00    +0.000 C 
ATOM     19  C   UNL     1      -1.663  10.052  17.457  0.00  0.00    +0.000 C 
ENDBRANCH  16  18
ENDBRANCH  15  16
ENDBRANCH  14  15
ENDBRANCH  12  14
ENDBRANCH   1  12
BRANCH   1  20
ATOM     20  C   UNL     1       2.192   5.411  17.746  0.00  0.00    +0.000 C 
BRANCH  20  21
ATOM     21  C   UNL     1       2.415   4.487  18.936  0.00  0.00    +0.000 A 
ATOM     22  C   UNL     1       1.552   4.447  20.046  0.00  0.00    +0.000 A 
ATOM     23  C   UNL     1       1.791   3.580  21.124  0.00  0.00    +0.000 A 
ATOM     24  C   UNL     1       2.912   2.762  21.103  0.00  0.00    +0.000 A 
ATOM     25  C   UNL     1       3.798   2.824  20.035  0.00  0.00    +0.000 A 
ATOM     26  C   UNL     1       3.565   3.678  18.961  0.00  0.00    +0.000 A 
BRANCH  24  27
ATOM     27  O   UNL     1       3.189   1.882  22.111  0.00  0.00    +0.000 OA
ATOM     28  H   UNL     1       3.584   1.082  21.717  0.00  0.00    +0.000 HD
ENDBRANCH  24  27
BRANCH  25  29
ATOM     29  O   UNL     1       4.915   2.037  20.032  0.00  0.00    +0.000 OA
ATOM     30  H   UNL     1       4.619   1.190  20.420  0.00  0.00    +0.000 HD
ENDBRANCH  25  29
ENDBRANCH  20  21
ENDBRANCH   1  20
TORSDOF 12
ENDMDL
MODEL 7
REMARK VINA RESULT:      -7.0      2.224      5.423
REMARK  Name = 
REMARK  16 active torsions:
REMARK  status: ('A' for Active; 'I' for Inactive)
REMARK    1  A    between atoms: C_1  and  C_2
REMARK    2  A    between atoms: C_2  and  C_3
REMARK    3  A    between atoms: C_2  and  C_4
REMARK    4  A    between atoms: C_4  and  C_5
REMARK    5  A    between atoms: C_5  and  O_6
REMARK    6  A    between atoms: O_6  and  C_7
REMARK    7  A    between atoms: C_7  and  C_9
REMARK    8  A    between atoms: C_9  and  C_10
REMARK    9  A    between atoms: C_9  and  N_19
REMARK   10  A    between atoms: C_10  and  C_11
REMARK   11  A    between atoms: C_14  and  O_15
REMARK   12  A    between atoms: C_16  and  O_17
REMARK   13  A    between atoms: C_20  and  C_22
REMARK   14  A    between atoms: C_22  and  C_23
REMARK   15  A    between atoms: C_22  and  C_24
REMARK   16  A    between atoms: C_22  and  N_25
REMARK                            x       y       z     vdW  Elec       q    Type
REMARK                         _______ _______ _______ _____ _____    ______ ____
ROOT
ATOM      1  C   UNL     1       4.351   5.803  17.858  0.00  0.00    +0.000 C 
ENDROOT
BRANCH   1   2
ATOM      2  N   UNL     1       4.763   5.012  16.690  0.00  0.00    +0.000 N 
ATOM      3  C   UNL     1       5.772   5.463  15.868  0.00  0.00    +0.000 C 
ATOM      4  O   UNL     1       6.321   6.552  16.055  0.00  0.00    +0.000 OA
ATOM      5  H   UNL     1       4.355   4.096  16.549  0.00  0.00    +0.000 HD
BRANCH   3   6
ATOM      6  C   UNL     1       6.191   4.523  14.700  0.00  0.00    +0.000 C 
ATOM      7  C   UNL     1       5.041   4.331  13.711  0.00  0.00    +0.000 C 
ATOM      8  C   UNL     1       7.430   5.078  13.996  0.00  0.00    +0.000 C 
BRANCH   6   9
ATOM      9  N   UNL     1       6.534   3.194  15.266  0.00  0.00    +0.000 NA
ATOM     10  H   UNL     1       7.060   2.680  14.552  0.00  0.00    +0.000 HD
ATOM     11  H   UNL     1       5.666   2.657  15.340  0.00  0.00    +0.000 HD
ENDBRANCH   6   9
ENDBRANCH   3   6
ENDBRANCH   1   2
BRANCH   1  12
ATOM     12  C   UNL     1       4.961   5.286  19.188  0.00  0.00    +0.000 C 
ATOM     13  O   UNL     1       6.107   5.524  19.548  0.00  0.00    +0.000 OA
BRANCH  12  14
ATOM     14  O   UNL     1       4.104   4.457  19.859  0.00  0.00    +0.000 OA
BRANCH  14  15
ATOM     15  C   UNL     1       4.357   3.056  19.671  0.00  0.00    +0.000 C 
BRANCH  15  16
ATOM     16  C   UNL     1       3.077   2.239  19.500  0.00  0.00    +0.000 C 
BRANCH  16  18
ATOM     17  C   UNL     1       0.628   2.553  18.846  0.00  0.00    +0.000 C 
ATOM     18  C   UNL     1       1.762   2.993  19.772  0.00  0.00    +0.000 C 
ATOM     19  C   UNL     1       1.330   2.777  21.227  0.00  0.00    +0.000 C 
ENDBRANCH  16  18
ENDBRANCH  15  16
ENDBRANCH  14  15
ENDBRANCH  12  14
ENDBRANCH   1  12
BRANCH   1  20
ATOM     20  C   UNL     1       2.817   5.909  17.970  0.00  0.00    +0.000 C 
BRANCH  20  21
ATOM     21  C   UNL     1       2.258   7.191  18.572  0.00  0.00    +0.000 A 
ATOM     22  C   UNL     1       1.961   8.331  17.803  0.00  0.00    +0.000 A 
ATOM     23  C   UNL     1       1.445   9.495  18.394  0.00  0.00    +0.000 A 
ATOM     24  C   UNL     1       1.244   9.529  19.767  0.00  0.00    +0.000 A 
ATOM     25  C   UNL     1       1.577   8.427  20.545  0.00  0.00    +0.000 A 
ATOM     26  C   UNL     1       2.085   7.268  19.965  0.00  0.00    +0.000 A 
BRANCH  24  27
ATOM     27  O   UNL     1       0.727  10.623  20.400  0.00  0.00    +0.000 OA
ATOM     28  H   UNL     1      -0.236  10.637  20.247  0.00  0.00    +0.000 HD
ENDBRANCH  24  27
BRANCH  25  29
ATOM     29  O   UNL     1       1.405   8.475  21.900  0.00  0.00    +0.000 OA
ATOM     30  H   UNL     1       2.025   7.805  22.250  0.00  0.00    +0.000 HD
ENDBRANCH  25  29
ENDBRANCH  20  21
ENDBRANCH   1  20
TORSDOF 12
ENDMDL
MODEL 8
REMARK VINA RESULT:      -7.0      2.961      6.980
REMARK  Name = 
REMARK  16 active torsions:
REMARK  status: ('A' for Active; 'I' for Inactive)
REMARK    1  A    between atoms: C_1  and  C_2
REMARK    2  A    between atoms: C_2  and  C_3
REMARK    3  A    between atoms: C_2  and  C_4
REMARK    4  A    between atoms: C_4  and  C_5
REMARK    5  A    between atoms: C_5  and  O_6
REMARK    6  A    between atoms: O_6  and  C_7
REMARK    7  A    between atoms: C_7  and  C_9
REMARK    8  A    between atoms: C_9  and  C_10
REMARK    9  A    between atoms: C_9  and  N_19
REMARK   10  A    between atoms: C_10  and  C_11
REMARK   11  A    between atoms: C_14  and  O_15
REMARK   12  A    between atoms: C_16  and  O_17
REMARK   13  A    between atoms: C_20  and  C_22
REMARK   14  A    between atoms: C_22  and  C_23
REMARK   15  A    between atoms: C_22  and  C_24
REMARK   16  A    between atoms: C_22  and  N_25
REMARK                            x       y       z     vdW  Elec       q    Type
REMARK                         _______ _______ _______ _____ _____    ______ ____
ROOT
ATOM      1  C   UNL     1       2.485   6.366  18.284  0.00  0.00    +0.000 C 
ENDROOT
BRANCH   1   2
ATOM      2  N   UNL     1       1.857   7.498  18.982  0.00  0.00    +0.000 N 
ATOM      3  C   UNL     1       1.750   8.722  18.360  0.00  0.00    +0.000 C 
ATOM      4  O   UNL     1       2.213   8.918  17.234  0.00  0.00    +0.000 OA
ATOM      5  H   UNL     1       1.431   7.341  19.887  0.00  0.00    +0.000 HD
BRANCH   3   6
ATOM      6  C   UNL     1       1.003   9.839  19.147  0.00  0.00    +0.000 C 
ATOM      7  C   UNL     1      -0.407  10.049  18.594  0.00  0.00    +0.000 C 
ATOM      8  C   UNL     1       0.960   9.495  20.636  0.00  0.00    +0.000 C 
BRANCH   6   9
ATOM      9  N   UNL     1       1.752  11.110  18.984  0.00  0.00    +0.000 NA
ATOM     10  H   UNL     1       2.111  11.378  19.906  0.00  0.00    +0.000 HD
ATOM     11  H   UNL     1       1.071  11.847  18.782  0.00  0.00    +0.000 HD
ENDBRANCH   6   9
ENDBRANCH   3   6
ENDBRANCH   1   2
BRANCH   1  12
ATOM     12  C   UNL     1       1.657   5.057  18.382  0.00  0.00    +0.000 C 
ATOM     13  O   UNL     1       1.208   4.464  17.410  0.00  0.00    +0.000 OA
BRANCH  12  14
ATOM     14  O   UNL     1       1.408   4.701  19.679  0.00  0.00    +0.000 OA
BRANCH  14  15
ATOM     15  C   UNL     1       1.028   3.328  19.861  0.00  0.00    +0.000 C 
BRANCH  15  16
ATOM     16  C   UNL     1       2.161   2.466  20.416  0.00  0.00    +0.000 C 
BRANCH  16  18
ATOM     17  C   UNL     1       4.659   1.931  20.411  0.00  0.00    +0.000 C 
ATOM     18  C   UNL     1       3.483   2.510  19.625  0.00  0.00    +0.000 C 
ATOM     19  C   UNL     1       3.329   1.732  18.313  0.00  0.00    +0.000 C 
ENDBRANCH  16  18
ENDBRANCH  15  16
ENDBRANCH  14  15
ENDBRANCH  12  14
ENDBRANCH   1  12
BRANCH   1  20
ATOM     20  C   UNL     1       3.933   6.129  18.759  0.00  0.00    +0.000 C 
BRANCH  20  21
ATOM     21  C   UNL     1       4.962   5.795  17.687  0.00  0.00    +0.000 A 
ATOM     22  C   UNL     1       4.780   6.109  16.328  0.00  0.00    +0.000 A 
ATOM     23  C   UNL     1       5.753   5.786  15.369  0.00  0.00    +0.000 A 
ATOM     24  C   UNL     1       6.906   5.124  15.766  0.00  0.00    +0.000 A 
ATOM     25  C   UNL     1       7.078   4.766  17.098  0.00  0.00    +0.000 A 
ATOM     26  C   UNL     1       6.120   5.087  18.055  0.00  0.00    +0.000 A 
BRANCH  24  27
ATOM     27  O   UNL     1       7.898   4.799  14.886  0.00  0.00    +0.000 OA
ATOM     28  H   UNL     1       7.596   4.042  14.351  0.00  0.00    +0.000 HD
ENDBRANCH  24  27
BRANCH  25  29
ATOM     29  O   UNL     1       8.202   4.089  17.480  0.00  0.00    +0.000 OA
ATOM     30  H   UNL     1       8.923   4.502  16.964  0.00  0.00    +0.000 HD
ENDBRANCH  25  29
ENDBRANCH  20  21
ENDBRANCH   1  20
TORSDOF 12
ENDMDL
MODEL 9
REMARK VINA RESULT:      -7.0      3.085      7.910
REMARK  Name = 
REMARK  16 active torsions:
REMARK  status: ('A' for Active; 'I' for Inactive)
REMARK    1  A    between atoms: C_1  and  C_2
REMARK    2  A    between atoms: C_2  and  C_3
REMARK    3  A    between atoms: C_2  and  C_4
REMARK    4  A    between atoms: C_4  and  C_5
REMARK    5  A    between atoms: C_5  and  O_6
REMARK    6  A    between atoms: O_6  and  C_7
REMARK    7  A    between atoms: C_7  and  C_9
REMARK    8  A    between atoms: C_9  and  C_10
REMARK    9  A    between atoms: C_9  and  N_19
REMARK   10  A    between atoms: C_10  and  C_11
REMARK   11  A    between atoms: C_14  and  O_15
REMARK   12  A    between atoms: C_16  and  O_17
REMARK   13  A    between atoms: C_20  and  C_22
REMARK   14  A    between atoms: C_22  and  C_23
REMARK   15  A    between atoms: C_22  and  C_24
REMARK   16  A    between atoms: C_22  and  N_25
REMARK                            x       y       z     vdW  Elec       q    Type
REMARK                         _______ _______ _______ _____ _____    ______ ____
ROOT
ATOM      1  C   UNL     1       2.950   6.702  17.973  0.00  0.00    +0.000 C 
ENDROOT
BRANCH   1   2
ATOM      2  N   UNL     1       4.403   6.570  18.159  0.00  0.00    +0.000 N 
ATOM      3  C   UNL     1       5.184   6.038  17.157  0.00  0.00    +0.000 C 
ATOM      4  O   UNL     1       4.691   5.617  16.107  0.00  0.00    +0.000 OA
ATOM      5  H   UNL     1       4.827   6.953  18.994  0.00  0.00    +0.000 HD
BRANCH   3   6
ATOM      6  C   UNL     1       6.719   6.007  17.413  0.00  0.00    +0.000 C 
ATOM      7  C   UNL     1       7.023   5.820  18.900  0.00  0.00    +0.000 C 
ATOM      8  C   UNL     1       7.370   4.903  16.580  0.00  0.00    +0.000 C 
BRANCH   6   9
ATOM      9  N   UNL     1       7.292   7.309  16.990  0.00  0.00    +0.000 NA
ATOM     10  H   UNL     1       8.303   7.181  16.880  0.00  0.00    +0.000 HD
ATOM     11  H   UNL     1       7.230   7.948  17.788  0.00  0.00    +0.000 HD
ENDBRANCH   6   9
ENDBRANCH   3   6
ENDBRANCH   1   2
BRANCH   1  12
ATOM     12  C   UNL     1       2.421   8.121  18.311  0.00  0.00    +0.000 C 
ATOM     13  O   UNL     1       2.422   9.053  17.517  0.00  0.00    +0.000 OA
BRANCH  12  14
ATOM     14  O   UNL     1       2.048   8.232  19.622  0.00  0.00    +0.000 OA
BRANCH  14  15
ATOM     15  C   UNL     1       1.096   9.274  19.888  0.00  0.00    +0.000 C 
BRANCH  15  16
ATOM     16  C   UNL     1       0.661   9.323  21.352  0.00  0.00    +0.000 C 
BRANCH  16  18
ATOM     17  C   UNL     1      -0.766  11.344  20.713  0.00  0.00    +0.000 C 
ATOM     18  C   UNL     1       0.033  10.651  21.817  0.00  0.00    +0.000 C 
ATOM     19  C   UNL     1      -0.889  10.399  23.016  0.00  0.00    +0.000 C 
ENDBRANCH  16  18
ENDBRANCH  15  16
ENDBRANCH  14  15
ENDBRANCH  12  14
ENDBRANCH   1  12
BRANCH   1  20
ATOM     20  C   UNL     1       2.170   5.630  18.760  0.00  0.00    +0.000 C 
BRANCH  20  21
ATOM     21  C   UNL     1       2.676   4.197  18.659  0.00  0.00    +0.000 A 
ATOM     22  C   UNL     1       2.214   3.290  17.688  0.00  0.00    +0.000 A 
ATOM     23  C   UNL     1       2.706   1.977  17.625  0.00  0.00    +0.000 A 
ATOM     24  C   UNL     1       3.649   1.559  18.553  0.00  0.00    +0.000 A 
ATOM     25  C   UNL     1       4.079   2.430  19.546  0.00  0.00    +0.000 A 
ATOM     26  C   UNL     1       3.600   3.734  19.612  0.00  0.00    +0.000 A 
BRANCH  24  27
ATOM     27  O   UNL     1       4.181   0.301  18.534  0.00  0.00    +0.000 OA
ATOM     28  H   UNL     1       3.605  -0.282  19.063  0.00  0.00    +0.000 HD
ENDBRANCH  24  27
BRANCH  25  29
ATOM     29  O   UNL     1       4.987   2.005  20.475  0.00  0.00    +0.000 OA
ATOM     30  H   UNL     1       4.847   1.039  20.530  0.00  0.00    +0.000 HD
ENDBRANCH  25  29
ENDBRANCH  20  21
ENDBRANCH   1  20
TORSDOF 12
ENDMDL
