MODEL 1
REMARK VINA RESULT:      -7.3      0.000      0.000
REMARK  Name = 
REMARK  3 active torsions:
REMARK  status: ('A' for Active; 'I' for Inactive)
REMARK    1  A    between atoms: C_2  and  C_3
REMARK    2  A    between atoms: C_5  and  C_6
REMARK    3  A    between atoms: C_16  and  O_17
REMARK                            x       y       z     vdW  Elec       q    Type
REMARK                         _______ _______ _______ _____ _____    ______ ____
ROOT
ATOM      1  C   UNL     1       5.795   4.179  15.620  0.00  0.00    +0.000 A 
ATOM      2  C   UNL     1       4.768   3.490  16.288  0.00  0.00    +0.000 A 
ATOM      3  C   UNL     1       4.632   3.597  17.676  0.00  0.00    +0.000 A 
ATOM      4  C   UNL     1       5.552   4.356  18.407  0.00  0.00    +0.000 A 
ATOM      5  C   UNL     1       6.545   5.073  17.743  0.00  0.00    +0.000 A 
ATOM      6 BR   UNL     1       7.725   6.148  18.765  0.00  0.00    +0.000 Br
ATOM      7  C   UNL     1       6.672   4.986  16.355  0.00  0.00    +0.000 A 
ENDROOT
BRANCH   3   8
ATOM      8  C   UNL     1       3.608   2.772  18.368  0.00  0.00    +0.000 C 
ATOM      9  O   UNL     1       3.553   1.578  18.083  0.00  0.00    +0.000 OA
ATOM     10  N   UNL     1       2.801   3.351  19.332  0.00  0.00    +0.000 N 
ATOM     11  C   UNL     1       1.978   2.492  20.169  0.00  0.00    +0.000 C 
ATOM     12  C   UNL     1       1.162   3.479  20.931  0.00  0.00    +0.000 C 
ATOM     13  C   UNL     1       1.378   4.725  20.498  0.00  0.00    +0.000 C 
ATOM     14  C   UNL     1       2.389   4.748  19.402  0.00  0.00    +0.000 C 
ENDBRANCH   3   8
BRANCH   1  16
ATOM     15  N   UNL     1       6.111   3.888  13.059  0.00  0.00    +0.000 NA
ATOM     16  C   UNL     1       5.950   4.017  14.201  0.00  0.00    +0.000 C 
ENDBRANCH   1  16
BRANCH   7  17
ATOM     17  O   UNL     1       7.660   5.669  15.698  0.00  0.00    +0.000 OA
ATOM     18  H   UNL     1       7.968   5.126  14.949  0.00  0.00    +0.000 HD
ENDBRANCH   7  17
TORSDOF 3
ENDMDL
MODEL 2
REMARK VINA RESULT:      -7.2      0.964      1.001
REMARK  Name = 
REMARK  3 active torsions:
REMARK  status: ('A' for Active; 'I' for Inactive)
REMARK    1  A    between atoms: C_2  and  C_3
REMARK    2  A    between atoms: C_5  and  C_6
REMARK    3  A    between atoms: C_16  and  O_17
REMARK                            x       y       z     vdW  Elec       q    Type
REMARK                         _______ _______ _______ _____ _____    ______ ____
ROOT
ATOM      1  C   UNL     1       5.947   4.343  16.176  0.00  0.00    +0.000 A 
ATOM      2  C   UNL     1       5.170   3.651  17.122  0.00  0.00    +0.000 A 
ATOM      3  C   UNL     1       5.242   3.988  18.478  0.00  0.00    +0.000 A 
ATOM      4  C   UNL     1       6.126   4.987  18.899  0.00  0.00    +0.000 A 
ATOM      5  C   UNL     1       6.866   5.701  17.960  0.00  0.00    +0.000 A 
ATOM      6 BR   UNL     1       7.996   7.097  18.566  0.00  0.00    +0.000 Br
ATOM      7  C   UNL     1       6.781   5.383  16.602  0.00  0.00    +0.000 A 
ENDROOT
BRANCH   3   8
ATOM      8  C   UNL     1       4.494   3.168  19.467  0.00  0.00    +0.000 C 
ATOM      9  O   UNL     1       5.056   2.175  19.922  0.00  0.00    +0.000 OA
ATOM     10  N   UNL     1       3.236   3.572  19.878  0.00  0.00    +0.000 N 
ATOM     11  C   UNL     1       2.620   2.907  21.014  0.00  0.00    +0.000 C 
ATOM     12  C   UNL     1       1.252   3.498  21.024  0.00  0.00    +0.000 C 
ATOM     13  C   UNL     1       1.055   4.285  19.963  0.00  0.00    +0.000 C 
ATOM     14  C   UNL     1       2.274   4.352  19.107  0.00  0.00    +0.000 C 
ENDBRANCH   3   8
BRANCH   1  16
ATOM     15  N   UNL     1       5.870   3.664  13.671  0.00  0.00    +0.000 NA
ATOM     16  C   UNL     1       5.898   3.949  14.795  0.00  0.00    +0.000 C 
ENDBRANCH   1  16
BRANCH   7  17
ATOM     17  O   UNL     1       7.523   6.065  15.676  0.00  0.00    +0.000 OA
ATOM     18  H   UNL     1       7.838   5.433  15.003  0.00  0.00    +0.000 HD
ENDBRANCH   7  17
TORSDOF 3
ENDMDL
MODEL 3
REMARK VINA RESULT:      -6.9      2.418      2.943
REMARK  Name = 
REMARK  3 active torsions:
REMARK  status: ('A' for Active; 'I' for Inactive)
REMARK    1  A    between atoms: C_2  and  C_3
REMARK    2  A    between atoms: C_5  and  C_6
REMARK    3  A    between atoms: C_16  and  O_17
REMARK                            x       y       z     vdW  Elec       q    Type
REMARK                         _______ _______ _______ _____ _____    ______ ____
ROOT
ATOM      1  C   UNL     1       6.939   5.711  17.916  0.00  0.00    +0.000 A 
ATOM      2  C   UNL     1       6.212   4.968  18.863  0.00  0.00    +0.000 A 
ATOM      3  C   UNL     1       5.376   3.924  18.451  0.00  0.00    +0.000 A 
ATOM      4  C   UNL     1       5.229   3.650  17.088  0.00  0.00    +0.000 A 
ATOM      5  C   UNL     1       5.978   4.358  16.151  0.00  0.00    +0.000 A 
ATOM      6 BR   UNL     1       5.804   3.904  14.319  0.00  0.00    +0.000 Br
ATOM      7  C   UNL     1       6.830   5.387  16.559  0.00  0.00    +0.000 A 
ENDROOT
BRANCH   3   8
ATOM      8  C   UNL     1       4.537   3.229  19.462  0.00  0.00    +0.000 C 
ATOM      9  O   UNL     1       5.012   2.236  20.009  0.00  0.00    +0.000 OA
ATOM     10  N   UNL     1       3.294   3.742  19.787  0.00  0.00    +0.000 N 
ATOM     11  C   UNL     1       2.590   3.203  20.940  0.00  0.00    +0.000 C 
ATOM     12  C   UNL     1       1.266   3.880  20.849  0.00  0.00    +0.000 C 
ATOM     13  C   UNL     1       1.164   4.599  19.727  0.00  0.00    +0.000 C 
ATOM     14  C   UNL     1       2.417   4.524  18.923  0.00  0.00    +0.000 C 
ENDBRANCH   3   8
BRANCH   1  16
ATOM     15  N   UNL     1       8.436   7.688  18.687  0.00  0.00    +0.000 NA
ATOM     16  C   UNL     1       7.752   6.812  18.353  0.00  0.00    +0.000 C 
ENDBRANCH   1  16
BRANCH   7  17
ATOM     17  O   UNL     1       7.553   6.102  15.643  0.00  0.00    +0.000 OA
ATOM     18  H   UNL     1       8.486   5.822  15.695  0.00  0.00    +0.000 HD
ENDBRANCH   7  17
TORSDOF 3
ENDMDL
MODEL 4
REMARK VINA RESULT:      -6.8      2.586      3.137
REMARK  Name = 
REMARK  3 active torsions:
REMARK  status: ('A' for Active; 'I' for Inactive)
REMARK    1  A    between atoms: C_2  and  C_3
REMARK    2  A    between atoms: C_5  and  C_6
REMARK    3  A    between atoms: C_16  and  O_17
REMARK                            x       y       z     vdW  Elec       q    Type
REMARK                         _______ _______ _______ _____ _____    ______ ____
ROOT
ATOM      1  C   UNL     1       6.377   4.752  18.126  0.00  0.00    +0.000 A 
ATOM      2  C   UNL     1       5.067   4.646  18.628  0.00  0.00    +0.000 A 
ATOM      3  C   UNL     1       4.007   4.325  17.772  0.00  0.00    +0.000 A 
ATOM      4  C   UNL     1       4.245   4.155  16.405  0.00  0.00    +0.000 A 
ATOM      5  C   UNL     1       5.547   4.219  15.913  0.00  0.00    +0.000 A 
ATOM      6 BR   UNL     1       5.834   3.909  14.065  0.00  0.00    +0.000 Br
ATOM      7  C   UNL     1       6.611   4.518  16.766  0.00  0.00    +0.000 A 
ENDROOT
BRANCH   3   8
ATOM      8  C   UNL     1       2.621   4.329  18.308  0.00  0.00    +0.000 C 
ATOM      9  O   UNL     1       1.766   4.939  17.669  0.00  0.00    +0.000 OA
ATOM     10  N   UNL     1       2.330   3.614  19.456  0.00  0.00    +0.000 N 
ATOM     11  C   UNL     1       0.938   3.423  19.833  0.00  0.00    +0.000 C 
ATOM     12  C   UNL     1       1.057   2.774  21.169  0.00  0.00    +0.000 C 
ATOM     13  C   UNL     1       2.330   2.724  21.573  0.00  0.00    +0.000 C 
ATOM     14  C   UNL     1       3.244   3.309  20.552  0.00  0.00    +0.000 C 
ENDBRANCH   3   8
BRANCH   1  16
ATOM     15  N   UNL     1       8.325   5.451  19.693  0.00  0.00    +0.000 NA
ATOM     16  C   UNL     1       7.444   5.132  19.008  0.00  0.00    +0.000 C 
ENDBRANCH   1  16
BRANCH   7  17
ATOM     17  O   UNL     1       7.890   4.605  16.285  0.00  0.00    +0.000 OA
ATOM     18  H   UNL     1       7.858   4.596  15.311  0.00  0.00    +0.000 HD
ENDBRANCH   7  17
TORSDOF 3
ENDMDL
MODEL 5
REMARK VINA RESULT:      -6.8      1.454      1.609
REMARK  Name = 
REMARK  3 active torsions:
REMARK  status: ('A' for Active; 'I' for Inactive)
REMARK    1  A    between atoms: C_2  and  C_3
REMARK    2  A    between atoms: C_5  and  C_6
REMARK    3  A    between atoms: C_16  and  O_17
REMARK                            x       y       z     vdW  Elec       q    Type
REMARK                         _______ _______ _______ _____ _____    ______ ____
ROOT
ATOM      1  C   UNL     1       5.607   4.376  16.075  0.00  0.00    +0.000 A 
ATOM      2  C   UNL     1       4.296   4.430  16.580  0.00  0.00    +0.000 A 
ATOM      3  C   UNL     1       4.064   4.827  17.901  0.00  0.00    +0.000 A 
ATOM      4  C   UNL     1       5.145   5.127  18.736  0.00  0.00    +0.000 A 
ATOM      5  C   UNL     1       6.442   5.115  18.226  0.00  0.00    +0.000 A 
ATOM      6 BR   UNL     1       7.872   5.601  19.371  0.00  0.00    +0.000 Br
ATOM      7  C   UNL     1       6.677   4.739  16.901  0.00  0.00    +0.000 A 
ENDROOT
BRANCH   3   8
ATOM      8  C   UNL     1       2.681   4.769  18.441  0.00  0.00    +0.000 C 
ATOM      9  O   UNL     1       1.831   5.476  17.905  0.00  0.00    +0.000 OA
ATOM     10  N   UNL     1       2.386   3.896  19.475  0.00  0.00    +0.000 N 
ATOM     11  C   UNL     1       0.995   3.669  19.829  0.00  0.00    +0.000 C 
ATOM     12  C   UNL     1       1.112   2.830  21.054  0.00  0.00    +0.000 C 
ATOM     13  C   UNL     1       2.386   2.706  21.438  0.00  0.00    +0.000 C 
ATOM     14  C   UNL     1       3.302   3.424  20.507  0.00  0.00    +0.000 C 
ENDBRANCH   3   8
BRANCH   1  16
ATOM     15  N   UNL     1       5.978   3.560  13.638  0.00  0.00    +0.000 NA
ATOM     16  C   UNL     1       5.830   3.917  14.732  0.00  0.00    +0.000 C 
ENDBRANCH   1  16
BRANCH   7  17
ATOM     17  O   UNL     1       7.950   4.702  16.400  0.00  0.00    +0.000 OA
ATOM     18  H   UNL     1       8.370   5.568  16.554  0.00  0.00    +0.000 HD
ENDBRANCH   7  17
TORSDOF 3
ENDMDL
MODEL 6
REMARK VINA RESULT:      -6.8      2.740      3.273
REMARK  Name = 
REMARK  3 active torsions:
REMARK  status: ('A' for Active; 'I' for Inactive)
REMARK    1  A    between atoms: C_2  and  C_3
REMARK    2  A    between atoms: C_5  and  C_6
REMARK    3  A    between atoms: C_16  and  O_17
REMARK                            x       y       z     vdW  Elec       q    Type
REMARK                         _______ _______ _______ _____ _____    ______ ____
ROOT
ATOM      1  C   UNL     1       6.371   6.466  17.153  0.00  0.00    +0.000 A 
ATOM      2  C   UNL     1       5.193   6.297  17.902  0.00  0.00    +0.000 A 
ATOM      3  C   UNL     1       4.223   5.374  17.493  0.00  0.00    +0.000 A 
ATOM      4  C   UNL     1       4.407   4.652  16.310  0.00  0.00    +0.000 A 
ATOM      5  C   UNL     1       5.591   4.787  15.589  0.00  0.00    +0.000 A 
ATOM      6 BR   UNL     1       5.832   3.734  14.032  0.00  0.00    +0.000 Br
ATOM      7  C   UNL     1       6.572   5.692  16.005  0.00  0.00    +0.000 A 
ENDROOT
BRANCH   3   8
ATOM      8  C   UNL     1       2.940   5.295  18.240  0.00  0.00    +0.000 C 
ATOM      9  O   UNL     1       2.105   6.171  18.028  0.00  0.00    +0.000 OA
ATOM     10  N   UNL     1       2.710   4.230  19.092  0.00  0.00    +0.000 N 
ATOM     11  C   UNL     1       1.372   4.032  19.626  0.00  0.00    +0.000 C 
ATOM     12  C   UNL     1       1.579   2.922  20.598  0.00  0.00    +0.000 C 
ATOM     13  C   UNL     1       2.874   2.615  20.717  0.00  0.00    +0.000 C 
ATOM     14  C   UNL     1       3.713   3.460  19.820  0.00  0.00    +0.000 C 
ENDBRANCH   3   8
BRANCH   1  16
ATOM     15  N   UNL     1       8.092   8.275  17.865  0.00  0.00    +0.000 NA
ATOM     16  C   UNL     1       7.332   7.454  17.560  0.00  0.00    +0.000 C 
ENDBRANCH   1  16
BRANCH   7  17
ATOM     17  O   UNL     1       7.728   5.848  15.289  0.00  0.00    +0.000 OA
ATOM     18  H   UNL     1       7.732   6.739  14.893  0.00  0.00    +0.000 HD
ENDBRANCH   7  17
TORSDOF 3
ENDMDL
MODEL 7
REMARK VINA RESULT:      -6.8      3.857      4.760
REMARK  Name = 
REMARK  3 active torsions:
REMARK  status: ('A' for Active; 'I' for Inactive)
REMARK    1  A    between atoms: C_2  and  C_3
REMARK    2  A    between atoms: C_5  and  C_6
REMARK    3  A    between atoms: C_16  and  O_17
REMARK                            x       y       z     vdW  Elec       q    Type
REMARK                         _______ _______ _______ _____ _____    ______ ____
ROOT
ATOM      1  C   UNL     1       4.914   5.794  17.089  0.00  0.00    +0.000 A 
ATOM      2  C   UNL     1       4.275   7.002  17.419  0.00  0.00    +0.000 A 
ATOM      3  C   UNL     1       2.976   6.995  17.942  0.00  0.00    +0.000 A 
ATOM      4  C   UNL     1       2.296   5.783  18.093  0.00  0.00    +0.000 A 
ATOM      5  C   UNL     1       2.942   4.582  17.805  0.00  0.00    +0.000 A 
ATOM      6 BR   UNL     1       2.009   2.958  18.095  0.00  0.00    +0.000 Br
ATOM      7  C   UNL     1       4.245   4.583  17.303  0.00  0.00    +0.000 A 
ENDROOT
BRANCH   3   8
ATOM      8  C   UNL     1       2.285   8.289  18.178  0.00  0.00    +0.000 C 
ATOM      9  O   UNL     1       2.351   9.138  17.292  0.00  0.00    +0.000 OA
ATOM     10  N   UNL     1       1.558   8.473  19.340  0.00  0.00    +0.000 N 
ATOM     11  C   UNL     1       0.692   9.636  19.452  0.00  0.00    +0.000 C 
ATOM     12  C   UNL     1       0.237   9.559  20.868  0.00  0.00    +0.000 C 
ATOM     13  C   UNL     1       0.859   8.575  21.525  0.00  0.00    +0.000 C 
ATOM     14  C   UNL     1       1.799   7.840  20.632  0.00  0.00    +0.000 C 
ENDBRANCH   3   8
BRANCH   1  16
ATOM     15  N   UNL     1       7.298   5.825  16.060  0.00  0.00    +0.000 NA
ATOM     16  C   UNL     1       6.226   5.824  16.506  0.00  0.00    +0.000 C 
ENDBRANCH   1  16
BRANCH   7  17
ATOM     17  O   UNL     1       4.878   3.409  16.996  0.00  0.00    +0.000 OA
ATOM     18  H   UNL     1       5.664   3.611  16.456  0.00  0.00    +0.000 HD
ENDBRANCH   7  17
TORSDOF 3
ENDMDL
MODEL 8
REMARK VINA RESULT:      -6.8      2.598      3.127
REMARK  Name = 
REMARK  3 active torsions:
REMARK  status: ('A' for Active; 'I' for Inactive)
REMARK    1  A    between atoms: C_2  and  C_3
REMARK    2  A    between atoms: C_5  and  C_6
REMARK    3  A    between atoms: C_16  and  O_17
REMARK                            x       y       z     vdW  Elec       q    Type
REMARK                         _______ _______ _______ _____ _____    ______ ____
ROOT
ATOM      1  C   UNL     1       4.053   6.556  17.429  0.00  0.00    +0.000 A 
ATOM      2  C   UNL     1       3.905   5.649  18.494  0.00  0.00    +0.000 A 
ATOM      3  C   UNL     1       4.547   4.406  18.458  0.00  0.00    +0.000 A 
ATOM      4  C   UNL     1       5.302   4.047  17.337  0.00  0.00    +0.000 A 
ATOM      5  C   UNL     1       5.484   4.959  16.300  0.00  0.00    +0.000 A 
ATOM      6 BR   UNL     1       6.576   4.460  14.833  0.00  0.00    +0.000 Br
ATOM      7  C   UNL     1       4.862   6.209  16.340  0.00  0.00    +0.000 A 
ENDROOT
BRANCH   3   8
ATOM      8  C   UNL     1       4.284   3.426  19.543  0.00  0.00    +0.000 C 
ATOM      9  O   UNL     1       5.223   2.728  19.918  0.00  0.00    +0.000 OA
ATOM     10  N   UNL     1       3.029   3.368  20.123  0.00  0.00    +0.000 N 
ATOM     11  C   UNL     1       2.849   2.587  21.336  0.00  0.00    +0.000 C 
ATOM     12  C   UNL     1       1.373   2.642  21.534  0.00  0.00    +0.000 C 
ATOM     13  C   UNL     1       0.768   3.248  20.508  0.00  0.00    +0.000 C 
ATOM     14  C   UNL     1       1.758   3.705  19.491  0.00  0.00    +0.000 C 
ENDBRANCH   3   8
BRANCH   1  16
ATOM     15  N   UNL     1       2.746   8.798  17.500  0.00  0.00    +0.000 NA
ATOM     16  C   UNL     1       3.346   7.805  17.460  0.00  0.00    +0.000 C 
ENDBRANCH   1  16
BRANCH   7  17
ATOM     17  O   UNL     1       5.018   7.102  15.314  0.00  0.00    +0.000 OA
ATOM     18  H   UNL     1       4.145   7.478  15.094  0.00  0.00    +0.000 HD
ENDBRANCH   7  17
TORSDOF 3
ENDMDL
MODEL 9
REMARK VINA RESULT:      -6.7      1.758      2.086
REMARK  Name = 
REMARK  3 active torsions:
REMARK  status: ('A' for Active; 'I' for Inactive)
REMARK    1  A    between atoms: C_2  and  C_3
REMARK    2  A    between atoms: C_5  and  C_6
REMARK    3  A    between atoms: C_16  and  O_17
REMARK                            x       y       z     vdW  Elec       q    Type
REMARK                         _______ _______ _______ _____ _____    ______ ____
ROOT
ATOM      1  C   UNL     1       5.686   4.810  15.278  0.00  0.00    +0.000 A 
ATOM      2  C   UNL     1       4.458   4.678  15.950  0.00  0.00    +0.000 A 
ATOM      3  C   UNL     1       4.223   5.381  17.137  0.00  0.00    +0.000 A 
ATOM      4  C   UNL     1       5.232   6.182  17.680  0.00  0.00    +0.000 A 
ATOM      5  C   UNL     1       6.434   6.347  16.996  0.00  0.00    +0.000 A 
ATOM      6 BR   UNL     1       7.746   7.501  17.730  0.00  0.00    +0.000 Br
ATOM      7  C   UNL     1       6.665   5.664  15.800  0.00  0.00    +0.000 A 
ENDROOT
BRANCH   3   8
ATOM      8  C   UNL     1       2.960   5.138  17.882  0.00  0.00    +0.000 C 
ATOM      9  O   UNL     1       2.246   6.109  18.121  0.00  0.00    +0.000 OA
ATOM     10  N   UNL     1       2.610   3.845  18.230  0.00  0.00    +0.000 N 
ATOM     11  C   UNL     1       1.271   3.592  18.737  0.00  0.00    +0.000 C 
ATOM     12  C   UNL     1       1.350   2.160  19.140  0.00  0.00    +0.000 C 
ATOM     13  C   UNL     1       2.595   1.689  19.017  0.00  0.00    +0.000 C 
ATOM     14  C   UNL     1       3.517   2.734  18.490  0.00  0.00    +0.000 C 
ENDBRANCH   3   8
BRANCH   1  16
ATOM     15  N   UNL     1       6.147   3.447  13.117  0.00  0.00    +0.000 NA
ATOM     16  C   UNL     1       5.929   4.042  14.089  0.00  0.00    +0.000 C 
ENDBRANCH   1  16
BRANCH   7  17
ATOM     17  O   UNL     1       7.853   5.802  15.133  0.00  0.00    +0.000 OA
ATOM     18  H   UNL     1       8.170   4.917  14.874  0.00  0.00    +0.000 HD
ENDBRANCH   7  17
TORSDOF 3
ENDMDL
