MODEL 1
REMARK VINA RESULT:      -6.8      0.000      0.000
REMARK  Name = 
REMARK  9 active torsions:
REMARK  status: ('A' for Active; 'I' for Inactive)
REMARK    1  A    between atoms: C_1  and  C_2
REMARK    2  A    between atoms: C_2  and  C_3
REMARK    3  A    between atoms: C_3  and  C_4
REMARK    4  A    between atoms: C_4  and  C_5
REMARK    5  A    between atoms: C_5  and  N_6
REMARK    6  A    between atoms: C_11  and  O_12
REMARK    7  A    between atoms: O_12  and  C_13
REMARK    8  A    between atoms: C_15  and  O_16
REMARK    9  A    between atoms: O_16  and  C_17
REMARK                            x       y       z     vdW  Elec       q    Type
REMARK                         _______ _______ _______ _____ _____    ______ ____
ROOT
ATOM      1  N   UNL     1       3.331   2.943  18.786  0.00  0.00    +0.000 N 
ATOM      2  C   UNL     1       3.141   3.313  17.493  0.00  0.00    +0.000 C 
ATOM      3  O   UNL     1       2.165   3.175  16.782  0.00  0.00    +0.000 OA
ATOM      4  C   UNL     1       4.385   3.940  17.059  0.00  0.00    +0.000 A 
ATOM      5  C   UNL     1       4.640   4.499  15.817  0.00  0.00    +0.000 A 
ATOM      6  C   UNL     1       5.892   5.063  15.623  0.00  0.00    +0.000 A 
ATOM      7  C   UNL     1       6.831   5.039  16.673  0.00  0.00    +0.000 A 
ATOM      8  C   UNL     1       6.560   4.461  17.935  0.00  0.00    +0.000 A 
ATOM      9  C   UNL     1       5.305   3.903  18.107  0.00  0.00    +0.000 A 
ATOM     10  C   UNL     1       4.605   3.213  19.210  0.00  0.00    +0.000 C 
ATOM     11  O   UNL     1       5.068   2.920  20.297  0.00  0.00    +0.000 OA
ENDROOT
BRANCH   6  12
ATOM     12  O   UNL     1       6.329   5.665  14.476  0.00  0.00    +0.000 OA
ATOM     13  C   UNL     1       7.271   4.943  13.690  0.00  0.00    +0.000 C 
ENDBRANCH   6  12
BRANCH   8  14
ATOM     14  O   UNL     1       7.622   4.571  18.778  0.00  0.00    +0.000 OA
ATOM     15  C   UNL     1       7.840   5.778  19.485  0.00  0.00    +0.000 C 
ENDBRANCH   8  14
BRANCH   1  16
ATOM     16  C   UNL     1       2.335   2.273  19.600  0.00  0.00    +0.000 C 
BRANCH  16  17
ATOM     17  C   UNL     1       1.804   3.149  20.739  0.00  0.00    +0.000 C 
BRANCH  17  18
ATOM     18  C   UNL     1       1.070   4.398  20.243  0.00  0.00    +0.000 C 
BRANCH  18  20
ATOM     19  C   UNL     1       2.499   6.346  19.518  0.00  0.00    +0.000 C 
ATOM     20  C   UNL     1       1.800   5.668  20.684  0.00  0.00    +0.000 C 
ENDBRANCH  18  20
ENDBRANCH  17  18
ENDBRANCH  16  17
ENDBRANCH   1  16
TORSDOF 6
ENDMDL
MODEL 2
REMARK VINA RESULT:      -6.6      2.484      5.846
REMARK  Name = 
REMARK  9 active torsions:
REMARK  status: ('A' for Active; 'I' for Inactive)
REMARK    1  A    between atoms: C_1  and  C_2
REMARK    2  A    between atoms: C_2  and  C_3
REMARK    3  A    between atoms: C_3  and  C_4
REMARK    4  A    between atoms: C_4  and  C_5
REMARK    5  A    between atoms: C_5  and  N_6
REMARK    6  A    between atoms: C_11  and  O_12
REMARK    7  A    between atoms: O_12  and  C_13
REMARK    8  A    between atoms: C_15  and  O_16
REMARK    9  A    between atoms: O_16  and  C_17
REMARK                            x       y       z     vdW  Elec       q    Type
REMARK                         _______ _______ _______ _____ _____    ______ ____
ROOT
ATOM      1  N   UNL     1       5.465   5.016  17.031  0.00  0.00    +0.000 N 
ATOM      2  C   UNL     1       4.950   6.223  16.681  0.00  0.00    +0.000 C 
ATOM      3  O   UNL     1       5.212   6.931  15.728  0.00  0.00    +0.000 OA
ATOM      4  C   UNL     1       3.970   6.565  17.707  0.00  0.00    +0.000 A 
ATOM      5  C   UNL     1       3.172   7.697  17.744  0.00  0.00    +0.000 A 
ATOM      6  C   UNL     1       2.289   7.812  18.807  0.00  0.00    +0.000 A 
ATOM      7  C   UNL     1       2.246   6.798  19.783  0.00  0.00    +0.000 A 
ATOM      8  C   UNL     1       3.069   5.650  19.737  0.00  0.00    +0.000 A 
ATOM      9  C   UNL     1       3.944   5.554  18.668  0.00  0.00    +0.000 A 
ATOM     10  C   UNL     1       4.956   4.573  18.223  0.00  0.00    +0.000 C 
ATOM     11  O   UNL     1       5.296   3.561  18.807  0.00  0.00    +0.000 OA
ENDROOT
BRANCH   6  12
ATOM     12  O   UNL     1       1.419   8.846  19.014  0.00  0.00    +0.000 OA
ATOM     13  C   UNL     1       1.403   9.879  18.034  0.00  0.00    +0.000 C 
ENDBRANCH   6  12
BRANCH   8  14
ATOM     14  O   UNL     1       2.835   4.818  20.787  0.00  0.00    +0.000 OA
ATOM     15  C   UNL     1       1.733   3.929  20.752  0.00  0.00    +0.000 C 
ENDBRANCH   8  14
BRANCH   1  16
ATOM     16  C   UNL     1       6.485   4.313  16.279  0.00  0.00    +0.000 C 
BRANCH  16  17
ATOM     17  C   UNL     1       5.955   3.700  14.978  0.00  0.00    +0.000 C 
BRANCH  17  18
ATOM     18  C   UNL     1       6.548   4.347  13.724  0.00  0.00    +0.000 C 
BRANCH  18  20
ATOM     19  C   UNL     1       4.870   3.405  12.093  0.00  0.00    +0.000 C 
ATOM     20  C   UNL     1       6.333   3.457  12.499  0.00  0.00    +0.000 C 
ENDBRANCH  18  20
ENDBRANCH  17  18
ENDBRANCH  16  17
ENDBRANCH   1  16
TORSDOF 6
ENDMDL
MODEL 3
REMARK VINA RESULT:      -6.6      1.581      2.098
REMARK  Name = 
REMARK  9 active torsions:
REMARK  status: ('A' for Active; 'I' for Inactive)
REMARK    1  A    between atoms: C_1  and  C_2
REMARK    2  A    between atoms: C_2  and  C_3
REMARK    3  A    between atoms: C_3  and  C_4
REMARK    4  A    between atoms: C_4  and  C_5
REMARK    5  A    between atoms: C_5  and  N_6
REMARK    6  A    between atoms: C_11  and  O_12
REMARK    7  A    between atoms: O_12  and  C_13
REMARK    8  A    between atoms: C_15  and  O_16
REMARK    9  A    between atoms: O_16  and  C_17
REMARK                            x       y       z     vdW  Elec       q    Type
REMARK                         _______ _______ _______ _____ _____    ______ ____
ROOT
ATOM      1  N   UNL     1       4.405   4.059  18.845  0.00  0.00    +0.000 N 
ATOM      2  C   UNL     1       4.202   3.442  17.651  0.00  0.00    +0.000 C 
ATOM      3  O   UNL     1       3.383   2.599  17.343  0.00  0.00    +0.000 OA
ATOM      4  C   UNL     1       5.200   3.985  16.735  0.00  0.00    +0.000 A 
ATOM      5  C   UNL     1       5.349   3.669  15.394  0.00  0.00    +0.000 A 
ATOM      6  C   UNL     1       6.357   4.322  14.700  0.00  0.00    +0.000 A 
ATOM      7  C   UNL     1       7.168   5.255  15.375  0.00  0.00    +0.000 A 
ATOM      8  C   UNL     1       7.009   5.565  16.745  0.00  0.00    +0.000 A 
ATOM      9  C   UNL     1       5.998   4.902  17.419  0.00  0.00    +0.000 A 
ATOM     10  C   UNL     1       5.483   4.903  18.804  0.00  0.00    +0.000 C 
ATOM     11  O   UNL     1       5.933   5.524  19.749  0.00  0.00    +0.000 OA
ENDROOT
BRANCH   6  12
ATOM     12  O   UNL     1       6.656   4.152  13.377  0.00  0.00    +0.000 OA
ATOM     13  C   UNL     1       5.710   3.433  12.592  0.00  0.00    +0.000 C 
ENDBRANCH   6  12
BRANCH   8  14
ATOM     14  O   UNL     1       7.908   6.498  17.159  0.00  0.00    +0.000 OA
ATOM     15  C   UNL     1       7.471   7.807  17.478  0.00  0.00    +0.000 C 
ENDBRANCH   8  14
BRANCH   1  16
ATOM     16  C   UNL     1       3.627   3.801  20.041  0.00  0.00    +0.000 C 
BRANCH  16  17
ATOM     17  C   UNL     1       2.604   4.903  20.339  0.00  0.00    +0.000 C 
BRANCH  17  18
ATOM     18  C   UNL     1       1.172   4.375  20.456  0.00  0.00    +0.000 C 
BRANCH  18  20
ATOM     19  C   UNL     1       0.527   2.440  18.971  0.00  0.00    +0.000 C 
ATOM     20  C   UNL     1       1.139   2.854  20.299  0.00  0.00    +0.000 C 
ENDBRANCH  18  20
ENDBRANCH  17  18
ENDBRANCH  16  17
ENDBRANCH   1  16
TORSDOF 6
ENDMDL
MODEL 4
REMARK VINA RESULT:      -6.5      2.339      5.730
REMARK  Name = 
REMARK  9 active torsions:
REMARK  status: ('A' for Active; 'I' for Inactive)
REMARK    1  A    between atoms: C_1  and  C_2
REMARK    2  A    between atoms: C_2  and  C_3
REMARK    3  A    between atoms: C_3  and  C_4
REMARK    4  A    between atoms: C_4  and  C_5
REMARK    5  A    between atoms: C_5  and  N_6
REMARK    6  A    between atoms: C_11  and  O_12
REMARK    7  A    between atoms: O_12  and  C_13
REMARK    8  A    between atoms: C_15  and  O_16
REMARK    9  A    between atoms: O_16  and  C_17
REMARK                            x       y       z     vdW  Elec       q    Type
REMARK                         _______ _______ _______ _____ _____    ______ ____
ROOT
ATOM      1  N   UNL     1       4.601   4.870  17.541  0.00  0.00    +0.000 N 
ATOM      2  C   UNL     1       4.137   6.145  17.460  0.00  0.00    +0.000 C 
ATOM      3  O   UNL     1       4.369   7.004  16.632  0.00  0.00    +0.000 OA
ATOM      4  C   UNL     1       3.263   6.336  18.612  0.00  0.00    +0.000 A 
ATOM      5  C   UNL     1       2.542   7.478  18.923  0.00  0.00    +0.000 A 
ATOM      6  C   UNL     1       1.753   7.436  20.062  0.00  0.00    +0.000 A 
ATOM      7  C   UNL     1       1.722   6.261  20.839  0.00  0.00    +0.000 A 
ATOM      8  C   UNL     1       2.465   5.104  20.514  0.00  0.00    +0.000 A 
ATOM      9  C   UNL     1       3.247   5.167  19.373  0.00  0.00    +0.000 A 
ATOM     10  C   UNL     1       4.159   4.239  18.672  0.00  0.00    +0.000 C 
ATOM     11  O   UNL     1       4.478   3.120  19.031  0.00  0.00    +0.000 OA
ENDROOT
BRANCH   6  12
ATOM     12  O   UNL     1       0.968   8.454  20.529  0.00  0.00    +0.000 OA
ATOM     13  C   UNL     1       1.288   8.974  21.815  0.00  0.00    +0.000 C 
ENDBRANCH   6  12
BRANCH   8  14
ATOM     14  O   UNL     1       2.261   4.103  21.413  0.00  0.00    +0.000 OA
ATOM     15  C   UNL     1       1.386   3.036  21.094  0.00  0.00    +0.000 C 
ENDBRANCH   8  14
BRANCH   1  16
ATOM     16  C   UNL     1       5.515   4.271  16.587  0.00  0.00    +0.000 C 
BRANCH  16  17
ATOM     17  C   UNL     1       6.913   4.896  16.623  0.00  0.00    +0.000 C 
BRANCH  17  18
ATOM     18  C   UNL     1       7.608   4.733  17.978  0.00  0.00    +0.000 C 
BRANCH  18  20
ATOM     19  C   UNL     1       7.669   7.240  17.697  0.00  0.00    +0.000 C 
ATOM     20  C   UNL     1       7.751   6.084  18.681  0.00  0.00    +0.000 C 
ENDBRANCH  18  20
ENDBRANCH  17  18
ENDBRANCH  16  17
ENDBRANCH   1  16
TORSDOF 6
ENDMDL
MODEL 5
REMARK VINA RESULT:      -6.5      2.576      6.004
REMARK  Name = 
REMARK  9 active torsions:
REMARK  status: ('A' for Active; 'I' for Inactive)
REMARK    1  A    between atoms: C_1  and  C_2
REMARK    2  A    between atoms: C_2  and  C_3
REMARK    3  A    between atoms: C_3  and  C_4
REMARK    4  A    between atoms: C_4  and  C_5
REMARK    5  A    between atoms: C_5  and  N_6
REMARK    6  A    between atoms: C_11  and  O_12
REMARK    7  A    between atoms: O_12  and  C_13
REMARK    8  A    between atoms: C_15  and  O_16
REMARK    9  A    between atoms: O_16  and  C_17
REMARK                            x       y       z     vdW  Elec       q    Type
REMARK                         _______ _______ _______ _____ _____    ______ ____
ROOT
ATOM      1  N   UNL     1       5.563   4.786  16.432  0.00  0.00    +0.000 N 
ATOM      2  C   UNL     1       5.457   6.127  16.623  0.00  0.00    +0.000 C 
ATOM      3  O   UNL     1       6.205   7.021  16.278  0.00  0.00    +0.000 OA
ATOM      4  C   UNL     1       4.221   6.338  17.369  0.00  0.00    +0.000 A 
ATOM      5  C   UNL     1       3.690   7.557  17.761  0.00  0.00    +0.000 A 
ATOM      6  C   UNL     1       2.486   7.529  18.448  0.00  0.00    +0.000 A 
ATOM      7  C   UNL     1       1.871   6.290  18.715  0.00  0.00    +0.000 A 
ATOM      8  C   UNL     1       2.425   5.053  18.313  0.00  0.00    +0.000 A 
ATOM      9  C   UNL     1       3.628   5.103  17.629  0.00  0.00    +0.000 A 
ATOM     10  C   UNL     1       4.544   4.104  17.040  0.00  0.00    +0.000 C 
ATOM     11  O   UNL     1       4.432   2.893  17.092  0.00  0.00    +0.000 OA
ENDROOT
BRANCH   6  12
ATOM     12  O   UNL     1       1.804   8.620  18.910  0.00  0.00    +0.000 OA
ATOM     13  C   UNL     1       1.450   9.610  17.950  0.00  0.00    +0.000 C 
ENDBRANCH   6  12
BRANCH   8  14
ATOM     14  O   UNL     1       1.641   4.005  18.682  0.00  0.00    +0.000 OA
ATOM     15  C   UNL     1       1.141   3.928  20.005  0.00  0.00    +0.000 C 
ENDBRANCH   8  14
BRANCH   1  16
ATOM     16  C   UNL     1       6.661   4.143  15.735  0.00  0.00    +0.000 C 
BRANCH  16  17
ATOM     17  C   UNL     1       6.643   4.401  14.224  0.00  0.00    +0.000 C 
BRANCH  17  18
ATOM     18  C   UNL     1       5.343   3.949  13.554  0.00  0.00    +0.000 C 
BRANCH  18  20
ATOM     19  C   UNL     1       4.366   3.162  11.366  0.00  0.00    +0.000 C 
ATOM     20  C   UNL     1       5.628   3.295  12.201  0.00  0.00    +0.000 C 
ENDBRANCH  18  20
ENDBRANCH  17  18
ENDBRANCH  16  17
ENDBRANCH   1  16
TORSDOF 6
ENDMDL
MODEL 6
REMARK VINA RESULT:      -6.4      2.575      6.321
REMARK  Name = 
REMARK  9 active torsions:
REMARK  status: ('A' for Active; 'I' for Inactive)
REMARK    1  A    between atoms: C_1  and  C_2
REMARK    2  A    between atoms: C_2  and  C_3
REMARK    3  A    between atoms: C_3  and  C_4
REMARK    4  A    between atoms: C_4  and  C_5
REMARK    5  A    between atoms: C_5  and  N_6
REMARK    6  A    between atoms: C_11  and  O_12
REMARK    7  A    between atoms: O_12  and  C_13
REMARK    8  A    between atoms: C_15  and  O_16
REMARK    9  A    between atoms: O_16  and  C_17
REMARK                            x       y       z     vdW  Elec       q    Type
REMARK                         _______ _______ _______ _____ _____    ______ ____
ROOT
ATOM      1  N   UNL     1       5.136   4.676  16.015  0.00  0.00    +0.000 N 
ATOM      2  C   UNL     1       4.956   6.011  16.197  0.00  0.00    +0.000 C 
ATOM      3  O   UNL     1       5.466   6.948  15.615  0.00  0.00    +0.000 OA
ATOM      4  C   UNL     1       3.993   6.150  17.284  0.00  0.00    +0.000 A 
ATOM      5  C   UNL     1       3.485   7.335  17.792  0.00  0.00    +0.000 A 
ATOM      6  C   UNL     1       2.559   7.236  18.819  0.00  0.00    +0.000 A 
ATOM      7  C   UNL     1       2.187   5.963  19.294  0.00  0.00    +0.000 A 
ATOM      8  C   UNL     1       2.716   4.761  18.770  0.00  0.00    +0.000 A 
ATOM      9  C   UNL     1       3.639   4.882  17.746  0.00  0.00    +0.000 A 
ATOM     10  C   UNL     1       4.428   3.939  16.926  0.00  0.00    +0.000 C 
ATOM     11  O   UNL     1       4.463   2.728  17.038  0.00  0.00    +0.000 OA
ENDROOT
BRANCH   6  12
ATOM     12  O   UNL     1       1.943   8.284  19.444  0.00  0.00    +0.000 OA
ATOM     13  C   UNL     1       1.467   8.055  20.765  0.00  0.00    +0.000 C 
ENDBRANCH   6  12
BRANCH   8  14
ATOM     14  O   UNL     1       2.195   3.668  19.390  0.00  0.00    +0.000 OA
ATOM     15  C   UNL     1       1.219   2.880  18.730  0.00  0.00    +0.000 C 
ENDBRANCH   8  14
BRANCH   1  16
ATOM     16  C   UNL     1       6.027   4.098  15.027  0.00  0.00    +0.000 C 
BRANCH  16  17
ATOM     17  C   UNL     1       5.378   3.953  13.647  0.00  0.00    +0.000 C 
BRANCH  17  18
ATOM     18  C   UNL     1       6.353   3.459  12.575  0.00  0.00    +0.000 C 
BRANCH  18  20
ATOM     19  C   UNL     1       6.648   1.459  11.066  0.00  0.00    +0.000 C 
ATOM     20  C   UNL     1       5.666   2.473  11.628  0.00  0.00    +0.000 C 
ENDBRANCH  18  20
ENDBRANCH  17  18
ENDBRANCH  16  17
ENDBRANCH   1  16
TORSDOF 6
ENDMDL
MODEL 7
REMARK VINA RESULT:      -6.3      1.527      1.757
REMARK  Name = 
REMARK  9 active torsions:
REMARK  status: ('A' for Active; 'I' for Inactive)
REMARK    1  A    between atoms: C_1  and  C_2
REMARK    2  A    between atoms: C_2  and  C_3
REMARK    3  A    between atoms: C_3  and  C_4
REMARK    4  A    between atoms: C_4  and  C_5
REMARK    5  A    between atoms: C_5  and  N_6
REMARK    6  A    between atoms: C_11  and  O_12
REMARK    7  A    between atoms: O_12  and  C_13
REMARK    8  A    between atoms: C_15  and  O_16
REMARK    9  A    between atoms: O_16  and  C_17
REMARK                            x       y       z     vdW  Elec       q    Type
REMARK                         _______ _______ _______ _____ _____    ______ ____
ROOT
ATOM      1  N   UNL     1       4.265   3.962  18.819  0.00  0.00    +0.000 N 
ATOM      2  C   UNL     1       4.062   3.451  17.577  0.00  0.00    +0.000 C 
ATOM      3  O   UNL     1       3.212   2.675  17.187  0.00  0.00    +0.000 OA
ATOM      4  C   UNL     1       5.107   4.012  16.727  0.00  0.00    +0.000 A 
ATOM      5  C   UNL     1       5.274   3.793  15.368  0.00  0.00    +0.000 A 
ATOM      6  C   UNL     1       6.328   4.447  14.749  0.00  0.00    +0.000 A 
ATOM      7  C   UNL     1       7.167   5.283  15.512  0.00  0.00    +0.000 A 
ATOM      8  C   UNL     1       6.989   5.495  16.898  0.00  0.00    +0.000 A 
ATOM      9  C   UNL     1       5.931   4.832  17.497  0.00  0.00    +0.000 A 
ATOM     10  C   UNL     1       5.382   4.752  18.867  0.00  0.00    +0.000 C 
ATOM     11  O   UNL     1       5.838   5.276  19.867  0.00  0.00    +0.000 OA
ENDROOT
BRANCH   6  12
ATOM     12  O   UNL     1       6.651   4.365  13.423  0.00  0.00    +0.000 OA
ATOM     13  C   UNL     1       5.946   3.400  12.649  0.00  0.00    +0.000 C 
ENDBRANCH   6  12
BRANCH   8  14
ATOM     14  O   UNL     1       7.921   6.347  17.403  0.00  0.00    +0.000 OA
ATOM     15  C   UNL     1       7.613   7.721  17.555  0.00  0.00    +0.000 C 
ENDBRANCH   8  14
BRANCH   1  16
ATOM     16  C   UNL     1       3.446   3.652  19.975  0.00  0.00    +0.000 C 
BRANCH  16  17
ATOM     17  C   UNL     1       2.540   4.814  20.396  0.00  0.00    +0.000 C 
BRANCH  17  18
ATOM     18  C   UNL     1       1.985   5.602  19.207  0.00  0.00    +0.000 C 
BRANCH  18  20
ATOM     19  C   UNL     1       2.995   7.522  17.920  0.00  0.00    +0.000 C 
ATOM     20  C   UNL     1       2.446   7.060  19.259  0.00  0.00    +0.000 C 
ENDBRANCH  18  20
ENDBRANCH  17  18
ENDBRANCH  16  17
ENDBRANCH   1  16
TORSDOF 6
ENDMDL
MODEL 8
REMARK VINA RESULT:      -6.3      1.961      3.210
REMARK  Name = 
REMARK  9 active torsions:
REMARK  status: ('A' for Active; 'I' for Inactive)
REMARK    1  A    between atoms: C_1  and  C_2
REMARK    2  A    between atoms: C_2  and  C_3
REMARK    3  A    between atoms: C_3  and  C_4
REMARK    4  A    between atoms: C_4  and  C_5
REMARK    5  A    between atoms: C_5  and  N_6
REMARK    6  A    between atoms: C_11  and  O_12
REMARK    7  A    between atoms: O_12  and  C_13
REMARK    8  A    between atoms: C_15  and  O_16
REMARK    9  A    between atoms: O_16  and  C_17
REMARK                            x       y       z     vdW  Elec       q    Type
REMARK                         _______ _______ _______ _____ _____    ______ ____
ROOT
ATOM      1  N   UNL     1       2.255   4.411  17.979  0.00  0.00    +0.000 N 
ATOM      2  C   UNL     1       2.754   5.628  18.323  0.00  0.00    +0.000 C 
ATOM      3  O   UNL     1       2.282   6.483  19.047  0.00  0.00    +0.000 OA
ATOM      4  C   UNL     1       4.031   5.758  17.630  0.00  0.00    +0.000 A 
ATOM      5  C   UNL     1       4.910   6.827  17.709  0.00  0.00    +0.000 A 
ATOM      6  C   UNL     1       6.084   6.734  16.978  0.00  0.00    +0.000 A 
ATOM      7  C   UNL     1       6.325   5.584  16.200  0.00  0.00    +0.000 A 
ATOM      8  C   UNL     1       5.418   4.502  16.123  0.00  0.00    +0.000 A 
ATOM      9  C   UNL     1       4.252   4.615  16.860  0.00  0.00    +0.000 A 
ATOM     10  C   UNL     1       3.060   3.769  17.077  0.00  0.00    +0.000 C 
ATOM     11  O   UNL     1       2.818   2.701  16.545  0.00  0.00    +0.000 OA
ENDROOT
BRANCH   6  12
ATOM     12  O   UNL     1       7.074   7.676  16.931  0.00  0.00    +0.000 OA
ATOM     13  C   UNL     1       7.973   7.718  18.035  0.00  0.00    +0.000 C 
ENDBRANCH   6  12
BRANCH   8  14
ATOM     14  O   UNL     1       5.881   3.512  15.314  0.00  0.00    +0.000 OA
ATOM     15  C   UNL     1       6.177   3.789  13.957  0.00  0.00    +0.000 C 
ENDBRANCH   8  14
BRANCH   1  16
ATOM     16  C   UNL     1       0.988   3.885  18.448  0.00  0.00    +0.000 C 
BRANCH  16  17
ATOM     17  C   UNL     1       1.150   2.781  19.499  0.00  0.00    +0.000 C 
BRANCH  17  18
ATOM     18  C   UNL     1       1.249   3.323  20.927  0.00  0.00    +0.000 C 
BRANCH  18  20
ATOM     19  C   UNL     1       3.609   2.496  20.597  0.00  0.00    +0.000 C 
ATOM     20  C   UNL     1       2.525   2.827  21.609  0.00  0.00    +0.000 C 
ENDBRANCH  18  20
ENDBRANCH  17  18
ENDBRANCH  16  17
ENDBRANCH   1  16
TORSDOF 6
ENDMDL
MODEL 9
REMARK VINA RESULT:      -6.3      2.257      5.779
REMARK  Name = 
REMARK  9 active torsions:
REMARK  status: ('A' for Active; 'I' for Inactive)
REMARK    1  A    between atoms: C_1  and  C_2
REMARK    2  A    between atoms: C_2  and  C_3
REMARK    3  A    between atoms: C_3  and  C_4
REMARK    4  A    between atoms: C_4  and  C_5
REMARK    5  A    between atoms: C_5  and  N_6
REMARK    6  A    between atoms: C_11  and  O_12
REMARK    7  A    between atoms: O_12  and  C_13
REMARK    8  A    between atoms: C_15  and  O_16
REMARK    9  A    between atoms: O_16  and  C_17
REMARK                            x       y       z     vdW  Elec       q    Type
REMARK                         _______ _______ _______ _____ _____    ______ ____
ROOT
ATOM      1  N   UNL     1       4.620   5.091  16.793  0.00  0.00    +0.000 N 
ATOM      2  C   UNL     1       4.151   3.970  17.401  0.00  0.00    +0.000 C 
ATOM      3  O   UNL     1       4.371   2.801  17.148  0.00  0.00    +0.000 OA
ATOM      4  C   UNL     1       3.273   4.422  18.475  0.00  0.00    +0.000 A 
ATOM      5  C   UNL     1       2.595   3.622  19.381  0.00  0.00    +0.000 A 
ATOM      6  C   UNL     1       1.826   4.265  20.339  0.00  0.00    +0.000 A 
ATOM      7  C   UNL     1       1.765   5.673  20.345  0.00  0.00    +0.000 A 
ATOM      8  C   UNL     1       2.457   6.478  19.412  0.00  0.00    +0.000 A 
ATOM      9  C   UNL     1       3.219   5.816  18.464  0.00  0.00    +0.000 A 
ATOM     10  C   UNL     1       4.077   6.226  17.333  0.00  0.00    +0.000 C 
ATOM     11  O   UNL     1       4.264   7.361  16.934  0.00  0.00    +0.000 OA
ENDROOT
BRANCH   6  12
ATOM     12  O   UNL     1       1.094   3.654  21.318  0.00  0.00    +0.000 OA
ATOM     13  C   UNL     1       1.545   2.376  21.755  0.00  0.00    +0.000 C 
ENDBRANCH   6  12
BRANCH   8  14
ATOM     14  O   UNL     1       2.242   7.803  19.631  0.00  0.00    +0.000 OA
ATOM     15  C   UNL     1       1.484   8.220  20.753  0.00  0.00    +0.000 C 
ENDBRANCH   8  14
BRANCH   1  16
ATOM     16  C   UNL     1       5.526   5.090  15.661  0.00  0.00    +0.000 C 
BRANCH  16  17
ATOM     17  C   UNL     1       6.973   5.413  16.052  0.00  0.00    +0.000 C 
BRANCH  17  18
ATOM     18  C   UNL     1       7.453   4.627  17.275  0.00  0.00    +0.000 C 
BRANCH  18  20
ATOM     19  C   UNL     1       7.633   7.012  18.080  0.00  0.00    +0.000 C 
ATOM     20  C   UNL     1       7.604   5.548  18.487  0.00  0.00    +0.000 C 
ENDBRANCH  18  20
ENDBRANCH  17  18
ENDBRANCH  16  17
ENDBRANCH   1  16
TORSDOF 6
ENDMDL
