MODEL 1
REMARK VINA RESULT:      -6.9      0.000      0.000
REMARK  Name = 
REMARK  12 active torsions:
REMARK  status: ('A' for Active; 'I' for Inactive)
REMARK    1  A    between atoms: C_1  and  O_2
REMARK    2  A    between atoms: O_2  and  C_3
REMARK    3  A    between atoms: C_3  and  C_4
REMARK    4  A    between atoms: C_3  and  C_14
REMARK    5  A    between atoms: C_4  and  C_5
REMARK    6  A    between atoms: C_5  and  C_6
REMARK    7  A    between atoms: C_6  and  C_7
REMARK    8  A    between atoms: C_7  and  C_8
REMARK    9  A    between atoms: C_8  and  C_9
REMARK   10  A    between atoms: C_9  and  C_10
REMARK   11  A    between atoms: N_12  and  O_13
REMARK   12  A    between atoms: N_16  and  C_17
REMARK                            x       y       z     vdW  Elec       q    Type
REMARK                         _______ _______ _______ _____ _____    ______ ____
ROOT
ATOM      1  C   UNL     1       3.403   3.595  19.870  0.00  0.00    +0.000 C 
ENDROOT
BRANCH   1   2
ATOM      2  C   UNL     1       2.493   4.739  19.384  0.00  0.00    +0.000 C 
ATOM      3  O   UNL     1       1.414   4.489  18.849  0.00  0.00    +0.000 OA
ATOM      4  N   UNL     1       3.001   5.995  19.679  0.00  0.00    +0.000 N 
ATOM      5  H   UNL     1       3.974   5.995  19.973  0.00  0.00    +0.000 HD
BRANCH   4   6
ATOM      6  C   UNL     1       2.361   7.236  19.486  0.00  0.00    +0.000 A 
ATOM      7  C   UNL     1       1.639   7.880  20.493  0.00  0.00    +0.000 A 
ATOM      8  C   UNL     1       0.989   9.089  20.242  0.00  0.00    +0.000 A 
ATOM      9  C   UNL     1       1.061   9.674  18.982  0.00  0.00    +0.000 A 
ATOM     10  C   UNL     1       1.805   9.058  17.978  0.00  0.00    +0.000 A 
ATOM     11  C   UNL     1       2.462   7.847  18.230  0.00  0.00    +0.000 A 
ENDBRANCH   4   6
ENDBRANCH   1   2
BRANCH   1  13
ATOM     12  C   UNL     1       1.998   2.952  21.691  0.00  0.00    +0.000 C 
ATOM     13  O   UNL     1       2.606   2.560  20.465  0.00  0.00    +0.000 OA
ENDBRANCH   1  13
BRANCH   1  14
ATOM     14  C   UNL     1       4.261   3.089  18.697  0.00  0.00    +0.000 C 
BRANCH  14  15
ATOM     15  C   UNL     1       3.852   3.707  17.359  0.00  0.00    +0.000 C 
BRANCH  15  16
ATOM     16  C   UNL     1       5.047   4.205  16.552  0.00  0.00    +0.000 C 
BRANCH  16  17
ATOM     17  C   UNL     1       4.854   5.686  16.218  0.00  0.00    +0.000 C 
BRANCH  17  18
ATOM     18  C   UNL     1       5.735   6.578  17.081  0.00  0.00    +0.000 C 
BRANCH  18  19
ATOM     19  C   UNL     1       7.164   6.042  17.147  0.00  0.00    +0.000 C 
BRANCH  19  20
ATOM     20  C   UNL     1       7.781   6.274  18.507  0.00  0.00    +0.000 C 
ATOM     21  O   UNL     1       8.378   7.299  18.839  0.00  0.00    +0.000 OA
ATOM     22  N   UNL     1       7.623   5.221  19.374  0.00  0.00    +0.000 N 
ATOM     23  H   UNL     1       6.918   4.501  19.259  0.00  0.00    +0.000 HD
BRANCH  22  24
ATOM     24  O   UNL     1       8.092   5.446  20.690  0.00  0.00    +0.000 OA
ATOM     25  H   UNL     1       8.336   6.400  20.662  0.00  0.00    +0.000 HD
ENDBRANCH  22  24
ENDBRANCH  19  20
ENDBRANCH  18  19
ENDBRANCH  17  18
ENDBRANCH  16  17
ENDBRANCH  15  16
ENDBRANCH  14  15
ENDBRANCH   1  14
TORSDOF 11
ENDMDL
MODEL 2
REMARK VINA RESULT:      -6.7      3.149      7.059
REMARK  Name = 
REMARK  12 active torsions:
REMARK  status: ('A' for Active; 'I' for Inactive)
REMARK    1  A    between atoms: C_1  and  O_2
REMARK    2  A    between atoms: O_2  and  C_3
REMARK    3  A    between atoms: C_3  and  C_4
REMARK    4  A    between atoms: C_3  and  C_14
REMARK    5  A    between atoms: C_4  and  C_5
REMARK    6  A    between atoms: C_5  and  C_6
REMARK    7  A    between atoms: C_6  and  C_7
REMARK    8  A    between atoms: C_7  and  C_8
REMARK    9  A    between atoms: C_8  and  C_9
REMARK   10  A    between atoms: C_9  and  C_10
REMARK   11  A    between atoms: N_12  and  O_13
REMARK   12  A    between atoms: N_16  and  C_17
REMARK                            x       y       z     vdW  Elec       q    Type
REMARK                         _______ _______ _______ _____ _____    ______ ____
ROOT
ATOM      1  C   UNL     1       7.023   6.293  17.715  0.00  0.00    +0.000 C 
ENDROOT
BRANCH   1   2
ATOM      2  C   UNL     1       7.298   5.327  16.547  0.00  0.00    +0.000 C 
ATOM      3  O   UNL     1       7.970   4.312  16.726  0.00  0.00    +0.000 OA
ATOM      4  N   UNL     1       6.667   5.707  15.372  0.00  0.00    +0.000 N 
ATOM      5  H   UNL     1       6.298   6.654  15.382  0.00  0.00    +0.000 HD
BRANCH   4   6
ATOM      6  C   UNL     1       6.612   4.981  14.165  0.00  0.00    +0.000 A 
ATOM      7  C   UNL     1       5.632   4.020  13.904  0.00  0.00    +0.000 A 
ATOM      8  C   UNL     1       5.643   3.298  12.710  0.00  0.00    +0.000 A 
ATOM      9  C   UNL     1       6.629   3.535  11.758  0.00  0.00    +0.000 A 
ATOM     10  C   UNL     1       7.593   4.512  11.992  0.00  0.00    +0.000 A 
ATOM     11  C   UNL     1       7.581   5.241  13.189  0.00  0.00    +0.000 A 
ENDBRANCH   4   6
ENDBRANCH   1   2
BRANCH   1  13
ATOM     12  C   UNL     1       7.960   8.489  17.767  0.00  0.00    +0.000 C 
ATOM     13  O   UNL     1       6.955   7.640  17.225  0.00  0.00    +0.000 OA
ENDBRANCH   1  13
BRANCH   1  14
ATOM     14  C   UNL     1       5.742   5.858  18.449  0.00  0.00    +0.000 C 
BRANCH  14  15
ATOM     15  C   UNL     1       4.730   5.187  17.520  0.00  0.00    +0.000 C 
BRANCH  15  16
ATOM     16  C   UNL     1       4.066   3.969  18.155  0.00  0.00    +0.000 C 
BRANCH  16  17
ATOM     17  C   UNL     1       2.899   3.509  17.278  0.00  0.00    +0.000 C 
BRANCH  17  18
ATOM     18  C   UNL     1       1.566   4.034  17.793  0.00  0.00    +0.000 C 
BRANCH  18  19
ATOM     19  C   UNL     1       0.928   3.049  18.771  0.00  0.00    +0.000 C 
BRANCH  19  20
ATOM     20  C   UNL     1       1.173   3.457  20.206  0.00  0.00    +0.000 C 
ATOM     21  O   UNL     1       0.961   4.582  20.660  0.00  0.00    +0.000 OA
ATOM     22  N   UNL     1       1.670   2.446  20.992  0.00  0.00    +0.000 N 
ATOM     23  H   UNL     1       1.594   1.463  20.755  0.00  0.00    +0.000 HD
BRANCH  22  24
ATOM     24  O   UNL     1       1.810   2.761  22.364  0.00  0.00    +0.000 OA
ATOM     25  H   UNL     1       2.248   1.953  22.718  0.00  0.00    +0.000 HD
ENDBRANCH  22  24
ENDBRANCH  19  20
ENDBRANCH  18  19
ENDBRANCH  17  18
ENDBRANCH  16  17
ENDBRANCH  15  16
ENDBRANCH  14  15
ENDBRANCH   1  14
TORSDOF 11
ENDMDL
MODEL 3
REMARK VINA RESULT:      -6.7      2.933      6.816
REMARK  Name = 
REMARK  12 active torsions:
REMARK  status: ('A' for Active; 'I' for Inactive)
REMARK    1  A    between atoms: C_1  and  O_2
REMARK    2  A    between atoms: O_2  and  C_3
REMARK    3  A    between atoms: C_3  and  C_4
REMARK    4  A    between atoms: C_3  and  C_14
REMARK    5  A    between atoms: C_4  and  C_5
REMARK    6  A    between atoms: C_5  and  C_6
REMARK    7  A    between atoms: C_6  and  C_7
REMARK    8  A    between atoms: C_7  and  C_8
REMARK    9  A    between atoms: C_8  and  C_9
REMARK   10  A    between atoms: C_9  and  C_10
REMARK   11  A    between atoms: N_12  and  O_13
REMARK   12  A    between atoms: N_16  and  C_17
REMARK                            x       y       z     vdW  Elec       q    Type
REMARK                         _______ _______ _______ _____ _____    ______ ____
ROOT
ATOM      1  C   UNL     1       6.342   5.593  17.917  0.00  0.00    +0.000 C 
ENDROOT
BRANCH   1   2
ATOM      2  C   UNL     1       6.985   5.007  16.646  0.00  0.00    +0.000 C 
ATOM      3  O   UNL     1       8.022   4.350  16.720  0.00  0.00    +0.000 OA
ATOM      4  N   UNL     1       6.240   5.253  15.501  0.00  0.00    +0.000 N 
ATOM      5  H   UNL     1       5.508   5.948  15.620  0.00  0.00    +0.000 HD
BRANCH   4   6
ATOM      6  C   UNL     1       6.482   4.751  14.208  0.00  0.00    +0.000 A 
ATOM      7  C   UNL     1       7.532   5.202  13.404  0.00  0.00    +0.000 A 
ATOM      8  C   UNL     1       7.706   4.702  12.113  0.00  0.00    +0.000 A 
ATOM      9  C   UNL     1       6.839   3.736  11.613  0.00  0.00    +0.000 A 
ATOM     10  C   UNL     1       5.808   3.254  12.416  0.00  0.00    +0.000 A 
ATOM     11  C   UNL     1       5.634   3.753  13.714  0.00  0.00    +0.000 A 
ENDBRANCH   4   6
ENDBRANCH   1   2
BRANCH   1  13
ATOM     12  C   UNL     1       7.615   7.609  17.781  0.00  0.00    +0.000 C 
ATOM     13  O   UNL     1       6.318   7.025  17.833  0.00  0.00    +0.000 OA
ENDBRANCH   1  13
BRANCH   1  14
ATOM     14  C   UNL     1       4.944   4.982  18.113  0.00  0.00    +0.000 C 
BRANCH  14  15
ATOM     15  C   UNL     1       4.040   5.850  18.991  0.00  0.00    +0.000 C 
BRANCH  15  16
ATOM     16  C   UNL     1       2.653   6.052  18.388  0.00  0.00    +0.000 C 
BRANCH  16  17
ATOM     17  C   UNL     1       1.927   4.706  18.318  0.00  0.00    +0.000 C 
BRANCH  17  18
ATOM     18  C   UNL     1       1.415   4.271  19.685  0.00  0.00    +0.000 C 
BRANCH  18  19
ATOM     19  C   UNL     1       1.467   2.751  19.833  0.00  0.00    +0.000 C 
BRANCH  19  20
ATOM     20  C   UNL     1       2.812   2.200  19.418  0.00  0.00    +0.000 C 
ATOM     21  O   UNL     1       3.035   1.628  18.350  0.00  0.00    +0.000 OA
ATOM     22  N   UNL     1       3.800   2.388  20.353  0.00  0.00    +0.000 N 
ATOM     23  H   UNL     1       3.747   3.079  21.093  0.00  0.00    +0.000 HD
BRANCH  22  24
ATOM     24  O   UNL     1       5.095   1.981  19.954  0.00  0.00    +0.000 OA
ATOM     25  H   UNL     1       5.155   1.075  20.335  0.00  0.00    +0.000 HD
ENDBRANCH  22  24
ENDBRANCH  19  20
ENDBRANCH  18  19
ENDBRANCH  17  18
ENDBRANCH  16  17
ENDBRANCH  15  16
ENDBRANCH  14  15
ENDBRANCH   1  14
TORSDOF 11
ENDMDL
MODEL 4
REMARK VINA RESULT:      -6.6      2.861      6.762
REMARK  Name = 
REMARK  12 active torsions:
REMARK  status: ('A' for Active; 'I' for Inactive)
REMARK    1  A    between atoms: C_1  and  O_2
REMARK    2  A    between atoms: O_2  and  C_3
REMARK    3  A    between atoms: C_3  and  C_4
REMARK    4  A    between atoms: C_3  and  C_14
REMARK    5  A    between atoms: C_4  and  C_5
REMARK    6  A    between atoms: C_5  and  C_6
REMARK    7  A    between atoms: C_6  and  C_7
REMARK    8  A    between atoms: C_7  and  C_8
REMARK    9  A    between atoms: C_8  and  C_9
REMARK   10  A    between atoms: C_9  and  C_10
REMARK   11  A    between atoms: N_12  and  O_13
REMARK   12  A    between atoms: N_16  and  C_17
REMARK                            x       y       z     vdW  Elec       q    Type
REMARK                         _______ _______ _______ _____ _____    ______ ____
ROOT
ATOM      1  C   UNL     1       6.960   6.026  18.021  0.00  0.00    +0.000 C 
ENDROOT
BRANCH   1   2
ATOM      2  C   UNL     1       7.279   5.162  16.787  0.00  0.00    +0.000 C 
ATOM      3  O   UNL     1       8.015   4.181  16.889  0.00  0.00    +0.000 OA
ATOM      4  N   UNL     1       6.611   5.581  15.646  0.00  0.00    +0.000 N 
ATOM      5  H   UNL     1       6.184   6.501  15.725  0.00  0.00    +0.000 HD
BRANCH   4   6
ATOM      6  C   UNL     1       6.585   4.938  14.393  0.00  0.00    +0.000 A 
ATOM      7  C   UNL     1       5.599   4.016  14.035  0.00  0.00    +0.000 A 
ATOM      8  C   UNL     1       5.639   3.374  12.796  0.00  0.00    +0.000 A 
ATOM      9  C   UNL     1       6.661   3.655  11.895  0.00  0.00    +0.000 A 
ATOM     10  C   UNL     1       7.633   4.597  12.227  0.00  0.00    +0.000 A 
ATOM     11  C   UNL     1       7.591   5.244  13.468  0.00  0.00    +0.000 A 
ENDBRANCH   4   6
ENDBRANCH   1   2
BRANCH   1  13
ATOM     12  C   UNL     1       7.776   8.243  17.668  0.00  0.00    +0.000 C 
ATOM     13  O   UNL     1       6.656   7.367  17.610  0.00  0.00    +0.000 OA
ENDBRANCH   1  13
BRANCH   1  14
ATOM     14  C   UNL     1       5.820   5.374  18.823  0.00  0.00    +0.000 C 
BRANCH  14  15
ATOM     15  C   UNL     1       4.508   6.153  18.721  0.00  0.00    +0.000 C 
BRANCH  15  16
ATOM     16  C   UNL     1       3.674   5.745  17.511  0.00  0.00    +0.000 C 
BRANCH  16  17
ATOM     17  C   UNL     1       2.737   4.599  17.901  0.00  0.00    +0.000 C 
BRANCH  17  18
ATOM     18  C   UNL     1       2.236   4.743  19.332  0.00  0.00    +0.000 C 
BRANCH  18  19
ATOM     19  C   UNL     1       2.828   3.660  20.233  0.00  0.00    +0.000 C 
BRANCH  19  20
ATOM     20  C   UNL     1       2.932   2.336  19.513  0.00  0.00    +0.000 C 
ATOM     21  O   UNL     1       1.970   1.669  19.130  0.00  0.00    +0.000 OA
ATOM     22  N   UNL     1       4.224   1.914  19.313  0.00  0.00    +0.000 N 
ATOM     23  H   UNL     1       5.026   2.532  19.345  0.00  0.00    +0.000 HD
BRANCH  22  24
ATOM     24  O   UNL     1       4.362   0.732  18.547  0.00  0.00    +0.000 OA
ATOM     25  H   UNL     1       5.303   0.780  18.260  0.00  0.00    +0.000 HD
ENDBRANCH  22  24
ENDBRANCH  19  20
ENDBRANCH  18  19
ENDBRANCH  17  18
ENDBRANCH  16  17
ENDBRANCH  15  16
ENDBRANCH  14  15
ENDBRANCH   1  14
TORSDOF 11
ENDMDL
MODEL 5
REMARK VINA RESULT:      -6.6      3.681      5.830
REMARK  Name = 
REMARK  12 active torsions:
REMARK  status: ('A' for Active; 'I' for Inactive)
REMARK    1  A    between atoms: C_1  and  O_2
REMARK    2  A    between atoms: O_2  and  C_3
REMARK    3  A    between atoms: C_3  and  C_4
REMARK    4  A    between atoms: C_3  and  C_14
REMARK    5  A    between atoms: C_4  and  C_5
REMARK    6  A    between atoms: C_5  and  C_6
REMARK    7  A    between atoms: C_6  and  C_7
REMARK    8  A    between atoms: C_7  and  C_8
REMARK    9  A    between atoms: C_8  and  C_9
REMARK   10  A    between atoms: C_9  and  C_10
REMARK   11  A    between atoms: N_12  and  O_13
REMARK   12  A    between atoms: N_16  and  C_17
REMARK                            x       y       z     vdW  Elec       q    Type
REMARK                         _______ _______ _______ _____ _____    ______ ____
ROOT
ATOM      1  C   UNL     1       7.105   5.345  17.726  0.00  0.00    +0.000 C 
ENDROOT
BRANCH   1   2
ATOM      2  C   UNL     1       6.248   4.924  18.935  0.00  0.00    +0.000 C 
ATOM      3  O   UNL     1       6.710   4.982  20.074  0.00  0.00    +0.000 OA
ATOM      4  N   UNL     1       4.956   4.564  18.583  0.00  0.00    +0.000 N 
ATOM      5  H   UNL     1       4.818   4.423  17.585  0.00  0.00    +0.000 HD
BRANCH   4   6
ATOM      6  C   UNL     1       3.894   4.253  19.455  0.00  0.00    +0.000 A 
ATOM      7  C   UNL     1       3.600   2.948  19.856  0.00  0.00    +0.000 A 
ATOM      8  C   UNL     1       2.512   2.687  20.689  0.00  0.00    +0.000 A 
ATOM      9  C   UNL     1       1.710   3.730  21.141  0.00  0.00    +0.000 A 
ATOM     10  C   UNL     1       2.012   5.040  20.775  0.00  0.00    +0.000 A 
ATOM     11  C   UNL     1       3.106   5.303  19.941  0.00  0.00    +0.000 A 
ENDBRANCH   4   6
ENDBRANCH   1   2
BRANCH   1  13
ATOM     12  C   UNL     1       6.957   4.708  15.429  0.00  0.00    +0.000 C 
ATOM     13  O   UNL     1       6.306   5.325  16.534  0.00  0.00    +0.000 OA
ENDBRANCH   1  13
BRANCH   1  14
ATOM     14  C   UNL     1       7.737   6.721  17.999  0.00  0.00    +0.000 C 
BRANCH  14  15
ATOM     15  C   UNL     1       7.008   7.856  17.278  0.00  0.00    +0.000 C 
BRANCH  15  16
ATOM     16  C   UNL     1       7.595   9.228  17.598  0.00  0.00    +0.000 C 
BRANCH  16  17
ATOM     17  C   UNL     1       8.751   9.070  18.588  0.00  0.00    +0.000 C 
BRANCH  17  18
ATOM     18  C   UNL     1       9.086  10.385  19.278  0.00  0.00    +0.000 C 
BRANCH  18  19
ATOM     19  C   UNL     1      10.529  10.801  18.998  0.00  0.00    +0.000 C 
BRANCH  19  20
ATOM     20  C   UNL     1      10.598  11.882  17.944  0.00  0.00    +0.000 C 
ATOM     21  O   UNL     1       9.716  12.717  17.737  0.00  0.00    +0.000 OA
ATOM     22  N   UNL     1      11.757  11.864  17.207  0.00  0.00    +0.000 N 
ATOM     23  H   UNL     1      12.608  11.405  17.512  0.00  0.00    +0.000 HD
BRANCH  22  24
ATOM     24  O   UNL     1      11.904  12.927  16.285  0.00  0.00    +0.000 OA
ATOM     25  H   UNL     1      11.592  13.701  16.810  0.00  0.00    +0.000 HD
ENDBRANCH  22  24
ENDBRANCH  19  20
ENDBRANCH  18  19
ENDBRANCH  17  18
ENDBRANCH  16  17
ENDBRANCH  15  16
ENDBRANCH  14  15
ENDBRANCH   1  14
TORSDOF 11
ENDMDL
MODEL 6
REMARK VINA RESULT:      -6.6      3.522      5.310
REMARK  Name = 
REMARK  12 active torsions:
REMARK  status: ('A' for Active; 'I' for Inactive)
REMARK    1  A    between atoms: C_1  and  O_2
REMARK    2  A    between atoms: O_2  and  C_3
REMARK    3  A    between atoms: C_3  and  C_4
REMARK    4  A    between atoms: C_3  and  C_14
REMARK    5  A    between atoms: C_4  and  C_5
REMARK    6  A    between atoms: C_5  and  C_6
REMARK    7  A    between atoms: C_6  and  C_7
REMARK    8  A    between atoms: C_7  and  C_8
REMARK    9  A    between atoms: C_8  and  C_9
REMARK   10  A    between atoms: C_9  and  C_10
REMARK   11  A    between atoms: N_12  and  O_13
REMARK   12  A    between atoms: N_16  and  C_17
REMARK                            x       y       z     vdW  Elec       q    Type
REMARK                         _______ _______ _______ _____ _____    ______ ____
ROOT
ATOM      1  C   UNL     1       6.156   4.571  16.680  0.00  0.00    +0.000 C 
ENDROOT
BRANCH   1   2
ATOM      2  C   UNL     1       5.284   4.203  17.895  0.00  0.00    +0.000 C 
ATOM      3  O   UNL     1       5.806   3.936  18.976  0.00  0.00    +0.000 OA
ATOM      4  N   UNL     1       3.925   4.278  17.627  0.00  0.00    +0.000 N 
ATOM      5  H   UNL     1       3.696   4.353  16.639  0.00  0.00    +0.000 HD
BRANCH   4   6
ATOM      6  C   UNL     1       2.869   4.129  18.548  0.00  0.00    +0.000 A 
ATOM      7  C   UNL     1       2.645   5.025  19.595  0.00  0.00    +0.000 A 
ATOM      8  C   UNL     1       1.610   4.813  20.506  0.00  0.00    +0.000 A 
ATOM      9  C   UNL     1       0.778   3.705  20.375  0.00  0.00    +0.000 A 
ATOM     10  C   UNL     1       0.971   2.820  19.316  0.00  0.00    +0.000 A 
ATOM     11  C   UNL     1       2.007   3.036  18.398  0.00  0.00    +0.000 A 
ENDBRANCH   4   6
ENDBRANCH   1   2
BRANCH   1  13
ATOM     12  C   UNL     1       6.196   4.104  14.338  0.00  0.00    +0.000 C 
ATOM     13  O   UNL     1       5.993   3.587  15.649  0.00  0.00    +0.000 OA
ENDBRANCH   1  13
BRANCH   1  14
ATOM     14  C   UNL     1       5.805   5.994  16.209  0.00  0.00    +0.000 C 
BRANCH  14  15
ATOM     15  C   UNL     1       6.232   7.067  17.212  0.00  0.00    +0.000 C 
BRANCH  15  16
ATOM     16  C   UNL     1       7.724   7.379  17.141  0.00  0.00    +0.000 C 
BRANCH  16  17
ATOM     17  C   UNL     1       8.124   8.236  18.344  0.00  0.00    +0.000 C 
BRANCH  17  18
ATOM     18  C   UNL     1       8.644   9.601  17.915  0.00  0.00    +0.000 C 
BRANCH  18  19
ATOM     19  C   UNL     1       9.272  10.345  19.093  0.00  0.00    +0.000 C 
BRANCH  19  20
ATOM     20  C   UNL     1       9.204  11.842  18.902  0.00  0.00    +0.000 C 
ATOM     21  O   UNL     1       9.601  12.672  19.721  0.00  0.00    +0.000 OA
ATOM     22  N   UNL     1       8.643  12.223  17.707  0.00  0.00    +0.000 N 
ATOM     23  H   UNL     1       8.567  11.611  16.903  0.00  0.00    +0.000 HD
BRANCH  22  24
ATOM     24  O   UNL     1       8.661  13.614  17.447  0.00  0.00    +0.000 OA
ATOM     25  H   UNL     1       8.459  13.993  18.334  0.00  0.00    +0.000 HD
ENDBRANCH  22  24
ENDBRANCH  19  20
ENDBRANCH  18  19
ENDBRANCH  17  18
ENDBRANCH  16  17
ENDBRANCH  15  16
ENDBRANCH  14  15
ENDBRANCH   1  14
TORSDOF 11
ENDMDL
MODEL 7
REMARK VINA RESULT:      -6.5      0.776      1.374
REMARK  Name = 
REMARK  12 active torsions:
REMARK  status: ('A' for Active; 'I' for Inactive)
REMARK    1  A    between atoms: C_1  and  O_2
REMARK    2  A    between atoms: O_2  and  C_3
REMARK    3  A    between atoms: C_3  and  C_4
REMARK    4  A    between atoms: C_3  and  C_14
REMARK    5  A    between atoms: C_4  and  C_5
REMARK    6  A    between atoms: C_5  and  C_6
REMARK    7  A    between atoms: C_6  and  C_7
REMARK    8  A    between atoms: C_7  and  C_8
REMARK    9  A    between atoms: C_8  and  C_9
REMARK   10  A    between atoms: C_9  and  C_10
REMARK   11  A    between atoms: N_12  and  O_13
REMARK   12  A    between atoms: N_16  and  C_17
REMARK                            x       y       z     vdW  Elec       q    Type
REMARK                         _______ _______ _______ _____ _____    ______ ____
ROOT
ATOM      1  C   UNL     1       3.223   3.941  19.479  0.00  0.00    +0.000 C 
ENDROOT
BRANCH   1   2
ATOM      2  C   UNL     1       2.425   5.151  18.961  0.00  0.00    +0.000 C 
ATOM      3  O   UNL     1       1.523   4.995  18.139  0.00  0.00    +0.000 OA
ATOM      4  N   UNL     1       2.799   6.343  19.564  0.00  0.00    +0.000 N 
ATOM      5  H   UNL     1       3.667   6.292  20.090  0.00  0.00    +0.000 HD
BRANCH   4   6
ATOM      6  C   UNL     1       2.185   7.602  19.409  0.00  0.00    +0.000 A 
ATOM      7  C   UNL     1       2.251   8.335  18.221  0.00  0.00    +0.000 A 
ATOM      8  C   UNL     1       1.660   9.596  18.129  0.00  0.00    +0.000 A 
ATOM      9  C   UNL     1       0.987  10.135  19.221  0.00  0.00    +0.000 A 
ATOM     10  C   UNL     1       0.886   9.401  20.400  0.00  0.00    +0.000 A 
ATOM     11  C   UNL     1       1.476   8.133  20.492  0.00  0.00    +0.000 A 
ENDBRANCH   4   6
ENDBRANCH   1   2
BRANCH   1  13
ATOM     12  C   UNL     1       1.579   2.324  20.101  0.00  0.00    +0.000 C 
ATOM     13  O   UNL     1       2.506   3.307  20.548  0.00  0.00    +0.000 OA
ENDBRANCH   1  13
BRANCH   1  14
ATOM     14  C   UNL     1       3.522   2.985  18.310  0.00  0.00    +0.000 C 
BRANCH  14  15
ATOM     15  C   UNL     1       4.859   3.286  17.631  0.00  0.00    +0.000 C 
BRANCH  15  16
ATOM     16  C   UNL     1       4.704   4.161  16.391  0.00  0.00    +0.000 C 
BRANCH  16  17
ATOM     17  C   UNL     1       6.056   4.289  15.685  0.00  0.00    +0.000 C 
BRANCH  17  18
ATOM     18  C   UNL     1       7.172   4.630  16.663  0.00  0.00    +0.000 C 
BRANCH  18  19
ATOM     19  C   UNL     1       7.115   6.101  17.072  0.00  0.00    +0.000 C 
BRANCH  19  20
ATOM     20  C   UNL     1       7.747   6.325  18.426  0.00  0.00    +0.000 C 
ATOM     21  O   UNL     1       8.372   7.336  18.750  0.00  0.00    +0.000 OA
ATOM     22  N   UNL     1       7.572   5.279  19.299  0.00  0.00    +0.000 N 
ATOM     23  H   UNL     1       6.850   4.575  19.192  0.00  0.00    +0.000 HD
BRANCH  22  24
ATOM     24  O   UNL     1       8.057   5.498  20.610  0.00  0.00    +0.000 OA
ATOM     25  H   UNL     1       7.420   4.980  21.156  0.00  0.00    +0.000 HD
ENDBRANCH  22  24
ENDBRANCH  19  20
ENDBRANCH  18  19
ENDBRANCH  17  18
ENDBRANCH  16  17
ENDBRANCH  15  16
ENDBRANCH  14  15
ENDBRANCH   1  14
TORSDOF 11
ENDMDL
MODEL 8
REMARK VINA RESULT:      -6.5      3.045      6.785
REMARK  Name = 
REMARK  12 active torsions:
REMARK  status: ('A' for Active; 'I' for Inactive)
REMARK    1  A    between atoms: C_1  and  O_2
REMARK    2  A    between atoms: O_2  and  C_3
REMARK    3  A    between atoms: C_3  and  C_4
REMARK    4  A    between atoms: C_3  and  C_14
REMARK    5  A    between atoms: C_4  and  C_5
REMARK    6  A    between atoms: C_5  and  C_6
REMARK    7  A    between atoms: C_6  and  C_7
REMARK    8  A    between atoms: C_7  and  C_8
REMARK    9  A    between atoms: C_8  and  C_9
REMARK   10  A    between atoms: C_9  and  C_10
REMARK   11  A    between atoms: N_12  and  O_13
REMARK   12  A    between atoms: N_16  and  C_17
REMARK                            x       y       z     vdW  Elec       q    Type
REMARK                         _______ _______ _______ _____ _____    ______ ____
ROOT
ATOM      1  C   UNL     1       6.322   5.973  17.662  0.00  0.00    +0.000 C 
ENDROOT
BRANCH   1   2
ATOM      2  C   UNL     1       6.915   5.184  16.480  0.00  0.00    +0.000 C 
ATOM      3  O   UNL     1       7.818   4.370  16.667  0.00  0.00    +0.000 OA
ATOM      4  N   UNL     1       6.281   5.456  15.277  0.00  0.00    +0.000 N 
ATOM      5  H   UNL     1       5.675   6.272  15.298  0.00  0.00    +0.000 HD
BRANCH   4   6
ATOM      6  C   UNL     1       6.495   4.815  14.041  0.00  0.00    +0.000 A 
ATOM      7  C   UNL     1       7.538   5.162  13.178  0.00  0.00    +0.000 A 
ATOM      8  C   UNL     1       7.685   4.524  11.946  0.00  0.00    +0.000 A 
ATOM      9  C   UNL     1       6.797   3.524  11.565  0.00  0.00    +0.000 A 
ATOM     10  C   UNL     1       5.772   3.145  12.430  0.00  0.00    +0.000 A 
ATOM     11  C   UNL     1       5.626   3.782  13.669  0.00  0.00    +0.000 A 
ENDBRANCH   4   6
ENDBRANCH   1   2
BRANCH   1  13
ATOM     12  C   UNL     1       7.739   5.807  19.577  0.00  0.00    +0.000 C 
ATOM     13  O   UNL     1       7.380   6.567  18.429  0.00  0.00    +0.000 OA
ENDBRANCH   1  13
BRANCH   1  14
ATOM     14  C   UNL     1       5.313   7.008  17.134  0.00  0.00    +0.000 C 
BRANCH  14  15
ATOM     15  C   UNL     1       4.008   7.018  17.932  0.00  0.00    +0.000 C 
BRANCH  15  16
ATOM     16  C   UNL     1       3.884   5.822  18.871  0.00  0.00    +0.000 C 
BRANCH  16  17
ATOM     17  C   UNL     1       2.435   5.694  19.345  0.00  0.00    +0.000 C 
BRANCH  17  18
ATOM     18  C   UNL     1       1.890   4.290  19.120  0.00  0.00    +0.000 C 
BRANCH  18  19
ATOM     19  C   UNL     1       2.149   3.822  17.689  0.00  0.00    +0.000 C 
BRANCH  19  20
ATOM     20  C   UNL     1       3.247   2.786  17.636  0.00  0.00    +0.000 C 
ATOM     21  O   UNL     1       4.337   2.947  17.085  0.00  0.00    +0.000 OA
ATOM     22  N   UNL     1       2.929   1.608  18.268  0.00  0.00    +0.000 N 
ATOM     23  H   UNL     1       2.193   1.525  18.960  0.00  0.00    +0.000 HD
BRANCH  22  24
ATOM     24  O   UNL     1       3.973   0.655  18.332  0.00  0.00    +0.000 OA
ATOM     25  H   UNL     1       4.515   0.993  19.082  0.00  0.00    +0.000 HD
ENDBRANCH  22  24
ENDBRANCH  19  20
ENDBRANCH  18  19
ENDBRANCH  17  18
ENDBRANCH  16  17
ENDBRANCH  15  16
ENDBRANCH  14  15
ENDBRANCH   1  14
TORSDOF 11
ENDMDL
MODEL 9
REMARK VINA RESULT:      -6.5      4.633      6.191
REMARK  Name = 
REMARK  12 active torsions:
REMARK  status: ('A' for Active; 'I' for Inactive)
REMARK    1  A    between atoms: C_1  and  O_2
REMARK    2  A    between atoms: O_2  and  C_3
REMARK    3  A    between atoms: C_3  and  C_4
REMARK    4  A    between atoms: C_3  and  C_14
REMARK    5  A    between atoms: C_4  and  C_5
REMARK    6  A    between atoms: C_5  and  C_6
REMARK    7  A    between atoms: C_6  and  C_7
REMARK    8  A    between atoms: C_7  and  C_8
REMARK    9  A    between atoms: C_8  and  C_9
REMARK   10  A    between atoms: C_9  and  C_10
REMARK   11  A    between atoms: N_12  and  O_13
REMARK   12  A    between atoms: N_16  and  C_17
REMARK                            x       y       z     vdW  Elec       q    Type
REMARK                         _______ _______ _______ _____ _____    ______ ____
ROOT
ATOM      1  C   UNL     1       6.257   5.097  17.918  0.00  0.00    +0.000 C 
ENDROOT
BRANCH   1   2
ATOM      2  C   UNL     1       5.207   4.273  18.687  0.00  0.00    +0.000 C 
ATOM      3  O   UNL     1       5.549   3.547  19.619  0.00  0.00    +0.000 OA
ATOM      4  N   UNL     1       3.912   4.506  18.250  0.00  0.00    +0.000 N 
ATOM      5  H   UNL     1       3.851   5.008  17.368  0.00  0.00    +0.000 HD
BRANCH   4   6
ATOM      6  C   UNL     1       2.722   4.013  18.822  0.00  0.00    +0.000 A 
ATOM      7  C   UNL     1       2.241   4.445  20.060  0.00  0.00    +0.000 A 
ATOM      8  C   UNL     1       1.079   3.897  20.604  0.00  0.00    +0.000 A 
ATOM      9  C   UNL     1       0.376   2.918  19.910  0.00  0.00    +0.000 A 
ATOM     10  C   UNL     1       0.826   2.501  18.659  0.00  0.00    +0.000 A 
ATOM     11  C   UNL     1       1.992   3.054  18.111  0.00  0.00    +0.000 A 
ENDBRANCH   4   6
ENDBRANCH   1   2
BRANCH   1  13
ATOM     12  C   UNL     1       7.998   6.514  18.733  0.00  0.00    +0.000 C 
ATOM     13  O   UNL     1       7.460   5.196  18.693  0.00  0.00    +0.000 OA
ENDBRANCH   1  13
BRANCH   1  14
ATOM     14  C   UNL     1       6.489   4.467  16.533  0.00  0.00    +0.000 C 
BRANCH  14  15
ATOM     15  C   UNL     1       5.660   5.138  15.435  0.00  0.00    +0.000 C 
BRANCH  15  16
ATOM     16  C   UNL     1       6.319   5.045  14.062  0.00  0.00    +0.000 C 
BRANCH  16  17
ATOM     17  C   UNL     1       6.332   3.586  13.600  0.00  0.00    +0.000 C 
BRANCH  17  18
ATOM     18  C   UNL     1       6.330   3.476  12.082  0.00  0.00    +0.000 C 
BRANCH  18  19
ATOM     19  C   UNL     1       5.435   2.329  11.615  0.00  0.00    +0.000 C 
BRANCH  19  20
ATOM     20  C   UNL     1       6.250   1.134  11.176  0.00  0.00    +0.000 C 
ATOM     21  O   UNL     1       7.259   1.194  10.472  0.00  0.00    +0.000 OA
ATOM     22  N   UNL     1       5.763  -0.066  11.633  0.00  0.00    +0.000 N 
ATOM     23  H   UNL     1       5.132  -0.151  12.422  0.00  0.00    +0.000 HD
BRANCH  22  24
ATOM     24  O   UNL     1       6.561  -1.196  11.333  0.00  0.00    +0.000 OA
ATOM     25  H   UNL     1       7.168  -1.232  12.108  0.00  0.00    +0.000 HD
ENDBRANCH  22  24
ENDBRANCH  19  20
ENDBRANCH  18  19
ENDBRANCH  17  18
ENDBRANCH  16  17
ENDBRANCH  15  16
ENDBRANCH  14  15
ENDBRANCH   1  14
TORSDOF 11
ENDMDL
