MODEL 1
REMARK VINA RESULT:      -5.9      0.000      0.000
REMARK  Name = 
REMARK  6 active torsions:
REMARK  status: ('A' for Active; 'I' for Inactive)
REMARK    1  A    between atoms: C_1  and  C_2
REMARK    2  A    between atoms: C_2  and  C_3
REMARK    3  A    between atoms: C_2  and  N_5
REMARK    4  A    between atoms: C_3  and  N_4
REMARK    5  A    between atoms: N_5  and  C_6
REMARK    6  A    between atoms: C_7  and  C_9
REMARK                            x       y       z     vdW  Elec       q    Type
REMARK                         _______ _______ _______ _____ _____    ______ ____
ROOT
ATOM      1  N   UNL     1       5.416   4.794  17.662  0.00  0.00    +0.000 N 
ATOM      2  C   UNL     1       4.423   5.079  16.632  0.00  0.00    +0.000 C 
ATOM      3  C   UNL     1       5.114   4.523  19.010  0.00  0.00    +0.000 C 
ATOM      4  O   UNL     1       6.007   4.364  19.848  0.00  0.00    +0.000 OA
ENDROOT
BRANCH   3   5
ATOM      5  C   UNL     1       3.700   4.395  19.478  0.00  0.00    +0.000 A 
ATOM      6  C   UNL     1       3.069   5.501  20.077  0.00  0.00    +0.000 A 
ATOM      7  C   UNL     1       1.760   5.411  20.551  0.00  0.00    +0.000 A 
ATOM      8  C   UNL     1       1.028   4.244  20.364  0.00  0.00    +0.000 A 
ATOM      9  C   UNL     1       1.611   3.164  19.703  0.00  0.00    +0.000 A 
ATOM     10  C   UNL     1       2.945   3.226  19.273  0.00  0.00    +0.000 A 
ATOM     11 BR   UNL     1       3.629   1.642  18.466  0.00  0.00    +0.000 Br
ENDBRANCH   3   5
BRANCH   1  13
ATOM     12  C   UNL     1       7.209   4.577  15.888  0.00  0.00    +0.000 C 
ATOM     13  C   UNL     1       6.851   4.985  17.323  0.00  0.00    +0.000 C 
BRANCH  13  14
ATOM     14  C   UNL     1       7.281   6.450  17.628  0.00  0.00    +0.000 C 
BRANCH  14  15
ATOM     15  N   UNL     1       8.067   6.598  18.849  0.00  0.00    +0.000 NA
ATOM     16  H   UNL     1       8.897   6.004  18.779  0.00  0.00    +0.000 HD
ATOM     17  H   UNL     1       7.532   6.224  19.634  0.00  0.00    +0.000 HD
ENDBRANCH  14  15
ENDBRANCH  13  14
ENDBRANCH   1  13
TORSDOF 4
ENDMDL
MODEL 2
REMARK VINA RESULT:      -5.9      2.613      5.379
REMARK  Name = 
REMARK  6 active torsions:
REMARK  status: ('A' for Active; 'I' for Inactive)
REMARK    1  A    between atoms: C_1  and  C_2
REMARK    2  A    between atoms: C_2  and  C_3
REMARK    3  A    between atoms: C_2  and  N_5
REMARK    4  A    between atoms: C_3  and  N_4
REMARK    5  A    between atoms: N_5  and  C_6
REMARK    6  A    between atoms: C_7  and  C_9
REMARK                            x       y       z     vdW  Elec       q    Type
REMARK                         _______ _______ _______ _____ _____    ______ ____
ROOT
ATOM      1  N   UNL     1       2.992   3.500  18.241  0.00  0.00    +0.000 N 
ATOM      2  C   UNL     1       3.639   2.192  18.212  0.00  0.00    +0.000 C 
ATOM      3  C   UNL     1       3.521   4.666  17.656  0.00  0.00    +0.000 C 
ATOM      4  O   UNL     1       2.959   5.759  17.782  0.00  0.00    +0.000 OA
ENDROOT
BRANCH   3   5
ATOM      5  C   UNL     1       4.774   4.626  16.843  0.00  0.00    +0.000 A 
ATOM      6  C   UNL     1       4.693   4.366  15.463  0.00  0.00    +0.000 A 
ATOM      7  C   UNL     1       5.843   4.293  14.676  0.00  0.00    +0.000 A 
ATOM      8  C   UNL     1       7.088   4.557  15.234  0.00  0.00    +0.000 A 
ATOM      9  C   UNL     1       7.182   4.893  16.583  0.00  0.00    +0.000 A 
ATOM     10  C   UNL     1       6.037   4.913  17.395  0.00  0.00    +0.000 A 
ATOM     11 BR   UNL     1       6.332   5.301  19.235  0.00  0.00    +0.000 Br
ENDBRANCH   3   5
BRANCH   1  13
ATOM     12  C   UNL     1       0.767   2.533  18.964  0.00  0.00    +0.000 C 
ATOM     13  C   UNL     1       1.790   3.668  19.100  0.00  0.00    +0.000 C 
BRANCH  13  14
ATOM     14  C   UNL     1       2.219   3.880  20.581  0.00  0.00    +0.000 C 
BRANCH  14  15
ATOM     15  N   UNL     1       2.403   5.280  20.952  0.00  0.00    +0.000 NA
ATOM     16  H   UNL     1       2.860   5.768  20.179  0.00  0.00    +0.000 HD
ATOM     17  H   UNL     1       3.062   5.332  21.732  0.00  0.00    +0.000 HD
ENDBRANCH  14  15
ENDBRANCH  13  14
ENDBRANCH   1  13
TORSDOF 4
ENDMDL
MODEL 3
REMARK VINA RESULT:      -5.9      1.948      2.386
REMARK  Name = 
REMARK  6 active torsions:
REMARK  status: ('A' for Active; 'I' for Inactive)
REMARK    1  A    between atoms: C_1  and  C_2
REMARK    2  A    between atoms: C_2  and  C_3
REMARK    3  A    between atoms: C_2  and  N_5
REMARK    4  A    between atoms: C_3  and  N_4
REMARK    5  A    between atoms: N_5  and  C_6
REMARK    6  A    between atoms: C_7  and  C_9
REMARK                            x       y       z     vdW  Elec       q    Type
REMARK                         _______ _______ _______ _____ _____    ______ ____
ROOT
ATOM      1  N   UNL     1       5.134   4.631  17.670  0.00  0.00    +0.000 N 
ATOM      2  C   UNL     1       4.199   4.004  16.742  0.00  0.00    +0.000 C 
ATOM      3  C   UNL     1       4.871   4.863  19.034  0.00  0.00    +0.000 C 
ATOM      4  O   UNL     1       5.677   5.467  19.748  0.00  0.00    +0.000 OA
ENDROOT
BRANCH   3   5
ATOM      5  C   UNL     1       3.615   4.369  19.677  0.00  0.00    +0.000 A 
ATOM      6  C   UNL     1       3.556   3.046  20.150  0.00  0.00    +0.000 A 
ATOM      7  C   UNL     1       2.391   2.541  20.730  0.00  0.00    +0.000 A 
ATOM      8  C   UNL     1       1.292   3.370  20.922  0.00  0.00    +0.000 A 
ATOM      9  C   UNL     1       1.358   4.705  20.530  0.00  0.00    +0.000 A 
ATOM     10  C   UNL     1       2.505   5.206  19.895  0.00  0.00    +0.000 A 
ATOM     11 BR   UNL     1       2.415   7.025  19.337  0.00  0.00    +0.000 Br
ENDBRANCH   3   5
BRANCH   1  13
ATOM     12  C   UNL     1       7.652   4.472  17.469  0.00  0.00    +0.000 C 
ATOM     13  C   UNL     1       6.371   5.238  17.114  0.00  0.00    +0.000 C 
BRANCH  13  14
ATOM     14  C   UNL     1       6.225   5.432  15.577  0.00  0.00    +0.000 C 
BRANCH  14  15
ATOM     15  N   UNL     1       7.473   5.274  14.836  0.00  0.00    +0.000 NA
ATOM     16  H   UNL     1       7.531   4.312  14.493  0.00  0.00    +0.000 HD
ATOM     17  H   UNL     1       8.257   5.378  15.482  0.00  0.00    +0.000 HD
ENDBRANCH  14  15
ENDBRANCH  13  14
ENDBRANCH   1  13
TORSDOF 4
ENDMDL
MODEL 4
REMARK VINA RESULT:      -5.9      2.090      5.158
REMARK  Name = 
REMARK  6 active torsions:
REMARK  status: ('A' for Active; 'I' for Inactive)
REMARK    1  A    between atoms: C_1  and  C_2
REMARK    2  A    between atoms: C_2  and  C_3
REMARK    3  A    between atoms: C_2  and  N_5
REMARK    4  A    between atoms: C_3  and  N_4
REMARK    5  A    between atoms: N_5  and  C_6
REMARK    6  A    between atoms: C_7  and  C_9
REMARK                            x       y       z     vdW  Elec       q    Type
REMARK                         _______ _______ _______ _____ _____    ______ ____
ROOT
ATOM      1  N   UNL     1       3.359   4.365  19.298  0.00  0.00    +0.000 N 
ATOM      2  C   UNL     1       2.850   5.639  18.800  0.00  0.00    +0.000 C 
ATOM      3  C   UNL     1       4.691   3.930  19.164  0.00  0.00    +0.000 C 
ATOM      4  O   UNL     1       5.040   2.807  19.541  0.00  0.00    +0.000 OA
ENDROOT
BRANCH   3   5
ATOM      5  C   UNL     1       5.742   4.817  18.578  0.00  0.00    +0.000 A 
ATOM      6  C   UNL     1       6.639   5.482  19.433  0.00  0.00    +0.000 A 
ATOM      7  C   UNL     1       7.615   6.340  18.924  0.00  0.00    +0.000 A 
ATOM      8  C   UNL     1       7.767   6.488  17.550  0.00  0.00    +0.000 A 
ATOM      9  C   UNL     1       6.938   5.776  16.685  0.00  0.00    +0.000 A 
ATOM     10  C   UNL     1       5.917   4.955  17.188  0.00  0.00    +0.000 A 
ATOM     11 BR   UNL     1       4.809   4.118  15.885  0.00  0.00    +0.000 Br
ENDBRANCH   3   5
BRANCH   1  13
ATOM     12  C   UNL     1       1.396   3.950  20.842  0.00  0.00    +0.000 C 
ATOM     13  C   UNL     1       2.380   3.373  19.814  0.00  0.00    +0.000 C 
BRANCH  13  14
ATOM     14  C   UNL     1       1.637   2.691  18.629  0.00  0.00    +0.000 C 
BRANCH  14  15
ATOM     15  N   UNL     1       2.429   1.681  17.933  0.00  0.00    +0.000 NA
ATOM     16  H   UNL     1       1.916   1.376  17.102  0.00  0.00    +0.000 HD
ATOM     17  H   UNL     1       2.501   0.851  18.525  0.00  0.00    +0.000 HD
ENDBRANCH  14  15
ENDBRANCH  13  14
ENDBRANCH   1  13
TORSDOF 4
ENDMDL
MODEL 5
REMARK VINA RESULT:      -5.9      1.761      2.240
REMARK  Name = 
REMARK  6 active torsions:
REMARK  status: ('A' for Active; 'I' for Inactive)
REMARK    1  A    between atoms: C_1  and  C_2
REMARK    2  A    between atoms: C_2  and  C_3
REMARK    3  A    between atoms: C_2  and  N_5
REMARK    4  A    between atoms: C_3  and  N_4
REMARK    5  A    between atoms: N_5  and  C_6
REMARK    6  A    between atoms: C_7  and  C_9
REMARK                            x       y       z     vdW  Elec       q    Type
REMARK                         _______ _______ _______ _____ _____    ______ ____
ROOT
ATOM      1  N   UNL     1       5.597   5.906  18.140  0.00  0.00    +0.000 N 
ATOM      2  C   UNL     1       6.144   5.135  19.253  0.00  0.00    +0.000 C 
ATOM      3  C   UNL     1       4.223   6.057  17.872  0.00  0.00    +0.000 C 
ATOM      4  O   UNL     1       3.829   6.661  16.870  0.00  0.00    +0.000 OA
ENDROOT
BRANCH   3   5
ATOM      5  C   UNL     1       3.187   5.512  18.801  0.00  0.00    +0.000 A 
ATOM      6  C   UNL     1       2.585   6.368  19.741  0.00  0.00    +0.000 A 
ATOM      7  C   UNL     1       1.634   5.889  20.643  0.00  0.00    +0.000 A 
ATOM      8  C   UNL     1       1.207   4.568  20.572  0.00  0.00    +0.000 A 
ATOM      9  C   UNL     1       1.736   3.725  19.596  0.00  0.00    +0.000 A 
ATOM     10  C   UNL     1       2.733   4.182  18.721  0.00  0.00    +0.000 A 
ATOM     11 BR   UNL     1       3.422   2.892  17.502  0.00  0.00    +0.000 Br
ENDBRANCH   3   5
BRANCH   1  13
ATOM     12  C   UNL     1       7.638   7.327  17.666  0.00  0.00    +0.000 C 
ATOM     13  C   UNL     1       6.540   6.411  17.108  0.00  0.00    +0.000 C 
BRANCH  13  14
ATOM     14  C   UNL     1       7.140   5.219  16.306  0.00  0.00    +0.000 C 
BRANCH  14  15
ATOM     15  N   UNL     1       7.543   5.561  14.945  0.00  0.00    +0.000 NA
ATOM     16  H   UNL     1       6.849   6.200  14.548  0.00  0.00    +0.000 HD
ATOM     17  H   UNL     1       7.499   4.721  14.366  0.00  0.00    +0.000 HD
ENDBRANCH  14  15
ENDBRANCH  13  14
ENDBRANCH   1  13
TORSDOF 4
ENDMDL
MODEL 6
REMARK VINA RESULT:      -5.8      2.330      5.473
REMARK  Name = 
REMARK  6 active torsions:
REMARK  status: ('A' for Active; 'I' for Inactive)
REMARK    1  A    between atoms: C_1  and  C_2
REMARK    2  A    between atoms: C_2  and  C_3
REMARK    3  A    between atoms: C_2  and  N_5
REMARK    4  A    between atoms: C_3  and  N_4
REMARK    5  A    between atoms: N_5  and  C_6
REMARK    6  A    between atoms: C_7  and  C_9
REMARK                            x       y       z     vdW  Elec       q    Type
REMARK                         _______ _______ _______ _____ _____    ______ ____
ROOT
ATOM      1  N   UNL     1       3.152   4.544  18.722  0.00  0.00    +0.000 N 
ATOM      2  C   UNL     1       2.709   5.724  17.986  0.00  0.00    +0.000 C 
ATOM      3  C   UNL     1       4.285   3.776  18.394  0.00  0.00    +0.000 C 
ATOM      4  O   UNL     1       4.562   2.745  19.013  0.00  0.00    +0.000 OA
ENDROOT
BRANCH   3   5
ATOM      5  C   UNL     1       5.211   4.191  17.297  0.00  0.00    +0.000 A 
ATOM      6  C   UNL     1       4.897   3.860  15.966  0.00  0.00    +0.000 A 
ATOM      7  C   UNL     1       5.751   4.205  14.918  0.00  0.00    +0.000 A 
ATOM      8  C   UNL     1       6.894   4.957  15.168  0.00  0.00    +0.000 A 
ATOM      9  C   UNL     1       7.181   5.361  16.470  0.00  0.00    +0.000 A 
ATOM     10  C   UNL     1       6.358   4.970  17.537  0.00  0.00    +0.000 A 
ATOM     11 BR   UNL     1       6.928   5.523  19.268  0.00  0.00    +0.000 Br
ENDBRANCH   3   5
BRANCH   1  13
ATOM     12  C   UNL     1       1.675   5.061  20.712  0.00  0.00    +0.000 C 
ATOM     13  C   UNL     1       2.253   3.995  19.772  0.00  0.00    +0.000 C 
BRANCH  13  14
ATOM     14  C   UNL     1       1.131   3.137  19.118  0.00  0.00    +0.000 C 
BRANCH  14  15
ATOM     15  N   UNL     1       1.537   1.772  18.796  0.00  0.00    +0.000 NA
ATOM     16  H   UNL     1       0.897   1.122  19.258  0.00  0.00    +0.000 HD
ATOM     17  H   UNL     1       2.452   1.592  19.213  0.00  0.00    +0.000 HD
ENDBRANCH  14  15
ENDBRANCH  13  14
ENDBRANCH   1  13
TORSDOF 4
ENDMDL
MODEL 7
REMARK VINA RESULT:      -5.8      2.606      5.488
REMARK  Name = 
REMARK  6 active torsions:
REMARK  status: ('A' for Active; 'I' for Inactive)
REMARK    1  A    between atoms: C_1  and  C_2
REMARK    2  A    between atoms: C_2  and  C_3
REMARK    3  A    between atoms: C_2  and  N_5
REMARK    4  A    between atoms: C_3  and  N_4
REMARK    5  A    between atoms: N_5  and  C_6
REMARK    6  A    between atoms: C_7  and  C_9
REMARK                            x       y       z     vdW  Elec       q    Type
REMARK                         _______ _______ _______ _____ _____    ______ ____
ROOT
ATOM      1  N   UNL     1       3.471   3.667  19.256  0.00  0.00    +0.000 N 
ATOM      2  C   UNL     1       3.894   2.293  19.002  0.00  0.00    +0.000 C 
ATOM      3  C   UNL     1       4.009   4.800  18.616  0.00  0.00    +0.000 C 
ATOM      4  O   UNL     1       3.660   5.941  18.932  0.00  0.00    +0.000 OA
ENDROOT
BRANCH   3   5
ATOM      5  C   UNL     1       5.010   4.666  17.515  0.00  0.00    +0.000 A 
ATOM      6  C   UNL     1       4.574   4.313  16.225  0.00  0.00    +0.000 A 
ATOM      7  C   UNL     1       5.482   4.151  15.177  0.00  0.00    +0.000 A 
ATOM      8  C   UNL     1       6.832   4.417  15.377  0.00  0.00    +0.000 A 
ATOM      9  C   UNL     1       7.272   4.843  16.629  0.00  0.00    +0.000 A 
ATOM     10  C   UNL     1       6.375   4.954  17.702  0.00  0.00    +0.000 A 
ATOM     11 BR   UNL     1       7.138   5.460  19.371  0.00  0.00    +0.000 Br
ENDBRANCH   3   5
BRANCH   1  13
ATOM     12  C   UNL     1       1.078   4.062  19.982  0.00  0.00    +0.000 C 
ATOM     13  C   UNL     1       2.549   3.916  20.395  0.00  0.00    +0.000 C 
BRANCH  13  14
ATOM     14  C   UNL     1       2.734   2.817  21.481  0.00  0.00    +0.000 C 
BRANCH  14  15
ATOM     15  N   UNL     1       1.498   2.434  22.158  0.00  0.00    +0.000 NA
ATOM     16  H   UNL     1       0.866   2.015  21.473  0.00  0.00    +0.000 HD
ATOM     17  H   UNL     1       1.024   3.279  22.483  0.00  0.00    +0.000 HD
ENDBRANCH  14  15
ENDBRANCH  13  14
ENDBRANCH   1  13
TORSDOF 4
ENDMDL
MODEL 8
REMARK VINA RESULT:      -5.8      0.993      1.369
REMARK  Name = 
REMARK  6 active torsions:
REMARK  status: ('A' for Active; 'I' for Inactive)
REMARK    1  A    between atoms: C_1  and  C_2
REMARK    2  A    between atoms: C_2  and  C_3
REMARK    3  A    between atoms: C_2  and  N_5
REMARK    4  A    between atoms: C_3  and  N_4
REMARK    5  A    between atoms: N_5  and  C_6
REMARK    6  A    between atoms: C_7  and  C_9
REMARK                            x       y       z     vdW  Elec       q    Type
REMARK                         _______ _______ _______ _____ _____    ______ ____
ROOT
ATOM      1  N   UNL     1       5.177   5.682  17.743  0.00  0.00    +0.000 N 
ATOM      2  C   UNL     1       4.156   6.526  17.130  0.00  0.00    +0.000 C 
ATOM      3  C   UNL     1       4.947   4.801  18.816  0.00  0.00    +0.000 C 
ATOM      4  O   UNL     1       5.871   4.170  19.338  0.00  0.00    +0.000 OA
ENDROOT
BRANCH   3   5
ATOM      5  C   UNL     1       3.570   4.576  19.354  0.00  0.00    +0.000 A 
ATOM      6  C   UNL     1       2.977   5.561  20.165  0.00  0.00    +0.000 A 
ATOM      7  C   UNL     1       1.705   5.375  20.708  0.00  0.00    +0.000 A 
ATOM      8  C   UNL     1       0.969   4.240  20.387  0.00  0.00    +0.000 A 
ATOM      9  C   UNL     1       1.509   3.290  19.522  0.00  0.00    +0.000 A 
ATOM     10  C   UNL     1       2.809   3.442  19.017  0.00  0.00    +0.000 A 
ATOM     11 BR   UNL     1       3.443   2.019  17.921  0.00  0.00    +0.000 Br
ENDBRANCH   3   5
BRANCH   1  13
ATOM     12  C   UNL     1       7.464   6.507  18.449  0.00  0.00    +0.000 C 
ATOM     13  C   UNL     1       6.593   5.895  17.344  0.00  0.00    +0.000 C 
BRANCH  13  14
ATOM     14  C   UNL     1       7.200   4.568  16.803  0.00  0.00    +0.000 C 
BRANCH  14  15
ATOM     15  N   UNL     1       8.275   4.025  17.629  0.00  0.00    +0.000 NA
ATOM     16  H   UNL     1       8.954   3.563  17.020  0.00  0.00    +0.000 HD
ATOM     17  H   UNL     1       7.896   3.285  18.221  0.00  0.00    +0.000 HD
ENDBRANCH  14  15
ENDBRANCH  13  14
ENDBRANCH   1  13
TORSDOF 4
ENDMDL
MODEL 9
REMARK VINA RESULT:      -5.7      1.715      2.025
REMARK  Name = 
REMARK  6 active torsions:
REMARK  status: ('A' for Active; 'I' for Inactive)
REMARK    1  A    between atoms: C_1  and  C_2
REMARK    2  A    between atoms: C_2  and  C_3
REMARK    3  A    between atoms: C_2  and  N_5
REMARK    4  A    between atoms: C_3  and  N_4
REMARK    5  A    between atoms: N_5  and  C_6
REMARK    6  A    between atoms: C_7  and  C_9
REMARK                            x       y       z     vdW  Elec       q    Type
REMARK                         _______ _______ _______ _____ _____    ______ ____
ROOT
ATOM      1  N   UNL     1       5.080   4.379  17.560  0.00  0.00    +0.000 N 
ATOM      2  C   UNL     1       3.981   3.934  16.710  0.00  0.00    +0.000 C 
ATOM      3  C   UNL     1       4.989   4.565  18.953  0.00  0.00    +0.000 C 
ATOM      4  O   UNL     1       5.937   5.015  19.603  0.00  0.00    +0.000 OA
ENDROOT
BRANCH   3   5
ATOM      5  C   UNL     1       3.748   4.204  19.703  0.00  0.00    +0.000 A 
ATOM      6  C   UNL     1       3.669   2.956  20.347  0.00  0.00    +0.000 A 
ATOM      7  C   UNL     1       2.516   2.573  21.034  0.00  0.00    +0.000 A 
ATOM      8  C   UNL     1       1.452   3.458  21.159  0.00  0.00    +0.000 A 
ATOM      9  C   UNL     1       1.542   4.729  20.594  0.00  0.00    +0.000 A 
ATOM     10  C   UNL     1       2.674   5.102  19.854  0.00  0.00    +0.000 A 
ATOM     11 BR   UNL     1       2.616   6.835  19.068  0.00  0.00    +0.000 Br
ENDBRANCH   3   5
BRANCH   1  13
ATOM     12  C   UNL     1       6.682   4.082  15.622  0.00  0.00    +0.000 C 
ATOM     13  C   UNL     1       6.327   4.850  16.903  0.00  0.00    +0.000 C 
BRANCH  13  14
ATOM     14  C   UNL     1       6.250   6.384  16.650  0.00  0.00    +0.000 C 
BRANCH  14  15
ATOM     15  N   UNL     1       7.312   7.148  17.297  0.00  0.00    +0.000 NA
ATOM     16  H   UNL     1       7.042   7.328  18.267  0.00  0.00    +0.000 HD
ATOM     17  H   UNL     1       7.372   8.069  16.858  0.00  0.00    +0.000 HD
ENDBRANCH  14  15
ENDBRANCH  13  14
ENDBRANCH   1  13
TORSDOF 4
ENDMDL
