MODEL 1
REMARK VINA RESULT:      -7.8      0.000      0.000
REMARK  Name = 
REMARK  6 active torsions:
REMARK  status: ('A' for Active; 'I' for Inactive)
REMARK    1  A    between atoms: C_1  and  O_2
REMARK    2  A    between atoms: O_2  and  C_3
REMARK    3  A    between atoms: C_6  and  C_7
REMARK    4  A    between atoms: N_9  and  N_10
REMARK    5  A    between atoms: C_16  and  C_17
REMARK    6  A    between atoms: C_25  and  O_26
REMARK                            x       y       z     vdW  Elec       q    Type
REMARK                         _______ _______ _______ _____ _____    ______ ____
ROOT
ATOM      1  N   UNL     1       2.250   6.862  19.715  0.00  0.00    +0.000 N 
ATOM      2  C   UNL     1       1.752   6.105  20.761  0.00  0.00    +0.000 A 
ATOM      3  N   UNL     1       2.034   4.863  20.980  0.00  0.00    +0.000 NA
ATOM      4  C   UNL     1       2.886   4.316  20.074  0.00  0.00    +0.000 A 
ATOM      5  S   UNL     1       3.294   2.665  20.193  0.00  0.00    +0.000 S 
ATOM      6  C   UNL     1       4.311   2.764  18.827  0.00  0.00    +0.000 A 
ATOM      7  C   UNL     1       4.378   4.039  18.298  0.00  0.00    +0.000 A 
ATOM      8  C   UNL     1       3.493   4.942  18.993  0.00  0.00    +0.000 A 
ATOM      9  C   UNL     1       3.122   6.338  18.751  0.00  0.00    +0.000 A 
ATOM     10  O   UNL     1       3.509   7.011  17.793  0.00  0.00    +0.000 OA
ENDROOT
BRANCH   7  11
ATOM     11  C   UNL     1       5.308   4.336  17.149  0.00  0.00    +0.000 A 
ATOM     12  C   UNL     1       4.958   4.310  15.816  0.00  0.00    +0.000 A 
ATOM     13  C   UNL     1       6.051   4.627  14.954  0.00  0.00    +0.000 A 
ATOM     14  C   UNL     1       7.200   4.900  15.658  0.00  0.00    +0.000 A 
ATOM     15  S   UNL     1       6.941   4.828  17.346  0.00  0.00    +0.000 S 
ENDBRANCH   7  11
BRANCH   1  18
ATOM     16  C   UNL     1       1.330   8.859  20.694  0.00  0.00    +0.000 C 
ATOM     17  O   UNL     1       1.430   8.407  21.832  0.00  0.00    +0.000 OA
ATOM     18  N   UNL     1       1.819   8.202  19.583  0.00  0.00    +0.000 N 
ATOM     19  H   UNL     1       1.675   8.552  18.638  0.00  0.00    +0.000 HD
BRANCH  16  23
ATOM     20  C   UNL     1      -0.453  12.707  19.933  0.00  0.00    +0.000 A 
ATOM     21  C   UNL     1       0.071  11.924  18.904  0.00  0.00    +0.000 A 
ATOM     22  C   UNL     1       0.630  10.673  19.177  0.00  0.00    +0.000 A 
ATOM     23  C   UNL     1       0.674  10.182  20.489  0.00  0.00    +0.000 A 
ATOM     24  C   UNL     1       0.138  10.967  21.514  0.00  0.00    +0.000 A 
ATOM     25  C   UNL     1      -0.432  12.218  21.243  0.00  0.00    +0.000 A 
BRANCH  20  27
ATOM     26  C   UNL     1      -0.072  14.753  18.777  0.00  0.00    +0.000 C 
ATOM     27  O   UNL     1      -0.944  13.913  19.519  0.00  0.00    +0.000 OA
ENDBRANCH  20  27
BRANCH  24  28
ATOM     28  O   UNL     1       0.157  10.556  22.822  0.00  0.00    +0.000 OA
ATOM     29  H   UNL     1      -0.742  10.226  23.023  0.00  0.00    +0.000 HD
ENDBRANCH  24  28
ENDBRANCH  16  23
ENDBRANCH   1  18
TORSDOF 5
ENDMDL
MODEL 2
REMARK VINA RESULT:      -7.7      0.885      1.366
REMARK  Name = 
REMARK  6 active torsions:
REMARK  status: ('A' for Active; 'I' for Inactive)
REMARK    1  A    between atoms: C_1  and  O_2
REMARK    2  A    between atoms: O_2  and  C_3
REMARK    3  A    between atoms: C_6  and  C_7
REMARK    4  A    between atoms: N_9  and  N_10
REMARK    5  A    between atoms: C_16  and  C_17
REMARK    6  A    between atoms: C_25  and  O_26
REMARK                            x       y       z     vdW  Elec       q    Type
REMARK                         _______ _______ _______ _____ _____    ______ ____
ROOT
ATOM      1  N   UNL     1       2.255   6.954  19.589  0.00  0.00    +0.000 N 
ATOM      2  C   UNL     1       1.688   6.231  20.623  0.00  0.00    +0.000 A 
ATOM      3  N   UNL     1       1.907   4.981  20.863  0.00  0.00    +0.000 NA
ATOM      4  C   UNL     1       2.766   4.387  19.993  0.00  0.00    +0.000 A 
ATOM      5  S   UNL     1       3.096   2.721  20.140  0.00  0.00    +0.000 S 
ATOM      6  C   UNL     1       4.163   2.761  18.811  0.00  0.00    +0.000 A 
ATOM      7  C   UNL     1       4.306   4.027  18.274  0.00  0.00    +0.000 A 
ATOM      8  C   UNL     1       3.438   4.974  18.929  0.00  0.00    +0.000 A 
ATOM      9  C   UNL     1       3.137   6.383  18.661  0.00  0.00    +0.000 A 
ATOM     10  O   UNL     1       3.587   7.028  17.712  0.00  0.00    +0.000 OA
ENDROOT
BRANCH   7  11
ATOM     11  C   UNL     1       5.287   4.270  17.156  0.00  0.00    +0.000 A 
ATOM     12  C   UNL     1       4.993   4.208  15.811  0.00  0.00    +0.000 A 
ATOM     13  C   UNL     1       6.126   4.477  14.986  0.00  0.00    +0.000 A 
ATOM     14  C   UNL     1       7.250   4.753  15.729  0.00  0.00    +0.000 A 
ATOM     15  S   UNL     1       6.920   4.741  17.406  0.00  0.00    +0.000 S 
ENDBRANCH   7  11
BRANCH   1  18
ATOM     16  C   UNL     1       1.155   8.925  20.424  0.00  0.00    +0.000 C 
ATOM     17  O   UNL     1       0.968   8.416  21.526  0.00  0.00    +0.000 OA
ATOM     18  N   UNL     1       1.889   8.311  19.430  0.00  0.00    +0.000 N 
ATOM     19  H   UNL     1       1.985   8.711  18.499  0.00  0.00    +0.000 HD
BRANCH  16  23
ATOM     20  C   UNL     1      -0.546  12.833  19.792  0.00  0.00    +0.000 A 
ATOM     21  C   UNL     1      -0.132  12.408  21.054  0.00  0.00    +0.000 A 
ATOM     22  C   UNL     1       0.431  11.142  21.228  0.00  0.00    +0.000 A 
ATOM     23  C   UNL     1       0.588  10.275  20.138  0.00  0.00    +0.000 A 
ATOM     24  C   UNL     1       0.180  10.710  18.874  0.00  0.00    +0.000 A 
ATOM     25  C   UNL     1      -0.376  11.984  18.694  0.00  0.00    +0.000 A 
BRANCH  20  27
ATOM     26  C   UNL     1      -0.330  15.128  19.198  0.00  0.00    +0.000 C 
ATOM     27  O   UNL     1      -1.097  14.084  19.779  0.00  0.00    +0.000 OA
ENDBRANCH  20  27
BRANCH  24  28
ATOM     28  O   UNL     1       0.293   9.912  17.766  0.00  0.00    +0.000 OA
ATOM     29  H   UNL     1      -0.618   9.673  17.501  0.00  0.00    +0.000 HD
ENDBRANCH  24  28
ENDBRANCH  16  23
ENDBRANCH   1  18
TORSDOF 5
ENDMDL
MODEL 3
REMARK VINA RESULT:      -7.6      3.170      8.361
REMARK  Name = 
REMARK  6 active torsions:
REMARK  status: ('A' for Active; 'I' for Inactive)
REMARK    1  A    between atoms: C_1  and  O_2
REMARK    2  A    between atoms: O_2  and  C_3
REMARK    3  A    between atoms: C_6  and  C_7
REMARK    4  A    between atoms: N_9  and  N_10
REMARK    5  A    between atoms: C_16  and  C_17
REMARK    6  A    between atoms: C_25  and  O_26
REMARK                            x       y       z     vdW  Elec       q    Type
REMARK                         _______ _______ _______ _____ _____    ______ ____
ROOT
ATOM      1  N   UNL     1       2.080   7.416  19.266  0.00  0.00    +0.000 N 
ATOM      2  C   UNL     1       1.745   6.659  20.375  0.00  0.00    +0.000 A 
ATOM      3  N   UNL     1       1.115   7.100  21.413  0.00  0.00    +0.000 NA
ATOM      4  C   UNL     1       0.790   8.418  21.351  0.00  0.00    +0.000 A 
ATOM      5  S   UNL     1       0.019   9.159  22.678  0.00  0.00    +0.000 S 
ATOM      6  C   UNL     1      -0.043  10.661  21.873  0.00  0.00    +0.000 A 
ATOM      7  C   UNL     1       0.479  10.606  20.594  0.00  0.00    +0.000 A 
ATOM      8  C   UNL     1       1.025   9.302  20.306  0.00  0.00    +0.000 A 
ATOM      9  C   UNL     1       1.776   8.780  19.161  0.00  0.00    +0.000 A 
ATOM     10  O   UNL     1       2.134   9.452  18.192  0.00  0.00    +0.000 OA
ENDROOT
BRANCH   7  11
ATOM     11  C   UNL     1       0.415  11.815  19.696  0.00  0.00    +0.000 A 
ATOM     12  C   UNL     1       1.460  12.682  19.453  0.00  0.00    +0.000 A 
ATOM     13  C   UNL     1       1.102  13.741  18.567  0.00  0.00    +0.000 A 
ATOM     14  C   UNL     1      -0.204  13.643  18.147  0.00  0.00    +0.000 A 
ATOM     15  S   UNL     1      -0.969  12.250  18.777  0.00  0.00    +0.000 S 
ENDBRANCH   7  11
BRANCH   1  18
ATOM     16  C   UNL     1       3.922   6.051  18.533  0.00  0.00    +0.000 C 
ATOM     17  O   UNL     1       4.207   5.729  19.683  0.00  0.00    +0.000 OA
ATOM     18  N   UNL     1       2.806   6.801  18.220  0.00  0.00    +0.000 N 
ATOM     19  H   UNL     1       2.612   7.117  17.273  0.00  0.00    +0.000 HD
BRANCH  16  23
ATOM     20  C   UNL     1       6.325   4.852  15.163  0.00  0.00    +0.000 A 
ATOM     21  C   UNL     1       5.523   5.992  15.124  0.00  0.00    +0.000 A 
ATOM     22  C   UNL     1       4.765   6.366  16.236  0.00  0.00    +0.000 A 
ATOM     23  C   UNL     1       4.797   5.604  17.411  0.00  0.00    +0.000 A 
ATOM     24  C   UNL     1       5.611   4.468  17.448  0.00  0.00    +0.000 A 
ATOM     25  C   UNL     1       6.380   4.094  16.337  0.00  0.00    +0.000 A 
BRANCH  20  27
ATOM     26  C   UNL     1       6.355   3.742  13.057  0.00  0.00    +0.000 C 
ATOM     27  O   UNL     1       6.990   4.598  13.996  0.00  0.00    +0.000 OA
ENDBRANCH  20  27
BRANCH  24  28
ATOM     28  O   UNL     1       5.684   3.669  18.559  0.00  0.00    +0.000 OA
ATOM     29  H   UNL     1       6.266   2.918  18.324  0.00  0.00    +0.000 HD
ENDBRANCH  24  28
ENDBRANCH  16  23
ENDBRANCH   1  18
TORSDOF 5
ENDMDL
MODEL 4
REMARK VINA RESULT:      -7.5      4.168      8.877
REMARK  Name = 
REMARK  6 active torsions:
REMARK  status: ('A' for Active; 'I' for Inactive)
REMARK    1  A    between atoms: C_1  and  O_2
REMARK    2  A    between atoms: O_2  and  C_3
REMARK    3  A    between atoms: C_6  and  C_7
REMARK    4  A    between atoms: N_9  and  N_10
REMARK    5  A    between atoms: C_16  and  C_17
REMARK    6  A    between atoms: C_25  and  O_26
REMARK                            x       y       z     vdW  Elec       q    Type
REMARK                         _______ _______ _______ _____ _____    ______ ____
ROOT
ATOM      1  N   UNL     1       0.707  10.004  19.831  0.00  0.00    +0.000 N 
ATOM      2  C   UNL     1       1.217  10.603  20.971  0.00  0.00    +0.000 A 
ATOM      3  N   UNL     1       0.657  11.573  21.614  0.00  0.00    +0.000 NA
ATOM      4  C   UNL     1      -0.517  11.996  21.076  0.00  0.00    +0.000 A 
ATOM      5  S   UNL     1      -1.335  13.318  21.776  0.00  0.00    +0.000 S 
ATOM      6  C   UNL     1      -2.593  13.214  20.630  0.00  0.00    +0.000 A 
ATOM      7  C   UNL     1      -2.426  12.168  19.741  0.00  0.00    +0.000 A 
ATOM      8  C   UNL     1      -1.174  11.487  19.964  0.00  0.00    +0.000 A 
ATOM      9  C   UNL     1      -0.493  10.414  19.235  0.00  0.00    +0.000 A 
ATOM     10  O   UNL     1      -0.902   9.908  18.188  0.00  0.00    +0.000 OA
ENDROOT
BRANCH   7  11
ATOM     11  C   UNL     1      -3.492  11.861  18.721  0.00  0.00    +0.000 A 
ATOM     12  C   UNL     1      -3.259  11.490  17.414  0.00  0.00    +0.000 A 
ATOM     13  C   UNL     1      -4.463  11.272  16.680  0.00  0.00    +0.000 A 
ATOM     14  C   UNL     1      -5.582  11.469  17.456  0.00  0.00    +0.000 A 
ATOM     15  S   UNL     1      -5.173  11.858  19.069  0.00  0.00    +0.000 S 
ENDBRANCH   7  11
BRANCH   1  18
ATOM     16  C   UNL     1       1.698   7.812  19.917  0.00  0.00    +0.000 C 
ATOM     17  O   UNL     1       1.136   7.545  20.976  0.00  0.00    +0.000 OA
ATOM     18  N   UNL     1       1.455   8.975  19.214  0.00  0.00    +0.000 N 
ATOM     19  H   UNL     1       1.971   9.219  18.372  0.00  0.00    +0.000 HD
BRANCH  16  23
ATOM     20  C   UNL     1       4.468   5.078  18.069  0.00  0.00    +0.000 A 
ATOM     21  C   UNL     1       4.136   6.297  17.479  0.00  0.00    +0.000 A 
ATOM     22  C   UNL     1       3.246   7.172  18.107  0.00  0.00    +0.000 A 
ATOM     23  C   UNL     1       2.671   6.840  19.341  0.00  0.00    +0.000 A 
ATOM     24  C   UNL     1       3.016   5.622  19.933  0.00  0.00    +0.000 A 
ATOM     25  C   UNL     1       3.915   4.746  19.310  0.00  0.00    +0.000 A 
BRANCH  20  27
ATOM     26  C   UNL     1       6.678   4.758  17.243  0.00  0.00    +0.000 C 
ATOM     27  O   UNL     1       5.330   4.318  17.329  0.00  0.00    +0.000 OA
ENDBRANCH  20  27
BRANCH  24  28
ATOM     28  O   UNL     1       2.484   5.227  21.133  0.00  0.00    +0.000 OA
ATOM     29  H   UNL     1       3.146   4.638  21.549  0.00  0.00    +0.000 HD
ENDBRANCH  24  28
ENDBRANCH  16  23
ENDBRANCH   1  18
TORSDOF 5
ENDMDL
MODEL 5
REMARK VINA RESULT:      -7.5      2.527      4.517
REMARK  Name = 
REMARK  6 active torsions:
REMARK  status: ('A' for Active; 'I' for Inactive)
REMARK    1  A    between atoms: C_1  and  O_2
REMARK    2  A    between atoms: O_2  and  C_3
REMARK    3  A    between atoms: C_6  and  C_7
REMARK    4  A    between atoms: N_9  and  N_10
REMARK    5  A    between atoms: C_16  and  C_17
REMARK    6  A    between atoms: C_25  and  O_26
REMARK                            x       y       z     vdW  Elec       q    Type
REMARK                         _______ _______ _______ _____ _____    ______ ____
ROOT
ATOM      1  N   UNL     1       1.437   9.268  19.531  0.00  0.00    +0.000 N 
ATOM      2  C   UNL     1       2.024   9.804  18.397  0.00  0.00    +0.000 A 
ATOM      3  N   UNL     1       2.759   9.149  17.561  0.00  0.00    +0.000 NA
ATOM      4  C   UNL     1       2.935   7.839  17.878  0.00  0.00    +0.000 A 
ATOM      5  S   UNL     1       3.940   6.865  16.905  0.00  0.00    +0.000 S 
ATOM      6  C   UNL     1       3.648   5.497  17.881  0.00  0.00    +0.000 A 
ATOM      7  C   UNL     1       2.769   5.754  18.917  0.00  0.00    +0.000 A 
ATOM      8  C   UNL     1       2.395   7.146  18.954  0.00  0.00    +0.000 A 
ATOM      9  C   UNL     1       1.599   7.927  19.904  0.00  0.00    +0.000 A 
ATOM     10  O   UNL     1       1.117   7.482  20.947  0.00  0.00    +0.000 OA
ENDROOT
BRANCH   7  11
ATOM     11  C   UNL     1       2.316   4.636  19.821  0.00  0.00    +0.000 A 
ATOM     12  C   UNL     1       2.654   4.502  21.151  0.00  0.00    +0.000 A 
ATOM     13  C   UNL     1       2.083   3.339  21.749  0.00  0.00    +0.000 A 
ATOM     14  C   UNL     1       1.312   2.628  20.860  0.00  0.00    +0.000 A 
ATOM     15  S   UNL     1       1.236   3.393  19.334  0.00  0.00    +0.000 S 
ENDBRANCH   7  11
BRANCH   1  18
ATOM     16  C   UNL     1      -0.569  10.523  19.971  0.00  0.00    +0.000 C 
ATOM     17  O   UNL     1      -1.152  10.025  19.011  0.00  0.00    +0.000 OA
ATOM     18  N   UNL     1       0.689  10.121  20.374  0.00  0.00    +0.000 N 
ATOM     19  H   UNL     1       1.190  10.582  21.130  0.00  0.00    +0.000 HD
BRANCH  16  23
ATOM     20  C   UNL     1      -2.505  13.500  22.412  0.00  0.00    +0.000 A 
ATOM     21  C   UNL     1      -1.630  12.560  22.956  0.00  0.00    +0.000 A 
ATOM     22  C   UNL     1      -1.004  11.616  22.140  0.00  0.00    +0.000 A 
ATOM     23  C   UNL     1      -1.244  11.595  20.759  0.00  0.00    +0.000 A 
ATOM     24  C   UNL     1      -2.114  12.545  20.218  0.00  0.00    +0.000 A 
ATOM     25  C   UNL     1      -2.737  13.500  21.033  0.00  0.00    +0.000 A 
BRANCH  20  27
ATOM     26  C   UNL     1      -3.803  13.756  24.391  0.00  0.00    +0.000 C 
ATOM     27  O   UNL     1      -3.059  14.344  23.333  0.00  0.00    +0.000 OA
ENDBRANCH  20  27
BRANCH  24  28
ATOM     28  O   UNL     1      -2.404  12.577  18.879  0.00  0.00    +0.000 OA
ATOM     29  H   UNL     1      -2.105  13.449  18.550  0.00  0.00    +0.000 HD
ENDBRANCH  24  28
ENDBRANCH  16  23
ENDBRANCH   1  18
TORSDOF 5
ENDMDL
MODEL 6
REMARK VINA RESULT:      -7.4      1.140      1.369
REMARK  Name = 
REMARK  6 active torsions:
REMARK  status: ('A' for Active; 'I' for Inactive)
REMARK    1  A    between atoms: C_1  and  O_2
REMARK    2  A    between atoms: O_2  and  C_3
REMARK    3  A    between atoms: C_6  and  C_7
REMARK    4  A    between atoms: N_9  and  N_10
REMARK    5  A    between atoms: C_16  and  C_17
REMARK    6  A    between atoms: C_25  and  O_26
REMARK                            x       y       z     vdW  Elec       q    Type
REMARK                         _______ _______ _______ _____ _____    ______ ____
ROOT
ATOM      1  N   UNL     1       1.839   6.589  20.077  0.00  0.00    +0.000 N 
ATOM      2  C   UNL     1       1.371   5.669  20.999  0.00  0.00    +0.000 A 
ATOM      3  N   UNL     1       1.837   4.474  21.158  0.00  0.00    +0.000 NA
ATOM      4  C   UNL     1       2.859   4.157  20.321  0.00  0.00    +0.000 A 
ATOM      5  S   UNL     1       3.528   2.590  20.365  0.00  0.00    +0.000 S 
ATOM      6  C   UNL     1       4.649   2.976  19.139  0.00  0.00    +0.000 A 
ATOM      7  C   UNL     1       4.553   4.289  18.717  0.00  0.00    +0.000 A 
ATOM      8  C   UNL     1       3.460   4.969  19.368  0.00  0.00    +0.000 A 
ATOM      9  C   UNL     1       2.883   6.303  19.186  0.00  0.00    +0.000 A 
ATOM     10  O   UNL     1       3.247   7.115  18.332  0.00  0.00    +0.000 OA
ENDROOT
BRANCH   7  11
ATOM     11  C   UNL     1       5.532   4.836  17.711  0.00  0.00    +0.000 A 
ATOM     12  C   UNL     1       6.457   5.828  17.958  0.00  0.00    +0.000 A 
ATOM     13  C   UNL     1       7.245   6.145  16.812  0.00  0.00    +0.000 A 
ATOM     14  C   UNL     1       6.906   5.374  15.724  0.00  0.00    +0.000 A 
ATOM     15  S   UNL     1       5.686   4.239  16.108  0.00  0.00    +0.000 S 
ENDBRANCH   7  11
BRANCH   1  18
ATOM     16  C   UNL     1       1.159   8.651  21.116  0.00  0.00    +0.000 C 
ATOM     17  O   UNL     1       1.813   8.415  22.128  0.00  0.00    +0.000 OA
ATOM     18  N   UNL     1       1.202   7.848  19.993  0.00  0.00    +0.000 N 
ATOM     19  H   UNL     1       0.609   8.015  19.183  0.00  0.00    +0.000 HD
BRANCH  16  23
ATOM     20  C   UNL     1      -1.264  12.200  20.808  0.00  0.00    +0.000 A 
ATOM     21  C   UNL     1      -0.798  11.529  19.677  0.00  0.00    +0.000 A 
ATOM     22  C   UNL     1      -0.027  10.372  19.806  0.00  0.00    +0.000 A 
ATOM     23  C   UNL     1       0.293   9.864  21.072  0.00  0.00    +0.000 A 
ATOM     24  C   UNL     1      -0.186  10.535  22.201  0.00  0.00    +0.000 A 
ATOM     25  C   UNL     1      -0.967  11.692  22.076  0.00  0.00    +0.000 A 
BRANCH  20  27
ATOM     26  C   UNL     1      -3.400  13.211  20.520  0.00  0.00    +0.000 C 
ATOM     27  O   UNL     1      -1.985  13.328  20.528  0.00  0.00    +0.000 OA
ENDBRANCH  20  27
BRANCH  24  28
ATOM     28  O   UNL     1       0.097  10.103  23.470  0.00  0.00    +0.000 OA
ATOM     29  H   UNL     1      -0.263  10.778  24.081  0.00  0.00    +0.000 HD
ENDBRANCH  24  28
ENDBRANCH  16  23
ENDBRANCH   1  18
TORSDOF 5
ENDMDL
MODEL 7
REMARK VINA RESULT:      -7.4      2.446      4.191
REMARK  Name = 
REMARK  6 active torsions:
REMARK  status: ('A' for Active; 'I' for Inactive)
REMARK    1  A    between atoms: C_1  and  O_2
REMARK    2  A    between atoms: O_2  and  C_3
REMARK    3  A    between atoms: C_6  and  C_7
REMARK    4  A    between atoms: N_9  and  N_10
REMARK    5  A    between atoms: C_16  and  C_17
REMARK    6  A    between atoms: C_25  and  O_26
REMARK                            x       y       z     vdW  Elec       q    Type
REMARK                         _______ _______ _______ _____ _____    ______ ____
ROOT
ATOM      1  N   UNL     1       1.457   9.177  19.648  0.00  0.00    +0.000 N 
ATOM      2  C   UNL     1       1.958   9.744  18.489  0.00  0.00    +0.000 A 
ATOM      3  N   UNL     1       2.673   9.125  17.609  0.00  0.00    +0.000 NA
ATOM      4  C   UNL     1       2.920   7.823  17.905  0.00  0.00    +0.000 A 
ATOM      5  S   UNL     1       3.911   6.897  16.871  0.00  0.00    +0.000 S 
ATOM      6  C   UNL     1       3.730   5.512  17.850  0.00  0.00    +0.000 A 
ATOM      7  C   UNL     1       2.899   5.726  18.934  0.00  0.00    +0.000 A 
ATOM      8  C   UNL     1       2.470   7.101  19.003  0.00  0.00    +0.000 A 
ATOM      9  C   UNL     1       1.695   7.842  20.002  0.00  0.00    +0.000 A 
ATOM     10  O   UNL     1       1.290   7.371  21.066  0.00  0.00    +0.000 OA
ENDROOT
BRANCH   7  11
ATOM     11  C   UNL     1       2.543   4.585  19.853  0.00  0.00    +0.000 A 
ATOM     12  C   UNL     1       1.286   4.336  20.362  0.00  0.00    +0.000 A 
ATOM     13  C   UNL     1       1.253   3.189  21.211  0.00  0.00    +0.000 A 
ATOM     14  C   UNL     1       2.485   2.588  21.312  0.00  0.00    +0.000 A 
ATOM     15  S   UNL     1       3.655   3.372  20.344  0.00  0.00    +0.000 S 
ENDBRANCH   7  11
BRANCH   1  18
ATOM     16  C   UNL     1      -0.529  10.439  20.157  0.00  0.00    +0.000 C 
ATOM     17  O   UNL     1      -1.117  10.007  19.169  0.00  0.00    +0.000 OA
ATOM     18  N   UNL     1       0.721   9.993  20.538  0.00  0.00    +0.000 N 
ATOM     19  H   UNL     1       1.228  10.402  21.320  0.00  0.00    +0.000 HD
BRANCH  16  23
ATOM     20  C   UNL     1      -2.443  13.551  22.440  0.00  0.00    +0.000 A 
ATOM     21  C   UNL     1      -2.631  13.430  21.064  0.00  0.00    +0.000 A 
ATOM     22  C   UNL     1      -2.010  12.402  20.350  0.00  0.00    +0.000 A 
ATOM     23  C   UNL     1      -1.187  11.475  21.004  0.00  0.00    +0.000 A 
ATOM     24  C   UNL     1      -1.012  11.595  22.385  0.00  0.00    +0.000 A 
ATOM     25  C   UNL     1      -1.640  12.619  23.106  0.00  0.00    +0.000 A 
BRANCH  20  27
ATOM     26  C   UNL     1      -4.270  14.342  23.747  0.00  0.00    +0.000 C 
ATOM     27  O   UNL     1      -3.094  14.616  22.999  0.00  0.00    +0.000 OA
ENDBRANCH  20  27
BRANCH  24  28
ATOM     28  O   UNL     1      -0.213  10.732  23.089  0.00  0.00    +0.000 OA
ATOM     29  H   UNL     1       0.546  10.520  22.509  0.00  0.00    +0.000 HD
ENDBRANCH  24  28
ENDBRANCH  16  23
ENDBRANCH   1  18
TORSDOF 5
ENDMDL
MODEL 8
REMARK VINA RESULT:      -7.3      1.236      1.281
REMARK  Name = 
REMARK  6 active torsions:
REMARK  status: ('A' for Active; 'I' for Inactive)
REMARK    1  A    between atoms: C_1  and  O_2
REMARK    2  A    between atoms: O_2  and  C_3
REMARK    3  A    between atoms: C_6  and  C_7
REMARK    4  A    between atoms: N_9  and  N_10
REMARK    5  A    between atoms: C_16  and  C_17
REMARK    6  A    between atoms: C_25  and  O_26
REMARK                            x       y       z     vdW  Elec       q    Type
REMARK                         _______ _______ _______ _____ _____    ______ ____
ROOT
ATOM      1  N   UNL     1       2.118   6.322  20.147  0.00  0.00    +0.000 N 
ATOM      2  C   UNL     1       1.402   5.353  20.828  0.00  0.00    +0.000 A 
ATOM      3  N   UNL     1       1.456   4.085  20.590  0.00  0.00    +0.000 NA
ATOM      4  C   UNL     1       2.295   3.742  19.577  0.00  0.00    +0.000 A 
ATOM      5  S   UNL     1       2.417   2.109  19.101  0.00  0.00    +0.000 S 
ATOM      6  C   UNL     1       3.568   2.490  17.902  0.00  0.00    +0.000 A 
ATOM      7  C   UNL     1       3.894   3.833  17.877  0.00  0.00    +0.000 A 
ATOM      8  C   UNL     1       3.101   4.582  18.821  0.00  0.00    +0.000 A 
ATOM      9  C   UNL     1       2.987   6.018  19.090  0.00  0.00    +0.000 A 
ATOM     10  O   UNL     1       3.572   6.899  18.457  0.00  0.00    +0.000 OA
ENDROOT
BRANCH   7  11
ATOM     11  C   UNL     1       4.970   4.335  16.948  0.00  0.00    +0.000 A 
ATOM     12  C   UNL     1       4.831   4.505  15.587  0.00  0.00    +0.000 A 
ATOM     13  C   UNL     1       6.023   4.987  14.968  0.00  0.00    +0.000 A 
ATOM     14  C   UNL     1       7.033   5.186  15.880  0.00  0.00    +0.000 A 
ATOM     15  S   UNL     1       6.523   4.845  17.475  0.00  0.00    +0.000 S 
ENDBRANCH   7  11
BRANCH   1  18
ATOM     16  C   UNL     1       0.701   8.071  20.998  0.00  0.00    +0.000 C 
ATOM     17  O   UNL     1      -0.167   7.271  21.339  0.00  0.00    +0.000 OA
ATOM     18  N   UNL     1       1.925   7.678  20.497  0.00  0.00    +0.000 N 
ATOM     19  H   UNL     1       2.613   8.347  20.158  0.00  0.00    +0.000 HD
BRANCH  16  23
ATOM     20  C   UNL     1       0.123  12.330  21.308  0.00  0.00    +0.000 A 
ATOM     21  C   UNL     1       0.777  11.755  20.218  0.00  0.00    +0.000 A 
ATOM     22  C   UNL     1       0.937  10.370  20.136  0.00  0.00    +0.000 A 
ATOM     23  C   UNL     1       0.444   9.533  21.146  0.00  0.00    +0.000 A 
ATOM     24  C   UNL     1      -0.219  10.114  22.230  0.00  0.00    +0.000 A 
ATOM     25  C   UNL     1      -0.390  11.503  22.312  0.00  0.00    +0.000 A 
BRANCH  20  27
ATOM     26  C   UNL     1      -0.714  14.345  22.261  0.00  0.00    +0.000 C 
ATOM     27  O   UNL     1       0.061  13.695  21.264  0.00  0.00    +0.000 OA
ENDBRANCH  20  27
BRANCH  24  28
ATOM     28  O   UNL     1      -0.717   9.359  23.260  0.00  0.00    +0.000 OA
ATOM     29  H   UNL     1       0.037   8.848  23.620  0.00  0.00    +0.000 HD
ENDBRANCH  24  28
ENDBRANCH  16  23
ENDBRANCH   1  18
TORSDOF 5
ENDMDL
MODEL 9
REMARK VINA RESULT:      -7.3      1.516      1.684
REMARK  Name = 
REMARK  6 active torsions:
REMARK  status: ('A' for Active; 'I' for Inactive)
REMARK    1  A    between atoms: C_1  and  O_2
REMARK    2  A    between atoms: O_2  and  C_3
REMARK    3  A    between atoms: C_6  and  C_7
REMARK    4  A    between atoms: N_9  and  N_10
REMARK    5  A    between atoms: C_16  and  C_17
REMARK    6  A    between atoms: C_25  and  O_26
REMARK                            x       y       z     vdW  Elec       q    Type
REMARK                         _______ _______ _______ _____ _____    ______ ____
ROOT
ATOM      1  N   UNL     1       2.248   6.636  19.614  0.00  0.00    +0.000 N 
ATOM      2  C   UNL     1       1.465   5.761  20.346  0.00  0.00    +0.000 A 
ATOM      3  N   UNL     1       1.481   4.474  20.230  0.00  0.00    +0.000 NA
ATOM      4  C   UNL     1       2.353   4.008  19.298  0.00  0.00    +0.000 A 
ATOM      5  S   UNL     1       2.434   2.334  18.984  0.00  0.00    +0.000 S 
ATOM      6  C   UNL     1       3.653   2.559  17.813  0.00  0.00    +0.000 A 
ATOM      7  C   UNL     1       4.031   3.882  17.678  0.00  0.00    +0.000 A 
ATOM      8  C   UNL     1       3.225   4.744  18.507  0.00  0.00    +0.000 A 
ATOM      9  C   UNL     1       3.153   6.202  18.634  0.00  0.00    +0.000 A 
ATOM     10  O   UNL     1       3.800   6.999  17.952  0.00  0.00    +0.000 OA
ENDROOT
BRANCH   7  11
ATOM     11  C   UNL     1       5.168   4.257  16.762  0.00  0.00    +0.000 A 
ATOM     12  C   UNL     1       5.100   4.297  15.385  0.00  0.00    +0.000 A 
ATOM     13  C   UNL     1       6.336   4.679  14.784  0.00  0.00    +0.000 A 
ATOM     14  C   UNL     1       7.309   4.933  15.722  0.00  0.00    +0.000 A 
ATOM     15  S   UNL     1       6.712   4.766  17.315  0.00  0.00    +0.000 S 
ENDBRANCH   7  11
BRANCH   1  18
ATOM     16  C   UNL     1       1.520   8.791  18.829  0.00  0.00    +0.000 C 
ATOM     17  O   UNL     1       0.963   8.302  17.849  0.00  0.00    +0.000 OA
ATOM     18  N   UNL     1       2.091   8.025  19.824  0.00  0.00    +0.000 N 
ATOM     19  H   UNL     1       2.605   8.437  20.599  0.00  0.00    +0.000 HD
BRANCH  16  23
ATOM     20  C   UNL     1       1.836  13.076  19.143  0.00  0.00    +0.000 A 
ATOM     21  C   UNL     1       2.404  12.375  18.080  0.00  0.00    +0.000 A 
ATOM     22  C   UNL     1       2.273  10.987  17.994  0.00  0.00    +0.000 A 
ATOM     23  C   UNL     1       1.570  10.274  18.975  0.00  0.00    +0.000 A 
ATOM     24  C   UNL     1       0.995  10.984  20.033  0.00  0.00    +0.000 A 
ATOM     25  C   UNL     1       1.116  12.378  20.117  0.00  0.00    +0.000 A 
BRANCH  20  27
ATOM     26  C   UNL     1       3.021  14.897  18.169  0.00  0.00    +0.000 C 
ATOM     27  O   UNL     1       2.065  14.424  19.107  0.00  0.00    +0.000 OA
ENDBRANCH  20  27
BRANCH  24  28
ATOM     28  O   UNL     1       0.303  10.353  21.034  0.00  0.00    +0.000 OA
ATOM     29  H   UNL     1      -0.644  10.548  20.883  0.00  0.00    +0.000 HD
ENDBRANCH  24  28
ENDBRANCH  16  23
ENDBRANCH   1  18
TORSDOF 5
ENDMDL
