MODEL 1
REMARK VINA RESULT:      -6.9      0.000      0.000
REMARK  Name = 
REMARK  5 active torsions:
REMARK  status: ('A' for Active; 'I' for Inactive)
REMARK    1  A    between atoms: C_1  and  O_2
REMARK    2  A    between atoms: O_2  and  C_3
REMARK    3  A    between atoms: C_9  and  N_10
REMARK    4  A    between atoms: C_11  and  S_12
REMARK    5  A    between atoms: N_13  and  C_14
REMARK                            x       y       z     vdW  Elec       q    Type
REMARK                         _______ _______ _______ _____ _____    ______ ____
ROOT
ATOM      1  N   UNL     1       5.298   5.604  16.683  0.00  0.00    +0.000 NA
ATOM      2  C   UNL     1       6.556   5.920  16.606  0.00  0.00    +0.000 C 
ATOM      3  N   UNL     1       7.395   5.495  15.612  0.00  0.00    +0.000 N 
ATOM      4  H   UNL     1       8.371   5.743  15.712  0.00  0.00    +0.000 HD
ENDROOT
BRANCH   1  11
ATOM      5  C   UNL     1       4.082   5.056  18.728  0.00  0.00    +0.000 A 
ATOM      6  C   UNL     1       3.108   5.375  19.685  0.00  0.00    +0.000 A 
ATOM      7  C   UNL     1       2.415   6.584  19.604  0.00  0.00    +0.000 A 
ATOM      8  C   UNL     1       2.658   7.450  18.547  0.00  0.00    +0.000 A 
ATOM      9 CL   UNL     1       1.793   8.934  18.440  0.00  0.00    +0.000 Cl
ATOM     10  C   UNL     1       3.586   7.122  17.563  0.00  0.00    +0.000 A 
ATOM     11  C   UNL     1       4.360   5.959  17.667  0.00  0.00    +0.000 A 
BRANCH   5  13
ATOM     12  C   UNL     1       4.398   2.866  19.659  0.00  0.00    +0.000 C 
ATOM     13  O   UNL     1       4.817   3.893  18.763  0.00  0.00    +0.000 OA
ENDBRANCH   5  13
ENDBRANCH   1  11
BRANCH   3  14
ATOM     14  C   UNL     1       7.044   4.884  14.403  0.00  0.00    +0.000 A 
ATOM     15  C   UNL     1       6.039   3.927  14.296  0.00  0.00    +0.000 A 
ATOM     16  C   UNL     1       5.754   3.334  13.070  0.00  0.00    +0.000 A 
ATOM     17  C   UNL     1       6.509   3.702  11.971  0.00  0.00    +0.000 A 
ATOM     18  N   UNL     1       7.506   4.609  12.016  0.00  0.00    +0.000 NA
ATOM     19  C   UNL     1       7.751   5.169  13.229  0.00  0.00    +0.000 A 
ENDBRANCH   3  14
BRANCH   2  20
ATOM     20  S   UNL     1       7.461   6.914  17.748  0.00  0.00    +0.000 S 
ATOM     21  H   UNL     1       6.639   6.781  18.790  0.00  0.00    +0.000 HD
ENDBRANCH   2  20
TORSDOF 4
ENDMDL
MODEL 2
REMARK VINA RESULT:      -6.9      3.325      6.622
REMARK  Name = 
REMARK  5 active torsions:
REMARK  status: ('A' for Active; 'I' for Inactive)
REMARK    1  A    between atoms: C_1  and  O_2
REMARK    2  A    between atoms: O_2  and  C_3
REMARK    3  A    between atoms: C_9  and  N_10
REMARK    4  A    between atoms: C_11  and  S_12
REMARK    5  A    between atoms: N_13  and  C_14
REMARK                            x       y       z     vdW  Elec       q    Type
REMARK                         _______ _______ _______ _____ _____    ______ ____
ROOT
ATOM      1  N   UNL     1       4.049   4.722  17.667  0.00  0.00    +0.000 NA
ATOM      2  C   UNL     1       3.312   5.726  18.037  0.00  0.00    +0.000 C 
ATOM      3  N   UNL     1       2.280   5.632  18.930  0.00  0.00    +0.000 N 
ATOM      4  H   UNL     1       1.731   6.470  19.071  0.00  0.00    +0.000 HD
ENDROOT
BRANCH   1  11
ATOM      5  C   UNL     1       6.374   5.230  17.117  0.00  0.00    +0.000 A 
ATOM      6  C   UNL     1       7.422   5.265  16.186  0.00  0.00    +0.000 A 
ATOM      7  C   UNL     1       7.230   4.773  14.894  0.00  0.00    +0.000 A 
ATOM      8  C   UNL     1       5.984   4.292  14.516  0.00  0.00    +0.000 A 
ATOM      9 CL   UNL     1       5.744   3.700  12.918  0.00  0.00    +0.000 Cl
ATOM     10  C   UNL     1       4.921   4.299  15.415  0.00  0.00    +0.000 A 
ATOM     11  C   UNL     1       5.108   4.701  16.744  0.00  0.00    +0.000 A 
BRANCH   5  13
ATOM     12  C   UNL     1       7.818   5.934  18.899  0.00  0.00    +0.000 C 
ATOM     13  O   UNL     1       6.503   5.676  18.412  0.00  0.00    +0.000 OA
ENDBRANCH   5  13
ENDBRANCH   1  11
BRANCH   3  14
ATOM     14  C   UNL     1       1.981   4.559  19.778  0.00  0.00    +0.000 A 
ATOM     15  C   UNL     1       1.135   3.516  19.417  0.00  0.00    +0.000 A 
ATOM     16  C   UNL     1       0.853   2.489  20.314  0.00  0.00    +0.000 A 
ATOM     17  C   UNL     1       1.416   2.549  21.577  0.00  0.00    +0.000 A 
ATOM     18  N   UNL     1       2.227   3.543  21.990  0.00  0.00    +0.000 NA
ATOM     19  C   UNL     1       2.481   4.523  21.085  0.00  0.00    +0.000 A 
ENDBRANCH   3  14
BRANCH   2  20
ATOM     20  S   UNL     1       3.443   7.391  17.469  0.00  0.00    +0.000 S 
ATOM     21  H   UNL     1       4.750   7.387  17.203  0.00  0.00    +0.000 HD
ENDBRANCH   2  20
TORSDOF 4
ENDMDL
MODEL 3
REMARK VINA RESULT:      -6.8      0.716      1.136
REMARK  Name = 
REMARK  5 active torsions:
REMARK  status: ('A' for Active; 'I' for Inactive)
REMARK    1  A    between atoms: C_1  and  O_2
REMARK    2  A    between atoms: O_2  and  C_3
REMARK    3  A    between atoms: C_9  and  N_10
REMARK    4  A    between atoms: C_11  and  S_12
REMARK    5  A    between atoms: N_13  and  C_14
REMARK                            x       y       z     vdW  Elec       q    Type
REMARK                         _______ _______ _______ _____ _____    ______ ____
ROOT
ATOM      1  N   UNL     1       5.367   5.785  16.657  0.00  0.00    +0.000 NA
ATOM      2  C   UNL     1       6.630   6.087  16.596  0.00  0.00    +0.000 C 
ATOM      3  N   UNL     1       7.489   5.606  15.647  0.00  0.00    +0.000 N 
ATOM      4  H   UNL     1       8.464   5.851  15.760  0.00  0.00    +0.000 HD
ENDROOT
BRANCH   1  11
ATOM      5  C   UNL     1       4.177   5.406  18.755  0.00  0.00    +0.000 A 
ATOM      6  C   UNL     1       3.184   5.778  19.673  0.00  0.00    +0.000 A 
ATOM      7  C   UNL     1       2.424   6.928  19.457  0.00  0.00    +0.000 A 
ATOM      8  C   UNL     1       2.622   7.680  18.308  0.00  0.00    +0.000 A 
ATOM      9 CL   UNL     1       1.674   9.091  18.035  0.00  0.00    +0.000 Cl
ATOM     10  C   UNL     1       3.569   7.295  17.364  0.00  0.00    +0.000 A 
ATOM     11  C   UNL     1       4.408   6.197  17.597  0.00  0.00    +0.000 A 
BRANCH   5  13
ATOM     12  C   UNL     1       4.339   3.047  19.165  0.00  0.00    +0.000 C 
ATOM     13  O   UNL     1       4.977   4.298  18.920  0.00  0.00    +0.000 OA
ENDBRANCH   5  13
ENDBRANCH   1  11
BRANCH   3  14
ATOM     14  C   UNL     1       7.163   4.937  14.462  0.00  0.00    +0.000 A 
ATOM     15  C   UNL     1       7.757   5.224  13.237  0.00  0.00    +0.000 A 
ATOM     16  C   UNL     1       7.372   4.542  12.086  0.00  0.00    +0.000 A 
ATOM     17  C   UNL     1       6.369   3.594  12.189  0.00  0.00    +0.000 A 
ATOM     18  N   UNL     1       5.744   3.287  13.344  0.00  0.00    +0.000 NA
ATOM     19  C   UNL     1       6.151   3.969  14.445  0.00  0.00    +0.000 A 
ENDBRANCH   3  14
BRANCH   2  20
ATOM     20  S   UNL     1       7.514   7.130  17.710  0.00  0.00    +0.000 S 
ATOM     21  H   UNL     1       6.738   6.948  18.780  0.00  0.00    +0.000 HD
ENDBRANCH   2  20
TORSDOF 4
ENDMDL
MODEL 4
REMARK VINA RESULT:      -6.8      3.227      6.590
REMARK  Name = 
REMARK  5 active torsions:
REMARK  status: ('A' for Active; 'I' for Inactive)
REMARK    1  A    between atoms: C_1  and  O_2
REMARK    2  A    between atoms: O_2  and  C_3
REMARK    3  A    between atoms: C_9  and  N_10
REMARK    4  A    between atoms: C_11  and  S_12
REMARK    5  A    between atoms: N_13  and  C_14
REMARK                            x       y       z     vdW  Elec       q    Type
REMARK                         _______ _______ _______ _____ _____    ______ ____
ROOT
ATOM      1  N   UNL     1       4.073   4.703  17.567  0.00  0.00    +0.000 NA
ATOM      2  C   UNL     1       3.432   5.766  17.951  0.00  0.00    +0.000 C 
ATOM      3  N   UNL     1       2.415   5.760  18.867  0.00  0.00    +0.000 N 
ATOM      4  H   UNL     1       1.942   6.642  19.017  0.00  0.00    +0.000 HD
ENDROOT
BRANCH   1  11
ATOM      5  C   UNL     1       6.441   4.892  17.003  0.00  0.00    +0.000 A 
ATOM      6  C   UNL     1       7.472   4.837  16.054  0.00  0.00    +0.000 A 
ATOM      7  C   UNL     1       7.192   4.481  14.734  0.00  0.00    +0.000 A 
ATOM      8  C   UNL     1       5.883   4.225  14.351  0.00  0.00    +0.000 A 
ATOM      9 CL   UNL     1       5.537   3.799  12.719  0.00  0.00    +0.000 Cl
ATOM     10  C   UNL     1       4.844   4.325  15.271  0.00  0.00    +0.000 A 
ATOM     11  C   UNL     1       5.105   4.591  16.621  0.00  0.00    +0.000 A 
BRANCH   5  13
ATOM     12  C   UNL     1       7.612   6.225  18.619  0.00  0.00    +0.000 C 
ATOM     13  O   UNL     1       6.652   5.213  18.325  0.00  0.00    +0.000 OA
ENDBRANCH   5  13
ENDBRANCH   1  11
BRANCH   3  14
ATOM     14  C   UNL     1       2.045   4.718  19.724  0.00  0.00    +0.000 A 
ATOM     15  C   UNL     1       2.530   4.589  21.021  0.00  0.00    +0.000 A 
ATOM     16  C   UNL     1       2.146   3.514  21.818  0.00  0.00    +0.000 A 
ATOM     17  C   UNL     1       1.291   2.569  21.278  0.00  0.00    +0.000 A 
ATOM     18  N   UNL     1       0.804   2.631  20.023  0.00  0.00    +0.000 NA
ATOM     19  C   UNL     1       1.197   3.696  19.279  0.00  0.00    +0.000 A 
ENDBRANCH   3  14
BRANCH   2  20
ATOM     20  S   UNL     1       3.689   7.413  17.375  0.00  0.00    +0.000 S 
ATOM     21  H   UNL     1       4.995   7.491  17.638  0.00  0.00    +0.000 HD
ENDBRANCH   2  20
TORSDOF 4
ENDMDL
MODEL 5
REMARK VINA RESULT:      -6.5      1.219      1.317
REMARK  Name = 
REMARK  5 active torsions:
REMARK  status: ('A' for Active; 'I' for Inactive)
REMARK    1  A    between atoms: C_1  and  O_2
REMARK    2  A    between atoms: O_2  and  C_3
REMARK    3  A    between atoms: C_9  and  N_10
REMARK    4  A    between atoms: C_11  and  S_12
REMARK    5  A    between atoms: N_13  and  C_14
REMARK                            x       y       z     vdW  Elec       q    Type
REMARK                         _______ _______ _______ _____ _____    ______ ____
ROOT
ATOM      1  N   UNL     1       5.123   4.916  17.519  0.00  0.00    +0.000 NA
ATOM      2  C   UNL     1       6.406   5.093  17.635  0.00  0.00    +0.000 C 
ATOM      3  N   UNL     1       7.304   4.875  16.626  0.00  0.00    +0.000 N 
ATOM      4  H   UNL     1       8.282   4.969  16.868  0.00  0.00    +0.000 HD
ENDROOT
BRANCH   1  11
ATOM      5  C   UNL     1       3.634   3.947  19.194  0.00  0.00    +0.000 A 
ATOM      6  C   UNL     1       2.596   4.092  20.126  0.00  0.00    +0.000 A 
ATOM      7  C   UNL     1       2.043   5.350  20.371  0.00  0.00    +0.000 A 
ATOM      8  C   UNL     1       2.492   6.452  19.657  0.00  0.00    +0.000 A 
ATOM      9 CL   UNL     1       1.801   8.001  19.949  0.00  0.00    +0.000 Cl
ATOM     10  C   UNL     1       3.486   6.314  18.693  0.00  0.00    +0.000 A 
ATOM     11  C   UNL     1       4.121   5.081  18.490  0.00  0.00    +0.000 A 
BRANCH   5  13
ATOM     12  C   UNL     1       3.443   1.717  18.328  0.00  0.00    +0.000 C 
ATOM     13  O   UNL     1       4.237   2.740  18.922  0.00  0.00    +0.000 OA
ENDBRANCH   5  13
ENDBRANCH   1  11
BRANCH   3  14
ATOM     14  C   UNL     1       7.030   4.679  15.267  0.00  0.00    +0.000 A 
ATOM     15  C   UNL     1       6.085   3.771  14.804  0.00  0.00    +0.000 A 
ATOM     16  C   UNL     1       5.876   3.600  13.438  0.00  0.00    +0.000 A 
ATOM     17  C   UNL     1       6.649   4.339  12.559  0.00  0.00    +0.000 A 
ATOM     18  N   UNL     1       7.592   5.219  12.948  0.00  0.00    +0.000 NA
ATOM     19  C   UNL     1       7.763   5.361  14.288  0.00  0.00    +0.000 A 
ENDBRANCH   3  14
BRANCH   2  20
ATOM     20  S   UNL     1       7.269   5.607  19.084  0.00  0.00    +0.000 S 
ATOM     21  H   UNL     1       6.247   6.209  19.696  0.00  0.00    +0.000 HD
ENDBRANCH   2  20
TORSDOF 4
ENDMDL
MODEL 6
REMARK VINA RESULT:      -6.5      3.400      6.706
REMARK  Name = 
REMARK  5 active torsions:
REMARK  status: ('A' for Active; 'I' for Inactive)
REMARK    1  A    between atoms: C_1  and  O_2
REMARK    2  A    between atoms: O_2  and  C_3
REMARK    3  A    between atoms: C_9  and  N_10
REMARK    4  A    between atoms: C_11  and  S_12
REMARK    5  A    between atoms: N_13  and  C_14
REMARK                            x       y       z     vdW  Elec       q    Type
REMARK                         _______ _______ _______ _____ _____    ______ ____
ROOT
ATOM      1  N   UNL     1       4.154   6.010  18.272  0.00  0.00    +0.000 NA
ATOM      2  C   UNL     1       3.437   5.501  19.230  0.00  0.00    +0.000 C 
ATOM      3  N   UNL     1       2.535   6.213  19.973  0.00  0.00    +0.000 N 
ATOM      4  H   UNL     1       2.102   5.720  20.743  0.00  0.00    +0.000 HD
ENDROOT
BRANCH   1  11
ATOM      5  C   UNL     1       6.431   5.176  17.983  0.00  0.00    +0.000 A 
ATOM      6  C   UNL     1       7.421   4.601  17.173  0.00  0.00    +0.000 A 
ATOM      7  C   UNL     1       7.123   4.222  15.863  0.00  0.00    +0.000 A 
ATOM      8  C   UNL     1       5.856   4.458  15.348  0.00  0.00    +0.000 A 
ATOM      9 CL   UNL     1       5.493   4.004  13.728  0.00  0.00    +0.000 Cl
ATOM     10  C   UNL     1       4.879   5.075  16.125  0.00  0.00    +0.000 A 
ATOM     11  C   UNL     1       5.122   5.382  17.470  0.00  0.00    +0.000 A 
BRANCH   5  13
ATOM     12  C   UNL     1       7.996   5.810  19.689  0.00  0.00    +0.000 C 
ATOM     13  O   UNL     1       6.653   5.550  19.289  0.00  0.00    +0.000 OA
ENDBRANCH   5  13
ENDBRANCH   1  11
BRANCH   3  14
ATOM     14  C   UNL     1       2.033   7.492  19.710  0.00  0.00    +0.000 A 
ATOM     15  C   UNL     1       2.133   8.109  18.467  0.00  0.00    +0.000 A 
ATOM     16  C   UNL     1       1.638   9.396  18.273  0.00  0.00    +0.000 A 
ATOM     17  C   UNL     1       1.069  10.050  19.352  0.00  0.00    +0.000 A 
ATOM     18  N   UNL     1       0.961   9.511  20.583  0.00  0.00    +0.000 NA
ATOM     19  C   UNL     1       1.451   8.253  20.731  0.00  0.00    +0.000 A 
ENDBRANCH   3  14
BRANCH   2  20
ATOM     20  S   UNL     1       3.480   3.834  19.803  0.00  0.00    +0.000 S 
ATOM     21  H   UNL     1       4.742   3.827  20.237  0.00  0.00    +0.000 HD
ENDBRANCH   2  20
TORSDOF 4
ENDMDL
MODEL 7
REMARK VINA RESULT:      -6.4      2.126      2.824
REMARK  Name = 
REMARK  5 active torsions:
REMARK  status: ('A' for Active; 'I' for Inactive)
REMARK    1  A    between atoms: C_1  and  O_2
REMARK    2  A    between atoms: O_2  and  C_3
REMARK    3  A    between atoms: C_9  and  N_10
REMARK    4  A    between atoms: C_11  and  S_12
REMARK    5  A    between atoms: N_13  and  C_14
REMARK                            x       y       z     vdW  Elec       q    Type
REMARK                         _______ _______ _______ _____ _____    ______ ____
ROOT
ATOM      1  N   UNL     1       5.042   4.782  17.652  0.00  0.00    +0.000 NA
ATOM      2  C   UNL     1       6.314   5.011  17.788  0.00  0.00    +0.000 C 
ATOM      3  N   UNL     1       7.234   4.851  16.789  0.00  0.00    +0.000 N 
ATOM      4  H   UNL     1       8.204   4.981  17.047  0.00  0.00    +0.000 HD
ENDROOT
BRANCH   1  11
ATOM      5  C   UNL     1       3.304   6.106  18.741  0.00  0.00    +0.000 A 
ATOM      6  C   UNL     1       2.320   6.241  19.731  0.00  0.00    +0.000 A 
ATOM      7  C   UNL     1       2.036   5.175  20.587  0.00  0.00    +0.000 A 
ATOM      8  C   UNL     1       2.762   3.997  20.487  0.00  0.00    +0.000 A 
ATOM      9 CL   UNL     1       2.421   2.688  21.552  0.00  0.00    +0.000 Cl
ATOM     10  C   UNL     1       3.776   3.868  19.542  0.00  0.00    +0.000 A 
ATOM     11  C   UNL     1       4.021   4.886  18.611  0.00  0.00    +0.000 A 
BRANCH   5  13
ATOM     12  C   UNL     1       2.749   8.238  17.788  0.00  0.00    +0.000 C 
ATOM     13  O   UNL     1       3.616   7.108  17.850  0.00  0.00    +0.000 OA
ENDBRANCH   5  13
ENDBRANCH   1  11
BRANCH   3  14
ATOM     14  C   UNL     1       6.987   4.669  15.423  0.00  0.00    +0.000 A 
ATOM     15  C   UNL     1       6.065   3.751  14.931  0.00  0.00    +0.000 A 
ATOM     16  C   UNL     1       5.883   3.595  13.560  0.00  0.00    +0.000 A 
ATOM     17  C   UNL     1       6.659   4.358  12.704  0.00  0.00    +0.000 A 
ATOM     18  N   UNL     1       7.580   5.249  13.122  0.00  0.00    +0.000 NA
ATOM     19  C   UNL     1       7.725   5.375  14.466  0.00  0.00    +0.000 A 
ENDBRANCH   3  14
BRANCH   2  20
ATOM     20  S   UNL     1       7.135   5.534  19.259  0.00  0.00    +0.000 S 
ATOM     21  H   UNL     1       8.349   5.706  18.734  0.00  0.00    +0.000 HD
ENDBRANCH   2  20
TORSDOF 4
ENDMDL
MODEL 8
REMARK VINA RESULT:      -6.4      3.414      6.640
REMARK  Name = 
REMARK  5 active torsions:
REMARK  status: ('A' for Active; 'I' for Inactive)
REMARK    1  A    between atoms: C_1  and  O_2
REMARK    2  A    between atoms: O_2  and  C_3
REMARK    3  A    between atoms: C_9  and  N_10
REMARK    4  A    between atoms: C_11  and  S_12
REMARK    5  A    between atoms: N_13  and  C_14
REMARK                            x       y       z     vdW  Elec       q    Type
REMARK                         _______ _______ _______ _____ _____    ______ ____
ROOT
ATOM      1  N   UNL     1       4.165   5.931  18.391  0.00  0.00    +0.000 NA
ATOM      2  C   UNL     1       3.434   5.386  19.317  0.00  0.00    +0.000 C 
ATOM      3  N   UNL     1       2.539   6.073  20.091  0.00  0.00    +0.000 N 
ATOM      4  H   UNL     1       2.093   5.549  20.833  0.00  0.00    +0.000 HD
ENDROOT
BRANCH   1  11
ATOM      5  C   UNL     1       6.432   5.080  18.070  0.00  0.00    +0.000 A 
ATOM      6  C   UNL     1       7.416   4.532  17.236  0.00  0.00    +0.000 A 
ATOM      7  C   UNL     1       7.118   4.221  15.908  0.00  0.00    +0.000 A 
ATOM      8  C   UNL     1       5.857   4.499  15.401  0.00  0.00    +0.000 A 
ATOM      9 CL   UNL     1       5.494   4.129  13.759  0.00  0.00    +0.000 Cl
ATOM     10  C   UNL     1       4.886   5.091  16.204  0.00  0.00    +0.000 A 
ATOM     11  C   UNL     1       5.128   5.330  17.563  0.00  0.00    +0.000 A 
BRANCH   5  13
ATOM     12  C   UNL     1       7.976   5.752  19.780  0.00  0.00    +0.000 C 
ATOM     13  O   UNL     1       6.653   5.388  19.393  0.00  0.00    +0.000 OA
ENDBRANCH   5  13
ENDBRANCH   1  11
BRANCH   3  14
ATOM     14  C   UNL     1       2.060   7.373  19.892  0.00  0.00    +0.000 A 
ATOM     15  C   UNL     1       1.395   8.098  20.875  0.00  0.00    +0.000 A 
ATOM     16  C   UNL     1       0.917   9.378  20.609  0.00  0.00    +0.000 A 
ATOM     17  C   UNL     1       1.101   9.897  19.339  0.00  0.00    +0.000 A 
ATOM     18  N   UNL     1       1.721   9.235  18.342  0.00  0.00    +0.000 NA
ATOM     19  C   UNL     1       2.177   7.991  18.642  0.00  0.00    +0.000 A 
ENDBRANCH   3  14
BRANCH   2  20
ATOM     20  S   UNL     1       3.445   3.690  19.802  0.00  0.00    +0.000 S 
ATOM     21  H   UNL     1       4.652   3.675  20.369  0.00  0.00    +0.000 HD
ENDBRANCH   2  20
TORSDOF 4
ENDMDL
MODEL 9
REMARK VINA RESULT:      -6.2      1.278      1.636
REMARK  Name = 
REMARK  5 active torsions:
REMARK  status: ('A' for Active; 'I' for Inactive)
REMARK    1  A    between atoms: C_1  and  O_2
REMARK    2  A    between atoms: O_2  and  C_3
REMARK    3  A    between atoms: C_9  and  N_10
REMARK    4  A    between atoms: C_11  and  S_12
REMARK    5  A    between atoms: N_13  and  C_14
REMARK                            x       y       z     vdW  Elec       q    Type
REMARK                         _______ _______ _______ _____ _____    ______ ____
ROOT
ATOM      1  N   UNL     1       5.174   4.901  17.414  0.00  0.00    +0.000 NA
ATOM      2  C   UNL     1       6.453   5.104  17.521  0.00  0.00    +0.000 C 
ATOM      3  N   UNL     1       7.355   4.859  16.522  0.00  0.00    +0.000 N 
ATOM      4  H   UNL     1       8.331   4.979  16.760  0.00  0.00    +0.000 HD
ENDROOT
BRANCH   1  11
ATOM      5  C   UNL     1       3.665   3.972  19.094  0.00  0.00    +0.000 A 
ATOM      6  C   UNL     1       2.625   4.140  20.018  0.00  0.00    +0.000 A 
ATOM      7  C   UNL     1       2.085   5.408  20.244  0.00  0.00    +0.000 A 
ATOM      8  C   UNL     1       2.549   6.495  19.517  0.00  0.00    +0.000 A 
ATOM      9 CL   UNL     1       1.873   8.055  19.785  0.00  0.00    +0.000 Cl
ATOM     10  C   UNL     1       3.546   6.332  18.560  0.00  0.00    +0.000 A 
ATOM     11  C   UNL     1       4.169   5.091  18.377  0.00  0.00    +0.000 A 
BRANCH   5  13
ATOM     12  C   UNL     1       3.465   1.745  18.222  0.00  0.00    +0.000 C 
ATOM     13  O   UNL     1       4.257   2.755  18.842  0.00  0.00    +0.000 OA
ENDBRANCH   5  13
ENDBRANCH   1  11
BRANCH   3  14
ATOM     14  C   UNL     1       7.085   4.603  15.173  0.00  0.00    +0.000 A 
ATOM     15  C   UNL     1       7.738   5.249  14.129  0.00  0.00    +0.000 A 
ATOM     16  C   UNL     1       7.407   4.971  12.806  0.00  0.00    +0.000 A 
ATOM     17  C   UNL     1       6.398   4.056  12.560  0.00  0.00    +0.000 A 
ATOM     18  N   UNL     1       5.718   3.412  13.530  0.00  0.00    +0.000 NA
ATOM     19  C   UNL     1       6.073   3.707  14.807  0.00  0.00    +0.000 A 
ENDBRANCH   3  14
BRANCH   2  20
ATOM     20  S   UNL     1       7.307   5.692  18.948  0.00  0.00    +0.000 S 
ATOM     21  H   UNL     1       7.304   4.552  19.640  0.00  0.00    +0.000 HD
ENDBRANCH   2  20
TORSDOF 4
ENDMDL
