MODEL 1
REMARK VINA RESULT:      -7.8      0.000      0.000
REMARK  Name = 
REMARK  12 active torsions:
REMARK  status: ('A' for Active; 'I' for Inactive)
REMARK    1  A    between atoms: C_1  and  C_2
REMARK    2  A    between atoms: C_7  and  C_8
REMARK    3  A    between atoms: C_8  and  O_9
REMARK    4  A    between atoms: C_8  and  C_10
REMARK    5  A    between atoms: C_11  and  C_12
REMARK    6  A    between atoms: C_11  and  C_13
REMARK    7  A    between atoms: C_13  and  C_14
REMARK    8  A    between atoms: C_14  and  C_15
REMARK    9  A    between atoms: C_16  and  C_17
REMARK   10  A    between atoms: C_21  and  C_22
REMARK   11  A    between atoms: C_27  and  C_28
REMARK   12  A    between atoms: C_27  and  O_29
REMARK                            x       y       z     vdW  Elec       q    Type
REMARK                         _______ _______ _______ _____ _____    ______ ____
ROOT
ATOM      1  C   UNL     1       5.228   5.751  17.051  0.00  0.00    +0.000 C 
ATOM      2  C   UNL     1       4.468   5.379  18.435  0.00  0.00    +0.000 C 
ATOM      3  C   UNL     1       5.486   5.038  19.534  0.00  0.00    +0.000 C 
ATOM      4  C   UNL     1       3.549   6.555  19.003  0.00  0.00    +0.000 C 
ATOM      5  C   UNL     1       2.187   6.096  19.662  0.00  0.00    +0.000 C 
ATOM      6  C   UNL     1       2.212   4.707  20.346  0.00  0.00    +0.000 C 
ATOM      7  C   UNL     1       2.812   3.601  19.448  0.00  0.00    +0.000 C 
ATOM      8  C   UNL     1       3.727   2.672  20.282  0.00  0.00    +0.000 C 
ATOM      9  C   UNL     1       1.818   2.685  18.698  0.00  0.00    +0.000 C 
ATOM     10  O   UNL     1       2.370   2.434  17.370  0.00  0.00    +0.000 OA
ATOM     11  C   UNL     1       3.598   3.180  17.237  0.00  0.00    +0.000 C 
ATOM     12  C   UNL     1       3.751   3.855  15.886  0.00  0.00    +0.000 C 
ATOM     13  C   UNL     1       5.065   4.665  15.871  0.00  0.00    +0.000 C 
ATOM     14  C   UNL     1       6.222   3.647  15.771  0.00  0.00    +0.000 C 
ATOM     15  C   UNL     1       3.424   4.277  18.227  0.00  0.00    +0.000 C 
ENDROOT
BRANCH  13  16
ATOM     16  O   UNL     1       5.098   5.390  14.626  0.00  0.00    +0.000 OA
ATOM     17  H   UNL     1       5.655   6.179  14.746  0.00  0.00    +0.000 HD
ENDBRANCH  13  16
BRANCH   1  18
ATOM     18  C   UNL     1       6.772   6.152  17.159  0.00  0.00    +0.000 C 
BRANCH  18  19
ATOM     19  C   UNL     1       7.135   7.650  17.059  0.00  0.00    +0.000 C 
BRANCH  19  21
ATOM     20  C   UNL     1       8.446   9.533  18.147  0.00  0.00    +0.000 C 
ATOM     21  C   UNL     1       8.036   8.242  18.164  0.00  0.00    +0.000 C 
ATOM     22  C   UNL     1       8.546   7.246  19.180  0.00  0.00    +0.000 C 
BRANCH  20  23
ATOM     23  C   UNL     1       9.546  10.187  18.985  0.00  0.00    +0.000 C 
BRANCH  23  30
ATOM     24  C   UNL     1      12.332  11.925  19.713  0.00  0.00    +0.000 C 
ATOM     25  C   UNL     1      11.070  12.316  19.034  0.00  0.00    +0.000 C 
ATOM     26  C   UNL     1      10.554  13.545  19.003  0.00  0.00    +0.000 C 
ATOM     27  C   UNL     1       9.365  13.481  18.167  0.00  0.00    +0.000 C 
ATOM     28  O   UNL     1       8.632  14.433  17.921  0.00  0.00    +0.000 OA
ATOM     29  O   UNL     1       9.219  12.226  17.679  0.00  0.00    +0.000 OA
ATOM     30  C   UNL     1      10.240  11.366  18.230  0.00  0.00    +0.000 C 
ENDBRANCH  23  30
BRANCH  23  31
ATOM     31  O   UNL     1       8.986  10.631  20.221  0.00  0.00    +0.000 OA
ATOM     32  H   UNL     1       8.780   9.837  20.743  0.00  0.00    +0.000 HD
ENDBRANCH  23  31
ENDBRANCH  20  23
ENDBRANCH  19  21
ENDBRANCH  18  19
ENDBRANCH   1  18
TORSDOF 7
ENDMDL
MODEL 2
REMARK VINA RESULT:      -7.6      5.266      8.839
REMARK  Name = 
REMARK  12 active torsions:
REMARK  status: ('A' for Active; 'I' for Inactive)
REMARK    1  A    between atoms: C_1  and  C_2
REMARK    2  A    between atoms: C_7  and  C_8
REMARK    3  A    between atoms: C_8  and  O_9
REMARK    4  A    between atoms: C_8  and  C_10
REMARK    5  A    between atoms: C_11  and  C_12
REMARK    6  A    between atoms: C_11  and  C_13
REMARK    7  A    between atoms: C_13  and  C_14
REMARK    8  A    between atoms: C_14  and  C_15
REMARK    9  A    between atoms: C_16  and  C_17
REMARK   10  A    between atoms: C_21  and  C_22
REMARK   11  A    between atoms: C_27  and  C_28
REMARK   12  A    between atoms: C_27  and  O_29
REMARK                            x       y       z     vdW  Elec       q    Type
REMARK                         _______ _______ _______ _____ _____    ______ ____
ROOT
ATOM      1  C   UNL     1       0.269   9.650  19.923  0.00  0.00    +0.000 C 
ATOM      2  C   UNL     1      -0.459  11.099  19.943  0.00  0.00    +0.000 C 
ATOM      3  C   UNL     1       0.549  12.213  19.620  0.00  0.00    +0.000 C 
ATOM      4  C   UNL     1      -1.654  11.236  18.893  0.00  0.00    +0.000 C 
ATOM      5  C   UNL     1      -2.907  12.061  19.393  0.00  0.00    +0.000 C 
ATOM      6  C   UNL     1      -2.599  13.198  20.398  0.00  0.00    +0.000 C 
ATOM      7  C   UNL     1      -1.712  12.738  21.578  0.00  0.00    +0.000 C 
ATOM      8  C   UNL     1      -0.653  13.821  21.904  0.00  0.00    +0.000 C 
ATOM      9  C   UNL     1      -2.425  12.402  22.907  0.00  0.00    +0.000 C 
ATOM     10  O   UNL     1      -1.758  11.236  23.479  0.00  0.00    +0.000 OA
ATOM     11  C   UNL     1      -0.730  10.803  22.563  0.00  0.00    +0.000 C 
ATOM     12  C   UNL     1      -0.664   9.295  22.400  0.00  0.00    +0.000 C 
ATOM     13  C   UNL     1       0.426   8.946  21.364  0.00  0.00    +0.000 C 
ATOM     14  C   UNL     1       1.791   9.180  22.048  0.00  0.00    +0.000 C 
ATOM     15  C   UNL     1      -1.207  11.337  21.259  0.00  0.00    +0.000 C 
ENDROOT
BRANCH  13  16
ATOM     16  O   UNL     1       0.358   7.522  21.146  0.00  0.00    +0.000 OA
ATOM     17  H   UNL     1      -0.555   7.231  21.314  0.00  0.00    +0.000 HD
ENDBRANCH  13  16
BRANCH   1  18
ATOM     18  C   UNL     1       1.671   9.555  19.158  0.00  0.00    +0.000 C 
BRANCH  18  19
ATOM     19  C   UNL     1       1.793   8.534  18.006  0.00  0.00    +0.000 C 
BRANCH  19  21
ATOM     20  C   UNL     1       4.118   7.662  17.471  0.00  0.00    +0.000 C 
ATOM     21  C   UNL     1       2.927   7.490  18.095  0.00  0.00    +0.000 C 
ATOM     22  C   UNL     1       2.563   6.204  18.799  0.00  0.00    +0.000 C 
BRANCH  20  23
ATOM     23  C   UNL     1       5.213   6.623  17.223  0.00  0.00    +0.000 C 
BRANCH  23  30
ATOM     24  C   UNL     1       4.293   3.391  17.101  0.00  0.00    +0.000 C 
ATOM     25  C   UNL     1       5.093   4.228  16.171  0.00  0.00    +0.000 C 
ATOM     26  C   UNL     1       6.035   3.782  15.340  0.00  0.00    +0.000 C 
ATOM     27  C   UNL     1       6.494   4.928  14.569  0.00  0.00    +0.000 C 
ATOM     28  O   UNL     1       7.367   4.886  13.709  0.00  0.00    +0.000 OA
ATOM     29  O   UNL     1       5.786   6.027  14.923  0.00  0.00    +0.000 OA
ATOM     30  C   UNL     1       4.886   5.700  16.005  0.00  0.00    +0.000 C 
ENDBRANCH  23  30
BRANCH  23  31
ATOM     31  O   UNL     1       6.457   7.298  17.032  0.00  0.00    +0.000 OA
ATOM     32  H   UNL     1       6.471   7.616  16.113  0.00  0.00    +0.000 HD
ENDBRANCH  23  31
ENDBRANCH  20  23
ENDBRANCH  19  21
ENDBRANCH  18  19
ENDBRANCH   1  18
TORSDOF 7
ENDMDL
MODEL 3
REMARK VINA RESULT:      -7.5      6.055     10.025
REMARK  Name = 
REMARK  12 active torsions:
REMARK  status: ('A' for Active; 'I' for Inactive)
REMARK    1  A    between atoms: C_1  and  C_2
REMARK    2  A    between atoms: C_7  and  C_8
REMARK    3  A    between atoms: C_8  and  O_9
REMARK    4  A    between atoms: C_8  and  C_10
REMARK    5  A    between atoms: C_11  and  C_12
REMARK    6  A    between atoms: C_11  and  C_13
REMARK    7  A    between atoms: C_13  and  C_14
REMARK    8  A    between atoms: C_14  and  C_15
REMARK    9  A    between atoms: C_16  and  C_17
REMARK   10  A    between atoms: C_21  and  C_22
REMARK   11  A    between atoms: C_27  and  C_28
REMARK   12  A    between atoms: C_27  and  O_29
REMARK                            x       y       z     vdW  Elec       q    Type
REMARK                         _______ _______ _______ _____ _____    ______ ____
ROOT
ATOM      1  C   UNL     1      -0.627  11.125  18.487  0.00  0.00    +0.000 C 
ATOM      2  C   UNL     1      -0.435  11.660  20.005  0.00  0.00    +0.000 C 
ATOM      3  C   UNL     1      -0.166  10.488  20.961  0.00  0.00    +0.000 C 
ATOM      4  C   UNL     1       0.775  12.688  20.180  0.00  0.00    +0.000 C 
ATOM      5  C   UNL     1       0.515  13.879  21.187  0.00  0.00    +0.000 C 
ATOM      6  C   UNL     1      -0.431  13.559  22.370  0.00  0.00    +0.000 C 
ATOM      7  C   UNL     1      -1.752  12.891  21.924  0.00  0.00    +0.000 C 
ATOM      8  C   UNL     1      -2.134  11.754  22.903  0.00  0.00    +0.000 C 
ATOM      9  C   UNL     1      -2.995  13.802  21.798  0.00  0.00    +0.000 C 
ATOM     10  O   UNL     1      -3.740  13.365  20.621  0.00  0.00    +0.000 OA
ATOM     11  C   UNL     1      -3.009  12.293  19.989  0.00  0.00    +0.000 C 
ATOM     12  C   UNL     1      -2.974  12.399  18.475  0.00  0.00    +0.000 C 
ATOM     13  C   UNL     1      -2.127  11.240  17.907  0.00  0.00    +0.000 C 
ATOM     14  C   UNL     1      -2.969   9.953  18.046  0.00  0.00    +0.000 C 
ATOM     15  C   UNL     1      -1.615  12.532  20.450  0.00  0.00    +0.000 C 
ENDROOT
BRANCH  13  16
ATOM     16  O   UNL     1      -2.012  11.460  16.487  0.00  0.00    +0.000 OA
ATOM     17  H   UNL     1      -1.171  11.075  16.185  0.00  0.00    +0.000 HD
ENDBRANCH  13  16
BRANCH   1  18
ATOM     18  C   UNL     1      -0.069   9.662  18.160  0.00  0.00    +0.000 C 
BRANCH  18  19
ATOM     19  C   UNL     1       1.448   9.507  17.921  0.00  0.00    +0.000 C 
BRANCH  19  21
ATOM     20  C   UNL     1       2.931   7.445  17.905  0.00  0.00    +0.000 C 
ATOM     21  C   UNL     1       2.160   8.316  18.600  0.00  0.00    +0.000 C 
ATOM     22  C   UNL     1       1.817   8.107  20.056  0.00  0.00    +0.000 C 
BRANCH  20  23
ATOM     23  C   UNL     1       3.458   6.081  18.356  0.00  0.00    +0.000 C 
BRANCH  23  30
ATOM     24  C   UNL     1       1.165   4.880  20.503  0.00  0.00    +0.000 C 
ATOM     25  C   UNL     1       1.938   4.230  19.414  0.00  0.00    +0.000 C 
ATOM     26  C   UNL     1       2.269   2.939  19.360  0.00  0.00    +0.000 C 
ATOM     27  C   UNL     1       2.946   2.731  18.089  0.00  0.00    +0.000 C 
ATOM     28  O   UNL     1       3.397   1.657  17.705  0.00  0.00    +0.000 OA
ATOM     29  O   UNL     1       2.968   3.891  17.389  0.00  0.00    +0.000 OA
ATOM     30  C   UNL     1       2.393   4.952  18.184  0.00  0.00    +0.000 C 
ENDBRANCH  23  30
BRANCH  23  31
ATOM     31  O   UNL     1       4.646   5.779  17.624  0.00  0.00    +0.000 OA
ATOM     32  H   UNL     1       5.391   5.855  18.244  0.00  0.00    +0.000 HD
ENDBRANCH  23  31
ENDBRANCH  20  23
ENDBRANCH  19  21
ENDBRANCH  18  19
ENDBRANCH   1  18
TORSDOF 7
ENDMDL
MODEL 4
REMARK VINA RESULT:      -7.5      4.930      8.658
REMARK  Name = 
REMARK  12 active torsions:
REMARK  status: ('A' for Active; 'I' for Inactive)
REMARK    1  A    between atoms: C_1  and  C_2
REMARK    2  A    between atoms: C_7  and  C_8
REMARK    3  A    between atoms: C_8  and  O_9
REMARK    4  A    between atoms: C_8  and  C_10
REMARK    5  A    between atoms: C_11  and  C_12
REMARK    6  A    between atoms: C_11  and  C_13
REMARK    7  A    between atoms: C_13  and  C_14
REMARK    8  A    between atoms: C_14  and  C_15
REMARK    9  A    between atoms: C_16  and  C_17
REMARK   10  A    between atoms: C_21  and  C_22
REMARK   11  A    between atoms: C_27  and  C_28
REMARK   12  A    between atoms: C_27  and  O_29
REMARK                            x       y       z     vdW  Elec       q    Type
REMARK                         _______ _______ _______ _____ _____    ______ ____
ROOT
ATOM      1  C   UNL     1       0.316   8.894  20.457  0.00  0.00    +0.000 C 
ATOM      2  C   UNL     1       0.214  10.159  19.447  0.00  0.00    +0.000 C 
ATOM      3  C   UNL     1       1.581  10.456  18.814  0.00  0.00    +0.000 C 
ATOM      4  C   UNL     1      -0.816   9.944  18.246  0.00  0.00    +0.000 C 
ATOM      5  C   UNL     1      -1.654  11.220  17.833  0.00  0.00    +0.000 C 
ATOM      6  C   UNL     1      -0.942  12.580  18.033  0.00  0.00    +0.000 C 
ATOM      7  C   UNL     1      -0.324  12.736  19.442  0.00  0.00    +0.000 C 
ATOM      8  C   UNL     1       1.068  13.407  19.344  0.00  0.00    +0.000 C 
ATOM      9  C   UNL     1      -1.132  13.546  20.482  0.00  0.00    +0.000 C 
ATOM     10  O   UNL     1      -0.984  12.875  21.770  0.00  0.00    +0.000 OA
ATOM     11  C   UNL     1      -0.193  11.684  21.577  0.00  0.00    +0.000 C 
ATOM     12  C   UNL     1      -0.720  10.480  22.338  0.00  0.00    +0.000 C 
ATOM     13  C   UNL     1       0.163   9.255  22.020  0.00  0.00    +0.000 C 
ATOM     14  C   UNL     1       1.500   9.454  22.768  0.00  0.00    +0.000 C 
ATOM     15  C   UNL     1      -0.403  11.382  20.135  0.00  0.00    +0.000 C 
ENDROOT
BRANCH  13  16
ATOM     16  O   UNL     1      -0.453   8.117  22.655  0.00  0.00    +0.000 OA
ATOM     17  H   UNL     1      -1.028   7.678  22.005  0.00  0.00    +0.000 HD
ENDBRANCH  13  16
BRANCH   1  18
ATOM     18  C   UNL     1       1.581   7.930  20.282  0.00  0.00    +0.000 C 
BRANCH  18  19
ATOM     19  C   UNL     1       1.375   6.421  20.534  0.00  0.00    +0.000 C 
BRANCH  19  21
ATOM     20  C   UNL     1       3.565   5.336  19.843  0.00  0.00    +0.000 C 
ATOM     21  C   UNL     1       2.222   5.435  19.699  0.00  0.00    +0.000 C 
ATOM     22  C   UNL     1       1.470   4.702  18.614  0.00  0.00    +0.000 C 
BRANCH  20  23
ATOM     23  C   UNL     1       4.566   4.639  18.919  0.00  0.00    +0.000 C 
BRANCH  23  30
ATOM     24  C   UNL     1       3.929   7.467  17.214  0.00  0.00    +0.000 C 
ATOM     25  C   UNL     1       5.001   6.448  17.075  0.00  0.00    +0.000 C 
ATOM     26  C   UNL     1       5.654   6.155  15.950  0.00  0.00    +0.000 C 
ATOM     27  C   UNL     1       6.662   5.164  16.295  0.00  0.00    +0.000 C 
ATOM     28  O   UNL     1       7.446   4.660  15.498  0.00  0.00    +0.000 OA
ATOM     29  O   UNL     1       6.621   4.917  17.626  0.00  0.00    +0.000 OA
ATOM     30  C   UNL     1       5.532   5.653  18.226  0.00  0.00    +0.000 C 
ENDBRANCH  23  30
BRANCH  23  31
ATOM     31  O   UNL     1       5.297   3.671  19.673  0.00  0.00    +0.000 OA
ATOM     32  H   UNL     1       5.311   3.979  20.596  0.00  0.00    +0.000 HD
ENDBRANCH  23  31
ENDBRANCH  20  23
ENDBRANCH  19  21
ENDBRANCH  18  19
ENDBRANCH   1  18
TORSDOF 7
ENDMDL
MODEL 5
REMARK VINA RESULT:      -7.4      4.410      7.575
REMARK  Name = 
REMARK  12 active torsions:
REMARK  status: ('A' for Active; 'I' for Inactive)
REMARK    1  A    between atoms: C_1  and  C_2
REMARK    2  A    between atoms: C_7  and  C_8
REMARK    3  A    between atoms: C_8  and  O_9
REMARK    4  A    between atoms: C_8  and  C_10
REMARK    5  A    between atoms: C_11  and  C_12
REMARK    6  A    between atoms: C_11  and  C_13
REMARK    7  A    between atoms: C_13  and  C_14
REMARK    8  A    between atoms: C_14  and  C_15
REMARK    9  A    between atoms: C_16  and  C_17
REMARK   10  A    between atoms: C_21  and  C_22
REMARK   11  A    between atoms: C_27  and  C_28
REMARK   12  A    between atoms: C_27  and  O_29
REMARK                            x       y       z     vdW  Elec       q    Type
REMARK                         _______ _______ _______ _____ _____    ______ ____
ROOT
ATOM      1  C   UNL     1       3.305   4.925  19.204  0.00  0.00    +0.000 C 
ATOM      2  C   UNL     1       4.481   5.671  18.373  0.00  0.00    +0.000 C 
ATOM      3  C   UNL     1       3.961   6.979  17.759  0.00  0.00    +0.000 C 
ATOM      4  C   UNL     1       5.756   6.049  19.257  0.00  0.00    +0.000 C 
ATOM      5  C   UNL     1       7.155   5.883  18.539  0.00  0.00    +0.000 C 
ATOM      6  C   UNL     1       7.152   6.119  17.009  0.00  0.00    +0.000 C 
ATOM      7  C   UNL     1       6.039   5.333  16.278  0.00  0.00    +0.000 C 
ATOM      8  C   UNL     1       5.390   6.217  15.185  0.00  0.00    +0.000 C 
ATOM      9  C   UNL     1       6.444   4.009  15.592  0.00  0.00    +0.000 C 
ATOM     10  O   UNL     1       5.359   3.056  15.805  0.00  0.00    +0.000 OA
ATOM     11  C   UNL     1       4.349   3.687  16.621  0.00  0.00    +0.000 C 
ATOM     12  C   UNL     1       3.786   2.775  17.696  0.00  0.00    +0.000 C 
ATOM     13  C   UNL     1       2.760   3.562  18.540  0.00  0.00    +0.000 C 
ATOM     14  C   UNL     1       1.495   3.731  17.671  0.00  0.00    +0.000 C 
ATOM     15  C   UNL     1       5.119   4.740  17.337  0.00  0.00    +0.000 C 
ENDROOT
BRANCH  13  16
ATOM     16  O   UNL     1       2.357   2.699  19.622  0.00  0.00    +0.000 OA
ATOM     17  H   UNL     1       3.090   2.645  20.259  0.00  0.00    +0.000 HD
ENDBRANCH  13  16
BRANCH   1  18
ATOM     18  C   UNL     1       2.048   5.815  19.636  0.00  0.00    +0.000 C 
BRANCH  18  19
ATOM     19  C   UNL     1       2.285   6.949  20.656  0.00  0.00    +0.000 C 
BRANCH  19  21
ATOM     20  C   UNL     1       1.240   8.869  19.363  0.00  0.00    +0.000 C 
ATOM     21  C   UNL     1       1.406   8.213  20.537  0.00  0.00    +0.000 C 
ATOM     22  C   UNL     1       0.866   8.746  21.843  0.00  0.00    +0.000 C 
BRANCH  20  23
ATOM     23  C   UNL     1       0.654  10.264  19.134  0.00  0.00    +0.000 C 
BRANCH  23  30
ATOM     24  C   UNL     1      -1.909   9.869  16.993  0.00  0.00    +0.000 C 
ATOM     25  C   UNL     1      -1.764  10.690  18.222  0.00  0.00    +0.000 C 
ATOM     26  C   UNL     1      -2.419  11.821  18.482  0.00  0.00    +0.000 C 
ATOM     27  C   UNL     1      -2.029  12.235  19.822  0.00  0.00    +0.000 C 
ATOM     28  O   UNL     1      -2.436  13.245  20.387  0.00  0.00    +0.000 OA
ATOM     29  O   UNL     1      -1.183  11.320  20.352  0.00  0.00    +0.000 OA
ATOM     30  C   UNL     1      -0.890  10.300  19.372  0.00  0.00    +0.000 C 
ENDBRANCH  23  30
BRANCH  23  31
ATOM     31  O   UNL     1       1.324  11.194  19.985  0.00  0.00    +0.000 OA
ATOM     32  H   UNL     1       1.445  12.012  19.474  0.00  0.00    +0.000 HD
ENDBRANCH  23  31
ENDBRANCH  20  23
ENDBRANCH  19  21
ENDBRANCH  18  19
ENDBRANCH   1  18
TORSDOF 7
ENDMDL
MODEL 6
REMARK VINA RESULT:      -7.4      4.729      7.106
REMARK  Name = 
REMARK  12 active torsions:
REMARK  status: ('A' for Active; 'I' for Inactive)
REMARK    1  A    between atoms: C_1  and  C_2
REMARK    2  A    between atoms: C_7  and  C_8
REMARK    3  A    between atoms: C_8  and  O_9
REMARK    4  A    between atoms: C_8  and  C_10
REMARK    5  A    between atoms: C_11  and  C_12
REMARK    6  A    between atoms: C_11  and  C_13
REMARK    7  A    between atoms: C_13  and  C_14
REMARK    8  A    between atoms: C_14  and  C_15
REMARK    9  A    between atoms: C_16  and  C_17
REMARK   10  A    between atoms: C_21  and  C_22
REMARK   11  A    between atoms: C_27  and  C_28
REMARK   12  A    between atoms: C_27  and  O_29
REMARK                            x       y       z     vdW  Elec       q    Type
REMARK                         _______ _______ _______ _____ _____    ______ ____
ROOT
ATOM      1  C   UNL     1       3.557   5.958  17.602  0.00  0.00    +0.000 C 
ATOM      2  C   UNL     1       2.605   5.103  18.599  0.00  0.00    +0.000 C 
ATOM      3  C   UNL     1       2.125   5.978  19.767  0.00  0.00    +0.000 C 
ATOM      4  C   UNL     1       1.299   4.512  17.896  0.00  0.00    +0.000 C 
ATOM      5  C   UNL     1       0.869   3.066  18.370  0.00  0.00    +0.000 C 
ATOM      6  C   UNL     1       1.205   2.717  19.840  0.00  0.00    +0.000 C 
ATOM      7  C   UNL     1       2.673   3.025  20.214  0.00  0.00    +0.000 C 
ATOM      8  C   UNL     1       2.745   3.653  21.627  0.00  0.00    +0.000 C 
ATOM      9  C   UNL     1       3.667   1.840  20.205  0.00  0.00    +0.000 C 
ATOM     10  O   UNL     1       4.929   2.332  19.660  0.00  0.00    +0.000 OA
ATOM     11  C   UNL     1       4.757   3.714  19.282  0.00  0.00    +0.000 C 
ATOM     12  C   UNL     1       5.402   4.060  17.952  0.00  0.00    +0.000 C 
ATOM     13  C   UNL     1       5.113   5.540  17.620  0.00  0.00    +0.000 C 
ATOM     14  C   UNL     1       5.998   6.394  18.554  0.00  0.00    +0.000 C 
ATOM     15  C   UNL     1       3.288   3.813  19.064  0.00  0.00    +0.000 C 
ENDROOT
BRANCH  13  16
ATOM     16  O   UNL     1       5.628   5.781  16.295  0.00  0.00    +0.000 OA
ATOM     17  H   UNL     1       6.380   5.182  16.145  0.00  0.00    +0.000 HD
ENDBRANCH  13  16
BRANCH   1  18
ATOM     18  C   UNL     1       3.460   7.551  17.699  0.00  0.00    +0.000 C 
BRANCH  18  19
ATOM     19  C   UNL     1       2.057   8.192  17.635  0.00  0.00    +0.000 C 
BRANCH  19  21
ATOM     20  C   UNL     1       1.172   9.483  19.636  0.00  0.00    +0.000 C 
ATOM     21  C   UNL     1       1.825   9.484  18.448  0.00  0.00    +0.000 C 
ATOM     22  C   UNL     1       2.244  10.761  17.760  0.00  0.00    +0.000 C 
BRANCH  20  23
ATOM     23  C   UNL     1       0.617  10.679  20.411  0.00  0.00    +0.000 C 
BRANCH  23  30
ATOM     24  C   UNL     1      -1.603  10.795  17.887  0.00  0.00    +0.000 C 
ATOM     25  C   UNL     1      -1.646  11.338  19.269  0.00  0.00    +0.000 C 
ATOM     26  C   UNL     1      -2.343  12.404  19.664  0.00  0.00    +0.000 C 
ATOM     27  C   UNL     1      -2.156  12.521  21.102  0.00  0.00    +0.000 C 
ATOM     28  O   UNL     1      -2.650  13.399  21.801  0.00  0.00    +0.000 OA
ATOM     29  O   UNL     1      -1.387  11.498  21.545  0.00  0.00    +0.000 OA
ATOM     30  C   UNL     1      -0.945  10.698  20.426  0.00  0.00    +0.000 C 
ENDBRANCH  23  30
BRANCH  23  31
ATOM     31  O   UNL     1       1.140  10.654  21.739  0.00  0.00    +0.000 OA
ATOM     32  H   UNL     1       1.531  11.528  21.908  0.00  0.00    +0.000 HD
ENDBRANCH  23  31
ENDBRANCH  20  23
ENDBRANCH  19  21
ENDBRANCH  18  19
ENDBRANCH   1  18
TORSDOF 7
ENDMDL
MODEL 7
REMARK VINA RESULT:      -7.4      5.152      9.192
REMARK  Name = 
REMARK  12 active torsions:
REMARK  status: ('A' for Active; 'I' for Inactive)
REMARK    1  A    between atoms: C_1  and  C_2
REMARK    2  A    between atoms: C_7  and  C_8
REMARK    3  A    between atoms: C_8  and  O_9
REMARK    4  A    between atoms: C_8  and  C_10
REMARK    5  A    between atoms: C_11  and  C_12
REMARK    6  A    between atoms: C_11  and  C_13
REMARK    7  A    between atoms: C_13  and  C_14
REMARK    8  A    between atoms: C_14  and  C_15
REMARK    9  A    between atoms: C_16  and  C_17
REMARK   10  A    between atoms: C_21  and  C_22
REMARK   11  A    between atoms: C_27  and  C_28
REMARK   12  A    between atoms: C_27  and  O_29
REMARK                            x       y       z     vdW  Elec       q    Type
REMARK                         _______ _______ _______ _____ _____    ______ ____
ROOT
ATOM      1  C   UNL     1       0.011   9.178  20.707  0.00  0.00    +0.000 C 
ATOM      2  C   UNL     1       0.031  10.442  19.690  0.00  0.00    +0.000 C 
ATOM      3  C   UNL     1       1.442  10.652  19.119  0.00  0.00    +0.000 C 
ATOM      4  C   UNL     1      -0.955  10.284  18.444  0.00  0.00    +0.000 C 
ATOM      5  C   UNL     1      -1.693  11.606  17.990  0.00  0.00    +0.000 C 
ATOM      6  C   UNL     1      -0.909  12.921  18.219  0.00  0.00    +0.000 C 
ATOM      7  C   UNL     1      -0.347  13.047  19.654  0.00  0.00    +0.000 C 
ATOM      8  C   UNL     1       1.087  13.631  19.617  0.00  0.00    +0.000 C 
ATOM      9  C   UNL     1      -1.150  13.910  20.654  0.00  0.00    +0.000 C 
ATOM     10  O   UNL     1      -1.101  13.239  21.949  0.00  0.00    +0.000 OA
ATOM     11  C   UNL     1      -0.376  12.000  21.795  0.00  0.00    +0.000 C 
ATOM     12  C   UNL     1      -1.010  10.835  22.535  0.00  0.00    +0.000 C 
ATOM     13  C   UNL     1      -0.190   9.556  22.261  0.00  0.00    +0.000 C 
ATOM     14  C   UNL     1       1.121   9.678  23.067  0.00  0.00    +0.000 C 
ATOM     15  C   UNL     1      -0.539  11.704  20.346  0.00  0.00    +0.000 C 
ENDROOT
BRANCH  13  16
ATOM     16  O   UNL     1      -0.902   8.462  22.870  0.00  0.00    +0.000 OA
ATOM     17  H   UNL     1      -1.243   8.760  23.731  0.00  0.00    +0.000 HD
ENDBRANCH  13  16
BRANCH   1  18
ATOM     18  C   UNL     1       1.221   8.138  20.592  0.00  0.00    +0.000 C 
BRANCH  18  19
ATOM     19  C   UNL     1       0.930   6.658  20.918  0.00  0.00    +0.000 C 
BRANCH  19  21
ATOM     20  C   UNL     1       3.189   5.926  20.018  0.00  0.00    +0.000 C 
ATOM     21  C   UNL     1       1.929   5.602  20.396  0.00  0.00    +0.000 C 
ATOM     22  C   UNL     1       1.358   4.218  20.200  0.00  0.00    +0.000 C 
BRANCH  20  23
ATOM     23  C   UNL     1       4.186   5.077  19.227  0.00  0.00    +0.000 C 
BRANCH  23  30
ATOM     24  C   UNL     1       3.067   2.871  16.948  0.00  0.00    +0.000 C 
ATOM     25  C   UNL     1       4.059   3.972  16.856  0.00  0.00    +0.000 C 
ATOM     26  C   UNL     1       5.084   4.025  16.005  0.00  0.00    +0.000 C 
ATOM     27  C   UNL     1       5.737   5.309  16.211  0.00  0.00    +0.000 C 
ATOM     28  O   UNL     1       6.727   5.695  15.599  0.00  0.00    +0.000 OA
ATOM     29  O   UNL     1       5.063   6.017  17.148  0.00  0.00    +0.000 OA
ATOM     30  C   UNL     1       3.986   5.216  17.684  0.00  0.00    +0.000 C 
ENDBRANCH  23  30
BRANCH  23  31
ATOM     31  O   UNL     1       5.512   5.446  19.605  0.00  0.00    +0.000 OA
ATOM     32  H   UNL     1       6.058   4.643  19.554  0.00  0.00    +0.000 HD
ENDBRANCH  23  31
ENDBRANCH  20  23
ENDBRANCH  19  21
ENDBRANCH  18  19
ENDBRANCH   1  18
TORSDOF 7
ENDMDL
MODEL 8
REMARK VINA RESULT:      -7.3      5.905      9.140
REMARK  Name = 
REMARK  12 active torsions:
REMARK  status: ('A' for Active; 'I' for Inactive)
REMARK    1  A    between atoms: C_1  and  C_2
REMARK    2  A    between atoms: C_7  and  C_8
REMARK    3  A    between atoms: C_8  and  O_9
REMARK    4  A    between atoms: C_8  and  C_10
REMARK    5  A    between atoms: C_11  and  C_12
REMARK    6  A    between atoms: C_11  and  C_13
REMARK    7  A    between atoms: C_13  and  C_14
REMARK    8  A    between atoms: C_14  and  C_15
REMARK    9  A    between atoms: C_16  and  C_17
REMARK   10  A    between atoms: C_21  and  C_22
REMARK   11  A    between atoms: C_27  and  C_28
REMARK   12  A    between atoms: C_27  and  O_29
REMARK                            x       y       z     vdW  Elec       q    Type
REMARK                         _______ _______ _______ _____ _____    ______ ____
ROOT
ATOM      1  C   UNL     1      -0.315  10.851  18.771  0.00  0.00    +0.000 C 
ATOM      2  C   UNL     1      -0.221  11.504  20.252  0.00  0.00    +0.000 C 
ATOM      3  C   UNL     1      -0.019  10.411  21.312  0.00  0.00    +0.000 C 
ATOM      4  C   UNL     1       0.980  12.543  20.424  0.00  0.00    +0.000 C 
ATOM      5  C   UNL     1       0.660  13.810  21.315  0.00  0.00    +0.000 C 
ATOM      6  C   UNL     1      -0.361  13.583  22.456  0.00  0.00    +0.000 C 
ATOM      7  C   UNL     1      -1.654  12.881  21.979  0.00  0.00    +0.000 C 
ATOM      8  C   UNL     1      -2.103  11.824  23.017  0.00  0.00    +0.000 C 
ATOM      9  C   UNL     1      -2.882  13.778  21.701  0.00  0.00    +0.000 C 
ATOM     10  O   UNL     1      -3.551  13.249  20.516  0.00  0.00    +0.000 OA
ATOM     11  C   UNL     1      -2.785  12.131  20.019  0.00  0.00    +0.000 C 
ATOM     12  C   UNL     1      -2.651  12.117  18.507  0.00  0.00    +0.000 C 
ATOM     13  C   UNL     1      -1.774  10.918  18.088  0.00  0.00    +0.000 C 
ATOM     14  C   UNL     1      -2.629   9.646  18.273  0.00  0.00    +0.000 C 
ATOM     15  C   UNL     1      -1.423  12.407  20.550  0.00  0.00    +0.000 C 
ENDROOT
BRANCH  13  16
ATOM     16  O   UNL     1      -1.567  11.025  16.666  0.00  0.00    +0.000 OA
ATOM     17  H   UNL     1      -1.509  11.969  16.435  0.00  0.00    +0.000 HD
ENDBRANCH  13  16
BRANCH   1  18
ATOM     18  C   UNL     1       0.256   9.367  18.598  0.00  0.00    +0.000 C 
BRANCH  18  19
ATOM     19  C   UNL     1       1.499   9.175  17.702  0.00  0.00    +0.000 C 
BRANCH  19  21
ATOM     20  C   UNL     1       3.612   7.802  17.383  0.00  0.00    +0.000 C 
ATOM     21  C   UNL     1       2.558   8.149  18.161  0.00  0.00    +0.000 C 
ATOM     22  C   UNL     1       2.257   7.456  19.468  0.00  0.00    +0.000 C 
BRANCH  20  23
ATOM     23  C   UNL     1       4.568   6.621  17.559  0.00  0.00    +0.000 C 
BRANCH  23  30
ATOM     24  C   UNL     1       4.048   3.317  17.205  0.00  0.00    +0.000 C 
ATOM     25  C   UNL     1       4.940   4.261  16.484  0.00  0.00    +0.000 C 
ATOM     26  C   UNL     1       6.085   3.941  15.881  0.00  0.00    +0.000 C 
ATOM     27  C   UNL     1       6.578   5.153  15.243  0.00  0.00    +0.000 C 
ATOM     28  O   UNL     1       7.619   5.229  14.599  0.00  0.00    +0.000 OA
ATOM     29  O   UNL     1       5.695   6.162  15.440  0.00  0.00    +0.000 OA
ATOM     30  C   UNL     1       4.619   5.710  16.291  0.00  0.00    +0.000 C 
ENDBRANCH  23  30
BRANCH  23  31
ATOM     31  O   UNL     1       5.867   7.119  17.882  0.00  0.00    +0.000 OA
ATOM     32  H   UNL     1       6.247   6.518  18.544  0.00  0.00    +0.000 HD
ENDBRANCH  23  31
ENDBRANCH  20  23
ENDBRANCH  19  21
ENDBRANCH  18  19
ENDBRANCH   1  18
TORSDOF 7
ENDMDL
MODEL 9
REMARK VINA RESULT:      -7.3      4.974      8.543
REMARK  Name = 
REMARK  12 active torsions:
REMARK  status: ('A' for Active; 'I' for Inactive)
REMARK    1  A    between atoms: C_1  and  C_2
REMARK    2  A    between atoms: C_7  and  C_8
REMARK    3  A    between atoms: C_8  and  O_9
REMARK    4  A    between atoms: C_8  and  C_10
REMARK    5  A    between atoms: C_11  and  C_12
REMARK    6  A    between atoms: C_11  and  C_13
REMARK    7  A    between atoms: C_13  and  C_14
REMARK    8  A    between atoms: C_14  and  C_15
REMARK    9  A    between atoms: C_16  and  C_17
REMARK   10  A    between atoms: C_21  and  C_22
REMARK   11  A    between atoms: C_27  and  C_28
REMARK   12  A    between atoms: C_27  and  O_29
REMARK                            x       y       z     vdW  Elec       q    Type
REMARK                         _______ _______ _______ _____ _____    ______ ____
ROOT
ATOM      1  C   UNL     1       0.325   8.957  20.398  0.00  0.00    +0.000 C 
ATOM      2  C   UNL     1       0.226  10.242  19.413  0.00  0.00    +0.000 C 
ATOM      3  C   UNL     1       1.592  10.538  18.774  0.00  0.00    +0.000 C 
ATOM      4  C   UNL     1      -0.816  10.060  18.217  0.00  0.00    +0.000 C 
ATOM      5  C   UNL     1      -1.644  11.352  17.836  0.00  0.00    +0.000 C 
ATOM      6  C   UNL     1      -0.917  12.701  18.056  0.00  0.00    +0.000 C 
ATOM      7  C   UNL     1      -0.285  12.824  19.462  0.00  0.00    +0.000 C 
ATOM      8  C   UNL     1       1.112  13.483  19.364  0.00  0.00    +0.000 C 
ATOM      9  C   UNL     1      -1.077  13.622  20.523  0.00  0.00    +0.000 C 
ATOM     10  O   UNL     1      -0.924  12.925  21.798  0.00  0.00    +0.000 OA
ATOM     11  C   UNL     1      -0.146  11.730  21.575  0.00  0.00    +0.000 C 
ATOM     12  C   UNL     1      -0.679  10.518  22.318  0.00  0.00    +0.000 C 
ATOM     13  C   UNL     1       0.190   9.290  21.969  0.00  0.00    +0.000 C 
ATOM     14  C   UNL     1       1.534   9.462  22.708  0.00  0.00    +0.000 C 
ATOM     15  C   UNL     1      -0.372  11.458  20.130  0.00  0.00    +0.000 C 
ENDROOT
BRANCH  13  16
ATOM     16  O   UNL     1      -0.433   8.146  22.588  0.00  0.00    +0.000 OA
ATOM     17  H   UNL     1      -1.254   8.440  23.018  0.00  0.00    +0.000 HD
ENDBRANCH  13  16
BRANCH   1  18
ATOM     18  C   UNL     1       1.579   7.984  20.194  0.00  0.00    +0.000 C 
BRANCH  18  19
ATOM     19  C   UNL     1       1.434   6.518  20.655  0.00  0.00    +0.000 C 
BRANCH  19  21
ATOM     20  C   UNL     1       3.564   5.570  19.648  0.00  0.00    +0.000 C 
ATOM     21  C   UNL     1       2.236   5.445  19.886  0.00  0.00    +0.000 C 
ATOM     22  C   UNL     1       1.411   4.327  19.295  0.00  0.00    +0.000 C 
BRANCH  20  23
ATOM     23  C   UNL     1       4.430   4.763  18.679  0.00  0.00    +0.000 C 
BRANCH  23  30
ATOM     24  C   UNL     1       5.661   3.718  15.729  0.00  0.00    +0.000 C 
ATOM     25  C   UNL     1       5.788   5.008  16.453  0.00  0.00    +0.000 C 
ATOM     26  C   UNL     1       6.808   5.861  16.347  0.00  0.00    +0.000 C 
ATOM     27  C   UNL     1       6.476   7.017  17.166  0.00  0.00    +0.000 C 
ATOM     28  O   UNL     1       7.194   8.001  17.310  0.00  0.00    +0.000 OA
ATOM     29  O   UNL     1       5.246   6.852  17.710  0.00  0.00    +0.000 OA
ATOM     30  C   UNL     1       4.730   5.549  17.362  0.00  0.00    +0.000 C 
ENDBRANCH  23  30
BRANCH  23  31
ATOM     31  O   UNL     1       5.640   4.391  19.339  0.00  0.00    +0.000 OA
ATOM     32  H   UNL     1       5.817   3.463  19.109  0.00  0.00    +0.000 HD
ENDBRANCH  23  31
ENDBRANCH  20  23
ENDBRANCH  19  21
ENDBRANCH  18  19
ENDBRANCH   1  18
TORSDOF 7
ENDMDL
