MODEL 1
REMARK VINA RESULT:      -8.3      0.000      0.000
REMARK  Name = 
REMARK  9 active torsions:
REMARK  status: ('A' for Active; 'I' for Inactive)
REMARK    1  A    between atoms: C_1  and  C_2
REMARK    2  A    between atoms: C_4  and  C_5
REMARK    3  A    between atoms: C_5  and  N_6
REMARK    4  A    between atoms: C_9  and  N_10
REMARK    5  A    between atoms: C_11  and  C_13
REMARK    6  A    between atoms: C_24  and  O_25
REMARK    7  A    between atoms: O_25  and  C_26
REMARK    8  A    between atoms: C_26  and  C_27
REMARK    9  A    between atoms: C_27  and  N_28
REMARK                            x       y       z     vdW  Elec       q    Type
REMARK                         _______ _______ _______ _____ _____    ______ ____
ROOT
ATOM      1  N   UNL     1       1.850   4.626  19.974  0.00  0.00    +0.000 NA
ATOM      2  C   UNL     1       2.340   3.359  20.505  0.00  0.00    +0.000 C 
ATOM      3  C   UNL     1       3.082   2.681  19.364  0.00  0.00    +0.000 C 
ATOM      4  C   UNL     1       2.414   3.206  18.097  0.00  0.00    +0.000 C 
ATOM      5  C   UNL     1       1.632   4.451  18.542  0.00  0.00    +0.000 C 
ENDROOT
BRANCH   4   6
ATOM      6  N   UNL     1       3.376   3.516  17.047  0.00  0.00    +0.000 N 
ATOM      7  C   UNL     1       4.590   4.110  17.308  0.00  0.00    +0.000 C 
ATOM      8  O   UNL     1       4.964   4.427  18.429  0.00  0.00    +0.000 OA
ATOM      9  H   UNL     1       3.012   3.536  16.101  0.00  0.00    +0.000 HD
BRANCH   7  10
ATOM     10  C   UNL     1       5.455   4.385  16.123  0.00  0.00    +0.000 A 
ATOM     11  C   UNL     1       6.536   5.264  16.267  0.00  0.00    +0.000 A 
ATOM     12  C   UNL     1       7.368   5.541  15.183  0.00  0.00    +0.000 A 
ATOM     13  C   UNL     1       7.136   4.940  13.944  0.00  0.00    +0.000 A 
ATOM     14 CL   UNL     1       8.194   5.339  12.638  0.00  0.00    +0.000 Cl
ATOM     15  C   UNL     1       6.070   4.041  13.800  0.00  0.00    +0.000 A 
ATOM     16 CL   UNL     1       5.731   3.242  12.304  0.00  0.00    +0.000 Cl
ATOM     17  C   UNL     1       5.237   3.763  14.884  0.00  0.00    +0.000 A 
ENDBRANCH   7  10
ENDBRANCH   4   6
BRANCH   1  18
ATOM     18  C   UNL     1       2.554   5.841  20.378  0.00  0.00    +0.000 C 
BRANCH  18  22
ATOM     19  C   UNL     1      -0.371   9.548  22.126  0.00  0.00    +0.000 C 
ATOM     20  C   UNL     1       0.540   9.073  21.024  0.00  0.00    +0.000 A 
ATOM     21  C   UNL     1       1.109   7.785  21.183  0.00  0.00    +0.000 A 
ATOM     22  C   UNL     1       1.877   7.178  20.177  0.00  0.00    +0.000 A 
ATOM     23  C   UNL     1       2.067   7.878  18.983  0.00  0.00    +0.000 A 
ATOM     24  C   UNL     1       1.545   9.159  18.821  0.00  0.00    +0.000 A 
ATOM     25  C   UNL     1       0.810   9.784  19.837  0.00  0.00    +0.000 A 
BRANCH  25  26
ATOM     26  O   UNL     1       0.439  11.054  19.475  0.00  0.00    +0.000 OA
BRANCH  26  27
ATOM     27  C   UNL     1      -0.407  11.190  18.339  0.00  0.00    +0.000 C 
BRANCH  27  28
ATOM     28  C   UNL     1      -1.890  11.240  18.750  0.00  0.00    +0.000 C 
BRANCH  28  29
ATOM     29  N   UNL     1      -2.696  10.221  18.040  0.00  0.00    +0.000 NA
ATOM     30  C   UNL     1      -2.208   9.945  16.678  0.00  0.00    +0.000 C 
ATOM     31  C   UNL     1      -2.843  11.022  15.826  0.00  0.00    +0.000 C 
ATOM     32  C   UNL     1      -4.244  11.090  16.397  0.00  0.00    +0.000 C 
ATOM     33  C   UNL     1      -4.092  10.667  17.858  0.00  0.00    +0.000 C 
ENDBRANCH  28  29
ENDBRANCH  27  28
ENDBRANCH  26  27
ENDBRANCH  25  26
ENDBRANCH  18  22
ENDBRANCH   1  18
TORSDOF 8
ENDMDL
MODEL 2
REMARK VINA RESULT:      -8.3      0.916      1.623
REMARK  Name = 
REMARK  9 active torsions:
REMARK  status: ('A' for Active; 'I' for Inactive)
REMARK    1  A    between atoms: C_1  and  C_2
REMARK    2  A    between atoms: C_4  and  C_5
REMARK    3  A    between atoms: C_5  and  N_6
REMARK    4  A    between atoms: C_9  and  N_10
REMARK    5  A    between atoms: C_11  and  C_13
REMARK    6  A    between atoms: C_24  and  O_25
REMARK    7  A    between atoms: O_25  and  C_26
REMARK    8  A    between atoms: C_26  and  C_27
REMARK    9  A    between atoms: C_27  and  N_28
REMARK                            x       y       z     vdW  Elec       q    Type
REMARK                         _______ _______ _______ _____ _____    ______ ____
ROOT
ATOM      1  N   UNL     1       1.404   3.792  20.257  0.00  0.00    +0.000 NA
ATOM      2  C   UNL     1       1.823   2.429  20.564  0.00  0.00    +0.000 C 
ATOM      3  C   UNL     1       2.590   1.939  19.345  0.00  0.00    +0.000 C 
ATOM      4  C   UNL     1       1.999   2.716  18.173  0.00  0.00    +0.000 C 
ATOM      5  C   UNL     1       1.243   3.892  18.811  0.00  0.00    +0.000 C 
ENDROOT
BRANCH   4   6
ATOM      6  N   UNL     1       3.018   3.171  17.235  0.00  0.00    +0.000 N 
ATOM      7  C   UNL     1       4.242   3.645  17.646  0.00  0.00    +0.000 C 
ATOM      8  O   UNL     1       4.581   3.727  18.819  0.00  0.00    +0.000 OA
ATOM      9  H   UNL     1       2.696   3.385  16.298  0.00  0.00    +0.000 HD
BRANCH   7  10
ATOM     10  C   UNL     1       5.169   4.095  16.565  0.00  0.00    +0.000 A 
ATOM     11  C   UNL     1       6.180   5.010  16.882  0.00  0.00    +0.000 A 
ATOM     12  C   UNL     1       7.066   5.450  15.899  0.00  0.00    +0.000 A 
ATOM     13  C   UNL     1       6.959   4.976  14.590  0.00  0.00    +0.000 A 
ATOM     14 CL   UNL     1       8.077   5.573  13.417  0.00  0.00    +0.000 Cl
ATOM     15  C   UNL     1       5.963   4.041  14.272  0.00  0.00    +0.000 A 
ATOM     16 CL   UNL     1       5.780   3.394  12.679  0.00  0.00    +0.000 Cl
ATOM     17  C   UNL     1       5.076   3.601  15.255  0.00  0.00    +0.000 A 
ENDBRANCH   7  10
ENDBRANCH   4   6
BRANCH   1  18
ATOM     18  C   UNL     1       2.132   4.881  20.904  0.00  0.00    +0.000 C 
BRANCH  18  22
ATOM     19  C   UNL     1       3.122   8.300  17.343  0.00  0.00    +0.000 C 
ATOM     20  C   UNL     1       2.345   7.966  18.590  0.00  0.00    +0.000 A 
ATOM     21  C   UNL     1       2.551   6.676  19.139  0.00  0.00    +0.000 A 
ATOM     22  C   UNL     1       1.982   6.284  20.361  0.00  0.00    +0.000 A 
ATOM     23  C   UNL     1       1.197   7.213  21.049  0.00  0.00    +0.000 A 
ATOM     24  C   UNL     1       0.955   8.474  20.508  0.00  0.00    +0.000 A 
ATOM     25  C   UNL     1       1.490   8.856  19.271  0.00  0.00    +0.000 A 
BRANCH  25  26
ATOM     26  O   UNL     1       1.080  10.117  18.920  0.00  0.00    +0.000 OA
BRANCH  26  27
ATOM     27  C   UNL     1      -0.293  10.435  19.106  0.00  0.00    +0.000 C 
BRANCH  27  28
ATOM     28  C   UNL     1      -1.034  10.527  17.759  0.00  0.00    +0.000 C 
BRANCH  28  29
ATOM     29  N   UNL     1      -2.439  10.076  17.868  0.00  0.00    +0.000 NA
ATOM     30  C   UNL     1      -3.004   9.628  16.583  0.00  0.00    +0.000 C 
ATOM     31  C   UNL     1      -3.478  10.901  15.918  0.00  0.00    +0.000 C 
ATOM     32  C   UNL     1      -4.095  11.652  17.078  0.00  0.00    +0.000 C 
ATOM     33  C   UNL     1      -3.327  11.171  18.309  0.00  0.00    +0.000 C 
ENDBRANCH  28  29
ENDBRANCH  27  28
ENDBRANCH  26  27
ENDBRANCH  25  26
ENDBRANCH  18  22
ENDBRANCH   1  18
TORSDOF 8
ENDMDL
MODEL 3
REMARK VINA RESULT:      -8.0      5.068      8.788
REMARK  Name = 
REMARK  9 active torsions:
REMARK  status: ('A' for Active; 'I' for Inactive)
REMARK    1  A    between atoms: C_1  and  C_2
REMARK    2  A    between atoms: C_4  and  C_5
REMARK    3  A    between atoms: C_5  and  N_6
REMARK    4  A    between atoms: C_9  and  N_10
REMARK    5  A    between atoms: C_11  and  C_13
REMARK    6  A    between atoms: C_24  and  O_25
REMARK    7  A    between atoms: O_25  and  C_26
REMARK    8  A    between atoms: C_26  and  C_27
REMARK    9  A    between atoms: C_27  and  N_28
REMARK                            x       y       z     vdW  Elec       q    Type
REMARK                         _______ _______ _______ _____ _____    ______ ____
ROOT
ATOM      1  N   UNL     1       3.323   3.601  18.918  0.00  0.00    +0.000 NA
ATOM      2  C   UNL     1       2.033   2.921  18.962  0.00  0.00    +0.000 C 
ATOM      3  C   UNL     1       1.129   3.786  19.826  0.00  0.00    +0.000 C 
ATOM      4  C   UNL     1       2.074   4.505  20.783  0.00  0.00    +0.000 C 
ATOM      5  C   UNL     1       3.470   4.354  20.159  0.00  0.00    +0.000 C 
ENDROOT
BRANCH   4   6
ATOM      6  N   UNL     1       1.714   5.905  20.975  0.00  0.00    +0.000 N 
ATOM      7  C   UNL     1       1.759   6.826  19.954  0.00  0.00    +0.000 C 
ATOM      8  O   UNL     1       2.101   6.558  18.810  0.00  0.00    +0.000 OA
ATOM      9  H   UNL     1       1.699   6.233  21.934  0.00  0.00    +0.000 HD
BRANCH   7  10
ATOM     10  C   UNL     1       1.384   8.226  20.315  0.00  0.00    +0.000 A 
ATOM     11  C   UNL     1       1.108   8.526  21.655  0.00  0.00    +0.000 A 
ATOM     12  C   UNL     1       0.759   9.823  22.029  0.00  0.00    +0.000 A 
ATOM     13  C   UNL     1       0.688  10.838  21.072  0.00  0.00    +0.000 A 
ATOM     14 CL   UNL     1       0.233  12.418  21.600  0.00  0.00    +0.000 Cl
ATOM     15  C   UNL     1       0.987  10.549  19.734  0.00  0.00    +0.000 A 
ATOM     16 CL   UNL     1       0.941  11.756  18.496  0.00  0.00    +0.000 Cl
ATOM     17  C   UNL     1       1.337   9.251  19.358  0.00  0.00    +0.000 A 
ENDBRANCH   7  10
ENDBRANCH   4   6
BRANCH   1  18
ATOM     18  C   UNL     1       3.669   4.309  17.687  0.00  0.00    +0.000 C 
BRANCH  18  22
ATOM     19  C   UNL     1       8.167   5.683  19.484  0.00  0.00    +0.000 C 
ATOM     20  C   UNL     1       7.083   5.937  18.468  0.00  0.00    +0.000 A 
ATOM     21  C   UNL     1       5.959   5.074  18.511  0.00  0.00    +0.000 A 
ATOM     22  C   UNL     1       4.830   5.276  17.703  0.00  0.00    +0.000 A 
ATOM     23  C   UNL     1       4.828   6.375  16.840  0.00  0.00    +0.000 A 
ATOM     24  C   UNL     1       5.937   7.214  16.758  0.00  0.00    +0.000 A 
ATOM     25  C   UNL     1       7.081   6.994  17.536  0.00  0.00    +0.000 A 
BRANCH  25  26
ATOM     26  O   UNL     1       8.059   7.913  17.254  0.00  0.00    +0.000 OA
BRANCH  26  27
ATOM     27  C   UNL     1       7.893   9.227  17.774  0.00  0.00    +0.000 C 
BRANCH  27  28
ATOM     28  C   UNL     1       9.020   9.585  18.760  0.00  0.00    +0.000 C 
BRANCH  28  29
ATOM     29  N   UNL     1       9.102  11.043  19.001  0.00  0.00    +0.000 NA
ATOM     30  C   UNL     1      10.061  11.723  18.114  0.00  0.00    +0.000 C 
ATOM     31  C   UNL     1      11.398  11.548  18.800  0.00  0.00    +0.000 C 
ATOM     32  C   UNL     1      11.039  11.777  20.253  0.00  0.00    +0.000 C 
ATOM     33  C   UNL     1       9.578  11.339  20.368  0.00  0.00    +0.000 C 
ENDBRANCH  28  29
ENDBRANCH  27  28
ENDBRANCH  26  27
ENDBRANCH  25  26
ENDBRANCH  18  22
ENDBRANCH   1  18
TORSDOF 8
ENDMDL
MODEL 4
REMARK VINA RESULT:      -8.0      4.566      6.914
REMARK  Name = 
REMARK  9 active torsions:
REMARK  status: ('A' for Active; 'I' for Inactive)
REMARK    1  A    between atoms: C_1  and  C_2
REMARK    2  A    between atoms: C_4  and  C_5
REMARK    3  A    between atoms: C_5  and  N_6
REMARK    4  A    between atoms: C_9  and  N_10
REMARK    5  A    between atoms: C_11  and  C_13
REMARK    6  A    between atoms: C_24  and  O_25
REMARK    7  A    between atoms: O_25  and  C_26
REMARK    8  A    between atoms: C_26  and  C_27
REMARK    9  A    between atoms: C_27  and  N_28
REMARK                            x       y       z     vdW  Elec       q    Type
REMARK                         _______ _______ _______ _____ _____    ______ ____
ROOT
ATOM      1  N   UNL     1      -0.202  11.895  20.411  0.00  0.00    +0.000 NA
ATOM      2  C   UNL     1      -1.107  11.717  19.280  0.00  0.00    +0.000 C 
ATOM      3  C   UNL     1      -0.645  10.458  18.564  0.00  0.00    +0.000 C 
ATOM      4  C   UNL     1       0.849  10.368  18.856  0.00  0.00    +0.000 C 
ATOM      5  C   UNL     1       1.084  11.311  20.046  0.00  0.00    +0.000 C 
ENDROOT
BRANCH   4   6
ATOM      6  N   UNL     1       1.279   9.006  19.151  0.00  0.00    +0.000 N 
ATOM      7  C   UNL     1       2.135   8.307  18.331  0.00  0.00    +0.000 C 
ATOM      8  O   UNL     1       2.605   8.759  17.295  0.00  0.00    +0.000 OA
ATOM      9  H   UNL     1       0.716   8.497  19.823  0.00  0.00    +0.000 HD
BRANCH   7  10
ATOM     10  C   UNL     1       2.462   6.914  18.757  0.00  0.00    +0.000 A 
ATOM     11  C   UNL     1       2.126   6.509  20.055  0.00  0.00    +0.000 A 
ATOM     12  C   UNL     1       2.412   5.214  20.486  0.00  0.00    +0.000 A 
ATOM     13  C   UNL     1       3.030   4.305  19.625  0.00  0.00    +0.000 A 
ATOM     14 CL   UNL     1       3.372   2.723  20.226  0.00  0.00    +0.000 Cl
ATOM     15  C   UNL     1       3.347   4.697  18.317  0.00  0.00    +0.000 A 
ATOM     16 CL   UNL     1       4.095   3.623  17.187  0.00  0.00    +0.000 Cl
ATOM     17  C   UNL     1       3.061   5.993  17.884  0.00  0.00    +0.000 A 
ENDBRANCH   7  10
ENDBRANCH   4   6
BRANCH   1  18
ATOM     18  C   UNL     1      -0.712  11.559  21.739  0.00  0.00    +0.000 C 
BRANCH  18  22
ATOM     19  C   UNL     1      -4.617  12.248  24.841  0.00  0.00    +0.000 C 
ATOM     20  C   UNL     1      -3.560  12.892  23.981  0.00  0.00    +0.000 A 
ATOM     21  C   UNL     1      -2.669  12.016  23.311  0.00  0.00    +0.000 A 
ATOM     22  C   UNL     1      -1.719  12.480  22.388  0.00  0.00    +0.000 A 
ATOM     23  C   UNL     1      -1.672  13.852  22.127  0.00  0.00    +0.000 A 
ATOM     24  C   UNL     1      -2.516  14.731  22.800  0.00  0.00    +0.000 A 
ATOM     25  C   UNL     1      -3.440  14.276  23.750  0.00  0.00    +0.000 A 
BRANCH  25  26
ATOM     26  O   UNL     1      -4.127  15.320  24.316  0.00  0.00    +0.000 OA
BRANCH  26  27
ATOM     27  C   UNL     1      -5.126  15.952  23.525  0.00  0.00    +0.000 C 
BRANCH  27  28
ATOM     28  C   UNL     1      -6.408  15.101  23.458  0.00  0.00    +0.000 C 
BRANCH  28  29
ATOM     29  N   UNL     1      -6.868  14.903  22.066  0.00  0.00    +0.000 NA
ATOM     30  C   UNL     1      -7.572  13.625  21.865  0.00  0.00    +0.000 C 
ATOM     31  C   UNL     1      -6.466  12.620  21.628  0.00  0.00    +0.000 C 
ATOM     32  C   UNL     1      -5.521  13.397  20.735  0.00  0.00    +0.000 C 
ATOM     33  C   UNL     1      -5.733  14.861  21.121  0.00  0.00    +0.000 C 
ENDBRANCH  28  29
ENDBRANCH  27  28
ENDBRANCH  26  27
ENDBRANCH  25  26
ENDBRANCH  18  22
ENDBRANCH   1  18
TORSDOF 8
ENDMDL
MODEL 5
REMARK VINA RESULT:      -7.8      5.266      8.738
REMARK  Name = 
REMARK  9 active torsions:
REMARK  status: ('A' for Active; 'I' for Inactive)
REMARK    1  A    between atoms: C_1  and  C_2
REMARK    2  A    between atoms: C_4  and  C_5
REMARK    3  A    between atoms: C_5  and  N_6
REMARK    4  A    between atoms: C_9  and  N_10
REMARK    5  A    between atoms: C_11  and  C_13
REMARK    6  A    between atoms: C_24  and  O_25
REMARK    7  A    between atoms: O_25  and  C_26
REMARK    8  A    between atoms: C_26  and  C_27
REMARK    9  A    between atoms: C_27  and  N_28
REMARK                            x       y       z     vdW  Elec       q    Type
REMARK                         _______ _______ _______ _____ _____    ______ ____
ROOT
ATOM      1  N   UNL     1       4.229   3.251  17.943  0.00  0.00    +0.000 NA
ATOM      2  C   UNL     1       2.966   2.630  17.560  0.00  0.00    +0.000 C 
ATOM      3  C   UNL     1       1.880   3.389  18.306  0.00  0.00    +0.000 C 
ATOM      4  C   UNL     1       2.561   3.908  19.568  0.00  0.00    +0.000 C 
ATOM      5  C   UNL     1       4.067   3.794  19.288  0.00  0.00    +0.000 C 
ENDROOT
BRANCH   4   6
ATOM      6  N   UNL     1       2.172   5.275  19.891  0.00  0.00    +0.000 N 
ATOM      7  C   UNL     1       2.206   6.292  18.965  0.00  0.00    +0.000 C 
ATOM      8  O   UNL     1       2.563   6.142  17.804  0.00  0.00    +0.000 OA
ATOM      9  H   UNL     1       2.141   5.508  20.877  0.00  0.00    +0.000 HD
BRANCH   7  10
ATOM     10  C   UNL     1       1.800   7.642  19.456  0.00  0.00    +0.000 A 
ATOM     11  C   UNL     1       1.718   8.697  18.538  0.00  0.00    +0.000 A 
ATOM     12  C   UNL     1       1.338   9.970  18.960  0.00  0.00    +0.000 A 
ATOM     13  C   UNL     1       1.026  10.205  20.301  0.00  0.00    +0.000 A 
ATOM     14 CL   UNL     1       0.579  11.808  20.761  0.00  0.00    +0.000 Cl
ATOM     15  C   UNL     1       1.082   9.148  21.220  0.00  0.00    +0.000 A 
ATOM     16 CL   UNL     1       0.692   9.355  22.891  0.00  0.00    +0.000 Cl
ATOM     17  C   UNL     1       1.463   7.873  20.798  0.00  0.00    +0.000 A 
ENDBRANCH   7  10
ENDBRANCH   4   6
BRANCH   1  18
ATOM     18  C   UNL     1       4.872   4.126  16.965  0.00  0.00    +0.000 C 
BRANCH  18  22
ATOM     19  C   UNL     1       8.475   5.650  20.134  0.00  0.00    +0.000 C 
ATOM     20  C   UNL     1       7.654   5.968  18.911  0.00  0.00    +0.000 A 
ATOM     21  C   UNL     1       6.719   4.983  18.503  0.00  0.00    +0.000 A 
ATOM     22  C   UNL     1       5.811   5.204  17.456  0.00  0.00    +0.000 A 
ATOM     23  C   UNL     1       5.838   6.444  16.813  0.00  0.00    +0.000 A 
ATOM     24  C   UNL     1       6.773   7.411  17.177  0.00  0.00    +0.000 A 
ATOM     25  C   UNL     1       7.705   7.180  18.196  0.00  0.00    +0.000 A 
BRANCH  25  26
ATOM     26  O   UNL     1       8.552   8.250  18.347  0.00  0.00    +0.000 OA
BRANCH  26  27
ATOM     27  C   UNL     1       8.019   9.546  18.105  0.00  0.00    +0.000 C 
BRANCH  27  28
ATOM     28  C   UNL     1       9.121  10.621  18.150  0.00  0.00    +0.000 C 
BRANCH  28  29
ATOM     29  N   UNL     1       9.967  10.496  19.358  0.00  0.00    +0.000 NA
ATOM     30  C   UNL     1       9.305  10.983  20.581  0.00  0.00    +0.000 C 
ATOM     31  C   UNL     1       9.555  12.474  20.576  0.00  0.00    +0.000 C 
ATOM     32  C   UNL     1      10.996  12.550  20.116  0.00  0.00    +0.000 C 
ATOM     33  C   UNL     1      11.195  11.309  19.246  0.00  0.00    +0.000 C 
ENDBRANCH  28  29
ENDBRANCH  27  28
ENDBRANCH  26  27
ENDBRANCH  25  26
ENDBRANCH  18  22
ENDBRANCH   1  18
TORSDOF 8
ENDMDL
MODEL 6
REMARK VINA RESULT:      -7.8      4.976      8.644
REMARK  Name = 
REMARK  9 active torsions:
REMARK  status: ('A' for Active; 'I' for Inactive)
REMARK    1  A    between atoms: C_1  and  C_2
REMARK    2  A    between atoms: C_4  and  C_5
REMARK    3  A    between atoms: C_5  and  N_6
REMARK    4  A    between atoms: C_9  and  N_10
REMARK    5  A    between atoms: C_11  and  C_13
REMARK    6  A    between atoms: C_24  and  O_25
REMARK    7  A    between atoms: O_25  and  C_26
REMARK    8  A    between atoms: C_26  and  C_27
REMARK    9  A    between atoms: C_27  and  N_28
REMARK                            x       y       z     vdW  Elec       q    Type
REMARK                         _______ _______ _______ _____ _____    ______ ____
ROOT
ATOM      1  N   UNL     1       3.577   3.048  18.395  0.00  0.00    +0.000 NA
ATOM      2  C   UNL     1       2.360   2.246  18.325  0.00  0.00    +0.000 C 
ATOM      3  C   UNL     1       1.290   3.037  19.061  0.00  0.00    +0.000 C 
ATOM      4  C   UNL     1       2.054   3.866  20.088  0.00  0.00    +0.000 C 
ATOM      5  C   UNL     1       3.518   3.838  19.620  0.00  0.00    +0.000 C 
ENDROOT
BRANCH   4   6
ATOM      6  N   UNL     1       1.546   5.228  20.197  0.00  0.00    +0.000 N 
ATOM      7  C   UNL     1       2.339   6.332  19.984  0.00  0.00    +0.000 C 
ATOM      8  O   UNL     1       3.525   6.271  19.691  0.00  0.00    +0.000 OA
ATOM      9  H   UNL     1       0.672   5.339  20.698  0.00  0.00    +0.000 HD
BRANCH   7  10
ATOM     10  C   UNL     1       1.677   7.659  20.156  0.00  0.00    +0.000 A 
ATOM     11  C   UNL     1       1.632   8.537  19.065  0.00  0.00    +0.000 A 
ATOM     12  C   UNL     1       1.018   9.783  19.188  0.00  0.00    +0.000 A 
ATOM     13  C   UNL     1       0.434  10.165  20.398  0.00  0.00    +0.000 A 
ATOM     14 CL   UNL     1      -0.295  11.728  20.488  0.00  0.00    +0.000 Cl
ATOM     15  C   UNL     1       0.454   9.282  21.486  0.00  0.00    +0.000 A 
ATOM     16 CL   UNL     1      -0.264   9.675  23.008  0.00  0.00    +0.000 Cl
ATOM     17  C   UNL     1       1.069   8.034  21.364  0.00  0.00    +0.000 A 
ENDBRANCH   7  10
ENDBRANCH   4   6
BRANCH   1  18
ATOM     18  C   UNL     1       3.984   3.758  17.185  0.00  0.00    +0.000 C 
BRANCH  18  22
ATOM     19  C   UNL     1       8.235   5.494  19.251  0.00  0.00    +0.000 C 
ATOM     20  C   UNL     1       7.181   5.679  18.190  0.00  0.00    +0.000 A 
ATOM     21  C   UNL     1       6.147   4.710  18.149  0.00  0.00    +0.000 A 
ATOM     22  C   UNL     1       5.043   4.832  17.290  0.00  0.00    +0.000 A 
ATOM     23  C   UNL     1       4.974   5.956  16.463  0.00  0.00    +0.000 A 
ATOM     24  C   UNL     1       5.998   6.901  16.465  0.00  0.00    +0.000 A 
ATOM     25  C   UNL     1       7.120   6.763  17.293  0.00  0.00    +0.000 A 
BRANCH  25  26
ATOM     26  O   UNL     1       8.015   7.783  17.091  0.00  0.00    +0.000 OA
BRANCH  26  27
ATOM     27  C   UNL     1       8.147   8.753  18.122  0.00  0.00    +0.000 C 
BRANCH  27  28
ATOM     28  C   UNL     1       8.116  10.184  17.552  0.00  0.00    +0.000 C 
BRANCH  28  29
ATOM     29  N   UNL     1       8.589  11.182  18.536  0.00  0.00    +0.000 NA
ATOM     30  C   UNL     1       9.259  12.336  17.913  0.00  0.00    +0.000 C 
ATOM     31  C   UNL     1      10.687  11.878  17.711  0.00  0.00    +0.000 C 
ATOM     32  C   UNL     1      10.963  11.133  19.000  0.00  0.00    +0.000 C 
ATOM     33  C   UNL     1       9.599  10.607  19.448  0.00  0.00    +0.000 C 
ENDBRANCH  28  29
ENDBRANCH  27  28
ENDBRANCH  26  27
ENDBRANCH  25  26
ENDBRANCH  18  22
ENDBRANCH   1  18
TORSDOF 8
ENDMDL
MODEL 7
REMARK VINA RESULT:      -7.7      1.883      2.573
REMARK  Name = 
REMARK  9 active torsions:
REMARK  status: ('A' for Active; 'I' for Inactive)
REMARK    1  A    between atoms: C_1  and  C_2
REMARK    2  A    between atoms: C_4  and  C_5
REMARK    3  A    between atoms: C_5  and  N_6
REMARK    4  A    between atoms: C_9  and  N_10
REMARK    5  A    between atoms: C_11  and  C_13
REMARK    6  A    between atoms: C_24  and  O_25
REMARK    7  A    between atoms: O_25  and  C_26
REMARK    8  A    between atoms: C_26  and  C_27
REMARK    9  A    between atoms: C_27  and  N_28
REMARK                            x       y       z     vdW  Elec       q    Type
REMARK                         _______ _______ _______ _____ _____    ______ ____
ROOT
ATOM      1  N   UNL     1       1.593   3.936  20.597  0.00  0.00    +0.000 NA
ATOM      2  C   UNL     1       2.151   2.662  21.037  0.00  0.00    +0.000 C 
ATOM      3  C   UNL     1       2.933   2.113  19.854  0.00  0.00    +0.000 C 
ATOM      4  C   UNL     1       2.243   2.694  18.625  0.00  0.00    +0.000 C 
ATOM      5  C   UNL     1       1.390   3.858  19.155  0.00  0.00    +0.000 C 
ENDROOT
BRANCH   4   6
ATOM      6  N   UNL     1       3.190   3.136  17.608  0.00  0.00    +0.000 N 
ATOM      7  C   UNL     1       4.432   3.637  17.924  0.00  0.00    +0.000 C 
ATOM      8  O   UNL     1       4.846   3.758  19.069  0.00  0.00    +0.000 OA
ATOM      9  H   UNL     1       2.804   3.319  16.689  0.00  0.00    +0.000 HD
BRANCH   7  10
ATOM     10  C   UNL     1       5.278   4.069  16.772  0.00  0.00    +0.000 A 
ATOM     11  C   UNL     1       6.380   4.897  17.017  0.00  0.00    +0.000 A 
ATOM     12  C   UNL     1       7.195   5.316  15.966  0.00  0.00    +0.000 A 
ATOM     13  C   UNL     1       6.924   4.909  14.659  0.00  0.00    +0.000 A 
ATOM     14 CL   UNL     1       7.962   5.477  13.401  0.00  0.00    +0.000 Cl
ATOM     15  C   UNL     1       5.837   4.060  14.409  0.00  0.00    +0.000 A 
ATOM     16 CL   UNL     1       5.450   3.497  12.821  0.00  0.00    +0.000 Cl
ATOM     17  C   UNL     1       5.021   3.640  15.460  0.00  0.00    +0.000 A 
ENDBRANCH   7  10
ENDBRANCH   4   6
BRANCH   1  18
ATOM     18  C   UNL     1       2.226   5.155  21.097  0.00  0.00    +0.000 C 
BRANCH  18  22
ATOM     19  C   UNL     1       3.684   7.696  17.002  0.00  0.00    +0.000 C 
ATOM     20  C   UNL     1       2.772   7.651  18.201  0.00  0.00    +0.000 A 
ATOM     21  C   UNL     1       2.880   6.512  19.038  0.00  0.00    +0.000 A 
ATOM     22  C   UNL     1       2.177   6.404  20.247  0.00  0.00    +0.000 A 
ATOM     23  C   UNL     1       1.354   7.468  20.627  0.00  0.00    +0.000 A 
ATOM     24  C   UNL     1       1.208   8.580  19.801  0.00  0.00    +0.000 A 
ATOM     25  C   UNL     1       1.880   8.675  18.575  0.00  0.00    +0.000 A 
BRANCH  25  26
ATOM     26  O   UNL     1       1.548   9.831  17.915  0.00  0.00    +0.000 OA
BRANCH  26  27
ATOM     27  C   UNL     1       2.254  11.014  18.269  0.00  0.00    +0.000 C 
BRANCH  27  28
ATOM     28  C   UNL     1       1.403  11.925  19.172  0.00  0.00    +0.000 C 
BRANCH  28  29
ATOM     29  N   UNL     1       0.011  12.044  18.683  0.00  0.00    +0.000 NA
ATOM     30  C   UNL     1      -0.380  13.433  18.382  0.00  0.00    +0.000 C 
ATOM     31  C   UNL     1      -0.814  13.998  19.716  0.00  0.00    +0.000 C 
ATOM     32  C   UNL     1      -1.592  12.842  20.310  0.00  0.00    +0.000 C 
ATOM     33  C   UNL     1      -0.961  11.591  19.699  0.00  0.00    +0.000 C 
ENDBRANCH  28  29
ENDBRANCH  27  28
ENDBRANCH  26  27
ENDBRANCH  25  26
ENDBRANCH  18  22
ENDBRANCH   1  18
TORSDOF 8
ENDMDL
MODEL 8
REMARK VINA RESULT:      -7.6      4.445      6.690
REMARK  Name = 
REMARK  9 active torsions:
REMARK  status: ('A' for Active; 'I' for Inactive)
REMARK    1  A    between atoms: C_1  and  C_2
REMARK    2  A    between atoms: C_4  and  C_5
REMARK    3  A    between atoms: C_5  and  N_6
REMARK    4  A    between atoms: C_9  and  N_10
REMARK    5  A    between atoms: C_11  and  C_13
REMARK    6  A    between atoms: C_24  and  O_25
REMARK    7  A    between atoms: O_25  and  C_26
REMARK    8  A    between atoms: C_26  and  C_27
REMARK    9  A    between atoms: C_27  and  N_28
REMARK                            x       y       z     vdW  Elec       q    Type
REMARK                         _______ _______ _______ _____ _____    ______ ____
ROOT
ATOM      1  N   UNL     1      -0.000  11.901  20.213  0.00  0.00    +0.000 NA
ATOM      2  C   UNL     1      -1.111  11.557  19.332  0.00  0.00    +0.000 C 
ATOM      3  C   UNL     1      -0.713  10.266  18.636  0.00  0.00    +0.000 C 
ATOM      4  C   UNL     1       0.811  10.298  18.592  0.00  0.00    +0.000 C 
ATOM      5  C   UNL     1       1.220  11.367  19.619  0.00  0.00    +0.000 C 
ENDROOT
BRANCH   4   6
ATOM      6  N   UNL     1       1.406   9.002  18.894  0.00  0.00    +0.000 N 
ATOM      7  C   UNL     1       2.325   8.400  18.065  0.00  0.00    +0.000 C 
ATOM      8  O   UNL     1       2.718   8.891  17.016  0.00  0.00    +0.000 OA
ATOM      9  H   UNL     1       0.921   8.438  19.582  0.00  0.00    +0.000 HD
BRANCH   7  10
ATOM     10  C   UNL     1       2.824   7.062  18.500  0.00  0.00    +0.000 A 
ATOM     11  C   UNL     1       3.857   6.458  17.773  0.00  0.00    +0.000 A 
ATOM     12  C   UNL     1       4.351   5.210  18.153  0.00  0.00    +0.000 A 
ATOM     13  C   UNL     1       3.826   4.554  19.267  0.00  0.00    +0.000 A 
ATOM     14 CL   UNL     1       4.471   3.004  19.674  0.00  0.00    +0.000 Cl
ATOM     15  C   UNL     1       2.809   5.164  20.014  0.00  0.00    +0.000 A 
ATOM     16 CL   UNL     1       2.122   4.423  21.418  0.00  0.00    +0.000 Cl
ATOM     17  C   UNL     1       2.314   6.412  19.635  0.00  0.00    +0.000 A 
ENDBRANCH   7  10
ENDBRANCH   4   6
BRANCH   1  18
ATOM     18  C   UNL     1      -0.180  11.665  21.644  0.00  0.00    +0.000 C 
BRANCH  18  22
ATOM     19  C   UNL     1      -2.614  15.945  22.700  0.00  0.00    +0.000 C 
ATOM     20  C   UNL     1      -2.584  14.444  22.836  0.00  0.00    +0.000 A 
ATOM     21  C   UNL     1      -1.498  13.774  22.218  0.00  0.00    +0.000 A 
ATOM     22  C   UNL     1      -1.287  12.395  22.371  0.00  0.00    +0.000 A 
ATOM     23  C   UNL     1      -2.182  11.677  23.169  0.00  0.00    +0.000 A 
ATOM     24  C   UNL     1      -3.275  12.312  23.755  0.00  0.00    +0.000 A 
ATOM     25  C   UNL     1      -3.510  13.681  23.575  0.00  0.00    +0.000 A 
BRANCH  25  26
ATOM     26  O   UNL     1      -4.664  14.075  24.203  0.00  0.00    +0.000 OA
BRANCH  26  27
ATOM     27  C   UNL     1      -5.888  13.531  23.726  0.00  0.00    +0.000 C 
BRANCH  27  28
ATOM     28  C   UNL     1      -6.415  14.319  22.512  0.00  0.00    +0.000 C 
BRANCH  28  29
ATOM     29  N   UNL     1      -6.926  13.423  21.450  0.00  0.00    +0.000 NA
ATOM     30  C   UNL     1      -6.068  12.247  21.223  0.00  0.00    +0.000 C 
ATOM     31  C   UNL     1      -4.998  12.740  20.274  0.00  0.00    +0.000 C 
ATOM     32  C   UNL     1      -5.797  13.600  19.317  0.00  0.00    +0.000 C 
ATOM     33  C   UNL     1      -6.979  14.109  20.143  0.00  0.00    +0.000 C 
ENDBRANCH  28  29
ENDBRANCH  27  28
ENDBRANCH  26  27
ENDBRANCH  25  26
ENDBRANCH  18  22
ENDBRANCH   1  18
TORSDOF 8
ENDMDL
MODEL 9
REMARK VINA RESULT:      -7.6      2.239      2.753
REMARK  Name = 
REMARK  9 active torsions:
REMARK  status: ('A' for Active; 'I' for Inactive)
REMARK    1  A    between atoms: C_1  and  C_2
REMARK    2  A    between atoms: C_4  and  C_5
REMARK    3  A    between atoms: C_5  and  N_6
REMARK    4  A    between atoms: C_9  and  N_10
REMARK    5  A    between atoms: C_11  and  C_13
REMARK    6  A    between atoms: C_24  and  O_25
REMARK    7  A    between atoms: O_25  and  C_26
REMARK    8  A    between atoms: C_26  and  C_27
REMARK    9  A    between atoms: C_27  and  N_28
REMARK                            x       y       z     vdW  Elec       q    Type
REMARK                         _______ _______ _______ _____ _____    ______ ____
ROOT
ATOM      1  N   UNL     1       1.853   4.371  20.046  0.00  0.00    +0.000 NA
ATOM      2  C   UNL     1       2.360   3.096  20.543  0.00  0.00    +0.000 C 
ATOM      3  C   UNL     1       3.105   2.457  19.381  0.00  0.00    +0.000 C 
ATOM      4  C   UNL     1       2.427   3.008  18.131  0.00  0.00    +0.000 C 
ATOM      5  C   UNL     1       1.631   4.232  18.611  0.00  0.00    +0.000 C 
ENDROOT
BRANCH   4   6
ATOM      6  N   UNL     1       3.381   3.357  17.086  0.00  0.00    +0.000 N 
ATOM      7  C   UNL     1       4.597   3.939  17.361  0.00  0.00    +0.000 C 
ATOM      8  O   UNL     1       4.981   4.213  18.490  0.00  0.00    +0.000 OA
ATOM      9  H   UNL     1       3.010   3.413  16.145  0.00  0.00    +0.000 HD
BRANCH   7  10
ATOM     10  C   UNL     1       5.454   4.259  16.180  0.00  0.00    +0.000 A 
ATOM     11  C   UNL     1       6.563   5.095  16.359  0.00  0.00    +0.000 A 
ATOM     12  C   UNL     1       7.388   5.412  15.280  0.00  0.00    +0.000 A 
ATOM     13  C   UNL     1       7.121   4.892  14.012  0.00  0.00    +0.000 A 
ATOM     14 CL   UNL     1       8.171   5.337  12.716  0.00  0.00    +0.000 Cl
ATOM     15  C   UNL     1       6.026   4.036  13.832  0.00  0.00    +0.000 A 
ATOM     16 CL   UNL     1       5.642   3.338  12.297  0.00  0.00    +0.000 Cl
ATOM     17  C   UNL     1       5.200   3.718  14.911  0.00  0.00    +0.000 A 
ENDBRANCH   7  10
ENDBRANCH   4   6
BRANCH   1  18
ATOM     18  C   UNL     1       2.543   5.583  20.480  0.00  0.00    +0.000 C 
BRANCH  18  22
ATOM     19  C   UNL     1      -0.288   9.595  21.594  0.00  0.00    +0.000 C 
ATOM     20  C   UNL     1       0.685   8.966  20.630  0.00  0.00    +0.000 A 
ATOM     21  C   UNL     1       1.157   7.671  20.962  0.00  0.00    +0.000 A 
ATOM     22  C   UNL     1       1.971   6.928  20.092  0.00  0.00    +0.000 A 
ATOM     23  C   UNL     1       2.308   7.495  18.861  0.00  0.00    +0.000 A 
ATOM     24  C   UNL     1       1.882   8.780  18.533  0.00  0.00    +0.000 A 
ATOM     25  C   UNL     1       1.102   9.540  19.413  0.00  0.00    +0.000 A 
BRANCH  25  26
ATOM     26  O   UNL     1       0.844  10.786  18.900  0.00  0.00    +0.000 OA
BRANCH  26  27
ATOM     27  C   UNL     1       1.959  11.576  18.504  0.00  0.00    +0.000 C 
BRANCH  27  28
ATOM     28  C   UNL     1       2.012  12.901  19.287  0.00  0.00    +0.000 C 
BRANCH  28  29
ATOM     29  N   UNL     1       1.169  13.946  18.664  0.00  0.00    +0.000 NA
ATOM     30  C   UNL     1       1.761  15.292  18.748  0.00  0.00    +0.000 C 
ATOM     31  C   UNL     1       1.355  15.798  20.114  0.00  0.00    +0.000 C 
ATOM     32  C   UNL     1      -0.080  15.324  20.211  0.00  0.00    +0.000 C 
ATOM     33  C   UNL     1      -0.136  14.065  19.346  0.00  0.00    +0.000 C 
ENDBRANCH  28  29
ENDBRANCH  27  28
ENDBRANCH  26  27
ENDBRANCH  25  26
ENDBRANCH  18  22
ENDBRANCH   1  18
TORSDOF 8
ENDMDL
