MODEL 1
REMARK VINA RESULT:      -6.5      0.000      0.000
REMARK  Name = 
REMARK  7 active torsions:
REMARK  status: ('A' for Active; 'I' for Inactive)
REMARK    1  A    between atoms: C_1  and  C_2
REMARK    2  A    between atoms: C_2  and  C_3
REMARK    3  A    between atoms: C_2  and  C_4
REMARK    4  A    between atoms: C_2  and  N_5
REMARK    5  A    between atoms: C_7  and  O_8
REMARK    6  A    between atoms: C_9  and  O_10
REMARK    7  A    between atoms: N_12  and  C_13
REMARK                            x       y       z     vdW  Elec       q    Type
REMARK                         _______ _______ _______ _____ _____    ______ ____
ROOT
ATOM      1  N   UNL     1       3.110   3.523  19.295  0.00  0.00    +0.000 NA
ATOM      2  C   UNL     1       3.410   4.499  18.522  0.00  0.00    +0.000 C 
ATOM      3  C   UNL     1       3.092   5.927  18.277  0.00  0.00    +0.000 C 
ATOM      4  C   UNL     1       4.001   6.006  17.273  0.00  0.00    +0.000 C 
ATOM      5  C   UNL     1       4.335   4.571  17.384  0.00  0.00    +0.000 C 
ATOM      6  N   UNL     1       5.049   3.670  16.797  0.00  0.00    +0.000 NA
ENDROOT
BRANCH   6   7
ATOM      7  C   UNL     1       5.822   4.051  15.680  0.00  0.00    +0.000 A 
ATOM      8  C   UNL     1       5.560   3.637  14.371  0.00  0.00    +0.000 A 
ATOM      9  C   UNL     1       6.312   4.115  13.299  0.00  0.00    +0.000 A 
ATOM     10  C   UNL     1       7.386   4.941  13.573  0.00  0.00    +0.000 A 
ATOM     11  N   UNL     1       7.741   5.308  14.821  0.00  0.00    +0.000 NA
ATOM     12  C   UNL     1       6.954   4.855  15.837  0.00  0.00    +0.000 A 
ENDBRANCH   6   7
BRANCH   1  14
ATOM     13  C   UNL     1       0.701   3.525  19.855  0.00  0.00    +0.000 C 
ATOM     14  C   UNL     1       2.134   3.671  20.386  0.00  0.00    +0.000 C 
ATOM     15  C   UNL     1       2.373   4.968  21.173  0.00  0.00    +0.000 C 
ATOM     16  C   UNL     1       2.366   2.503  21.365  0.00  0.00    +0.000 C 
ENDBRANCH   1  14
BRANCH   3  17
ATOM     17  O   UNL     1       2.309   6.830  18.752  0.00  0.00    +0.000 OA
ATOM     18  H   UNL     1       1.448   6.806  18.306  0.00  0.00    +0.000 HD
ENDBRANCH   3  17
BRANCH   4  19
ATOM     19  O   UNL     1       4.355   6.973  16.508  0.00  0.00    +0.000 OA
ATOM     20  H   UNL     1       5.286   7.197  16.726  0.00  0.00    +0.000 HD
ENDBRANCH   4  19
TORSDOF 4
ENDMDL
MODEL 2
REMARK VINA RESULT:      -6.5      1.900      2.304
REMARK  Name = 
REMARK  7 active torsions:
REMARK  status: ('A' for Active; 'I' for Inactive)
REMARK    1  A    between atoms: C_1  and  C_2
REMARK    2  A    between atoms: C_2  and  C_3
REMARK    3  A    between atoms: C_2  and  C_4
REMARK    4  A    between atoms: C_2  and  N_5
REMARK    5  A    between atoms: C_7  and  O_8
REMARK    6  A    between atoms: C_9  and  O_10
REMARK    7  A    between atoms: N_12  and  C_13
REMARK                            x       y       z     vdW  Elec       q    Type
REMARK                         _______ _______ _______ _____ _____    ______ ____
ROOT
ATOM      1  N   UNL     1       3.285   3.921  18.108  0.00  0.00    +0.000 NA
ATOM      2  C   UNL     1       4.525   4.152  17.887  0.00  0.00    +0.000 C 
ATOM      3  C   UNL     1       5.796   4.444  18.594  0.00  0.00    +0.000 C 
ATOM      4  C   UNL     1       6.494   4.455  17.431  0.00  0.00    +0.000 C 
ATOM      5  C   UNL     1       5.273   4.243  16.627  0.00  0.00    +0.000 C 
ATOM      6  N   UNL     1       4.893   4.188  15.395  0.00  0.00    +0.000 NA
ENDROOT
BRANCH   6   7
ATOM      7  C   UNL     1       5.865   4.352  14.385  0.00  0.00    +0.000 A 
ATOM      8  C   UNL     1       5.922   3.578  13.223  0.00  0.00    +0.000 A 
ATOM      9  C   UNL     1       6.858   3.845  12.225  0.00  0.00    +0.000 A 
ATOM     10  C   UNL     1       7.791   4.839  12.453  0.00  0.00    +0.000 A 
ATOM     11  N   UNL     1       7.840   5.563  13.590  0.00  0.00    +0.000 NA
ATOM     12  C   UNL     1       6.881   5.302  14.522  0.00  0.00    +0.000 A 
ENDBRANCH   6   7
BRANCH   1  14
ATOM     13  C   UNL     1       2.828   5.265  20.134  0.00  0.00    +0.000 C 
ATOM     14  C   UNL     1       2.735   3.883  19.473  0.00  0.00    +0.000 C 
ATOM     15  C   UNL     1       3.377   2.758  20.299  0.00  0.00    +0.000 C 
ATOM     16  C   UNL     1       1.235   3.549  19.350  0.00  0.00    +0.000 C 
ENDBRANCH   1  14
BRANCH   3  17
ATOM     17  O   UNL     1       6.202   4.626  19.800  0.00  0.00    +0.000 OA
ATOM     18  H   UNL     1       6.251   3.781  20.275  0.00  0.00    +0.000 HD
ENDBRANCH   3  17
BRANCH   4  19
ATOM     19  O   UNL     1       7.737   4.643  17.177  0.00  0.00    +0.000 OA
ATOM     20  H   UNL     1       7.865   5.604  17.019  0.00  0.00    +0.000 HD
ENDBRANCH   4  19
TORSDOF 4
ENDMDL
MODEL 3
REMARK VINA RESULT:      -6.4      3.985      6.392
REMARK  Name = 
REMARK  7 active torsions:
REMARK  status: ('A' for Active; 'I' for Inactive)
REMARK    1  A    between atoms: C_1  and  C_2
REMARK    2  A    between atoms: C_2  and  C_3
REMARK    3  A    between atoms: C_2  and  C_4
REMARK    4  A    between atoms: C_2  and  N_5
REMARK    5  A    between atoms: C_7  and  O_8
REMARK    6  A    between atoms: C_9  and  O_10
REMARK    7  A    between atoms: N_12  and  C_13
REMARK                            x       y       z     vdW  Elec       q    Type
REMARK                         _______ _______ _______ _____ _____    ______ ____
ROOT
ATOM      1  N   UNL     1       3.856   5.827  17.273  0.00  0.00    +0.000 NA
ATOM      2  C   UNL     1       3.236   6.352  18.263  0.00  0.00    +0.000 C 
ATOM      3  C   UNL     1       2.850   6.081  19.668  0.00  0.00    +0.000 C 
ATOM      4  C   UNL     1       2.276   7.303  19.797  0.00  0.00    +0.000 C 
ATOM      5  C   UNL     1       2.545   7.642  18.384  0.00  0.00    +0.000 C 
ATOM      6  N   UNL     1       2.303   8.573  17.523  0.00  0.00    +0.000 NA
ENDROOT
BRANCH   6   7
ATOM      7  C   UNL     1       1.564   9.699  17.945  0.00  0.00    +0.000 A 
ATOM      8  C   UNL     1       0.175   9.708  18.098  0.00  0.00    +0.000 A 
ATOM      9  C   UNL     1      -0.488  10.829  18.597  0.00  0.00    +0.000 A 
ATOM     10  C   UNL     1       0.255  11.966  18.853  0.00  0.00    +0.000 A 
ATOM     11  N   UNL     1       1.585  12.047  18.645  0.00  0.00    +0.000 NA
ATOM     12  C   UNL     1       2.201  10.916  18.198  0.00  0.00    +0.000 A 
ENDBRANCH   6   7
BRANCH   1  14
ATOM     13  C   UNL     1       3.412   3.409  17.552  0.00  0.00    +0.000 C 
ATOM     14  C   UNL     1       4.479   4.497  17.368  0.00  0.00    +0.000 C 
ATOM     15  C   UNL     1       5.577   4.473  18.442  0.00  0.00    +0.000 C 
ATOM     16  C   UNL     1       5.168   4.220  16.017  0.00  0.00    +0.000 C 
ENDBRANCH   1  14
BRANCH   3  17
ATOM     17  O   UNL     1       2.962   5.129  20.526  0.00  0.00    +0.000 OA
ATOM     18  H   UNL     1       3.353   5.457  21.351  0.00  0.00    +0.000 HD
ENDBRANCH   3  17
BRANCH   4  19
ATOM     19  O   UNL     1       1.684   7.876  20.780  0.00  0.00    +0.000 OA
ATOM     20  H   UNL     1       2.059   7.505  21.608  0.00  0.00    +0.000 HD
ENDBRANCH   4  19
TORSDOF 4
ENDMDL
MODEL 4
REMARK VINA RESULT:      -6.4      0.167      1.045
REMARK  Name = 
REMARK  7 active torsions:
REMARK  status: ('A' for Active; 'I' for Inactive)
REMARK    1  A    between atoms: C_1  and  C_2
REMARK    2  A    between atoms: C_2  and  C_3
REMARK    3  A    between atoms: C_2  and  C_4
REMARK    4  A    between atoms: C_2  and  N_5
REMARK    5  A    between atoms: C_7  and  O_8
REMARK    6  A    between atoms: C_9  and  O_10
REMARK    7  A    between atoms: N_12  and  C_13
REMARK                            x       y       z     vdW  Elec       q    Type
REMARK                         _______ _______ _______ _____ _____    ______ ____
ROOT
ATOM      1  N   UNL     1       3.112   3.544  19.477  0.00  0.00    +0.000 NA
ATOM      2  C   UNL     1       3.402   4.515  18.694  0.00  0.00    +0.000 C 
ATOM      3  C   UNL     1       3.079   5.941  18.443  0.00  0.00    +0.000 C 
ATOM      4  C   UNL     1       3.975   6.014  17.428  0.00  0.00    +0.000 C 
ATOM      5  C   UNL     1       4.312   4.580  17.544  0.00  0.00    +0.000 C 
ATOM      6  N   UNL     1       5.019   3.675  16.954  0.00  0.00    +0.000 NA
ENDROOT
BRANCH   6   7
ATOM      7  C   UNL     1       5.778   4.049  15.824  0.00  0.00    +0.000 A 
ATOM      8  C   UNL     1       5.484   3.646  14.519  0.00  0.00    +0.000 A 
ATOM      9  C   UNL     1       6.225   4.117  13.435  0.00  0.00    +0.000 A 
ATOM     10  C   UNL     1       7.317   4.924  13.692  0.00  0.00    +0.000 A 
ATOM     11  N   UNL     1       7.701   5.279  14.936  0.00  0.00    +0.000 NA
ATOM     12  C   UNL     1       6.925   4.834  15.964  0.00  0.00    +0.000 A 
ENDBRANCH   6   7
BRANCH   1  14
ATOM     13  C   UNL     1       2.327   5.059  21.268  0.00  0.00    +0.000 C 
ATOM     14  C   UNL     1       2.150   3.699  20.579  0.00  0.00    +0.000 C 
ATOM     15  C   UNL     1       2.213   2.505  21.544  0.00  0.00    +0.000 C 
ATOM     16  C   UNL     1       0.740   3.697  19.956  0.00  0.00    +0.000 C 
ENDBRANCH   1  14
BRANCH   3  17
ATOM     17  O   UNL     1       2.302   6.847  18.922  0.00  0.00    +0.000 OA
ATOM     18  H   UNL     1       2.819   7.574  19.303  0.00  0.00    +0.000 HD
ENDBRANCH   3  17
BRANCH   4  19
ATOM     19  O   UNL     1       4.319   6.976  16.651  0.00  0.00    +0.000 OA
ATOM     20  H   UNL     1       5.134   6.698  16.180  0.00  0.00    +0.000 HD
ENDBRANCH   4  19
TORSDOF 4
ENDMDL
MODEL 5
REMARK VINA RESULT:      -6.4      1.155      1.285
REMARK  Name = 
REMARK  7 active torsions:
REMARK  status: ('A' for Active; 'I' for Inactive)
REMARK    1  A    between atoms: C_1  and  C_2
REMARK    2  A    between atoms: C_2  and  C_3
REMARK    3  A    between atoms: C_2  and  C_4
REMARK    4  A    between atoms: C_2  and  N_5
REMARK    5  A    between atoms: C_7  and  O_8
REMARK    6  A    between atoms: C_9  and  O_10
REMARK    7  A    between atoms: N_12  and  C_13
REMARK                            x       y       z     vdW  Elec       q    Type
REMARK                         _______ _______ _______ _____ _____    ______ ____
ROOT
ATOM      1  N   UNL     1       3.462   3.240  17.990  0.00  0.00    +0.000 NA
ATOM      2  C   UNL     1       3.913   4.299  17.429  0.00  0.00    +0.000 C 
ATOM      3  C   UNL     1       3.810   5.778  17.485  0.00  0.00    +0.000 C 
ATOM      4  C   UNL     1       4.735   5.926  16.504  0.00  0.00    +0.000 C 
ATOM      5  C   UNL     1       4.855   4.466  16.314  0.00  0.00    +0.000 C 
ATOM      6  N   UNL     1       5.436   3.609  15.544  0.00  0.00    +0.000 NA
ENDROOT
BRANCH   6   7
ATOM      7  C   UNL     1       6.273   4.093  14.515  0.00  0.00    +0.000 A 
ATOM      8  C   UNL     1       6.161   3.714  13.175  0.00  0.00    +0.000 A 
ATOM      9  C   UNL     1       6.965   4.291  12.193  0.00  0.00    +0.000 A 
ATOM     10  C   UNL     1       7.941   5.185  12.591  0.00  0.00    +0.000 A 
ATOM     11  N   UNL     1       8.154   5.526  13.878  0.00  0.00    +0.000 NA
ATOM     12  C   UNL     1       7.319   4.974  14.802  0.00  0.00    +0.000 A 
ENDBRANCH   6   7
BRANCH   1  14
ATOM     13  C   UNL     1       1.185   3.947  18.650  0.00  0.00    +0.000 C 
ATOM     14  C   UNL     1       2.503   3.303  19.104  0.00  0.00    +0.000 C 
ATOM     15  C   UNL     1       3.126   3.975  20.337  0.00  0.00    +0.000 C 
ATOM     16  C   UNL     1       2.174   1.851  19.504  0.00  0.00    +0.000 C 
ENDBRANCH   1  14
BRANCH   3  17
ATOM     17  O   UNL     1       3.162   6.669  18.147  0.00  0.00    +0.000 OA
ATOM     18  H   UNL     1       3.579   6.826  19.008  0.00  0.00    +0.000 HD
ENDBRANCH   3  17
BRANCH   4  19
ATOM     19  O   UNL     1       5.238   6.966  15.946  0.00  0.00    +0.000 OA
ATOM     20  H   UNL     1       6.158   7.064  16.277  0.00  0.00    +0.000 HD
ENDBRANCH   4  19
TORSDOF 4
ENDMDL
MODEL 6
REMARK VINA RESULT:      -6.3      3.920      5.387
REMARK  Name = 
REMARK  7 active torsions:
REMARK  status: ('A' for Active; 'I' for Inactive)
REMARK    1  A    between atoms: C_1  and  C_2
REMARK    2  A    between atoms: C_2  and  C_3
REMARK    3  A    between atoms: C_2  and  C_4
REMARK    4  A    between atoms: C_2  and  N_5
REMARK    5  A    between atoms: C_7  and  O_8
REMARK    6  A    between atoms: C_9  and  O_10
REMARK    7  A    between atoms: N_12  and  C_13
REMARK                            x       y       z     vdW  Elec       q    Type
REMARK                         _______ _______ _______ _____ _____    ______ ____
ROOT
ATOM      1  N   UNL     1       0.776   9.224  20.524  0.00  0.00    +0.000 NA
ATOM      2  C   UNL     1       1.451   8.902  19.484  0.00  0.00    +0.000 C 
ATOM      3  C   UNL     1       1.899   9.441  18.177  0.00  0.00    +0.000 C 
ATOM      4  C   UNL     1       2.594   8.311  17.896  0.00  0.00    +0.000 C 
ATOM      5  C   UNL     1       2.140   7.653  19.138  0.00  0.00    +0.000 C 
ATOM      6  N   UNL     1       2.205   6.511  19.738  0.00  0.00    +0.000 NA
ENDROOT
BRANCH   6   7
ATOM      7  C   UNL     1       2.930   5.470  19.119  0.00  0.00    +0.000 A 
ATOM      8  C   UNL     1       2.383   4.588  18.184  0.00  0.00    +0.000 A 
ATOM      9  C   UNL     1       3.173   3.632  17.547  0.00  0.00    +0.000 A 
ATOM     10  C   UNL     1       4.496   3.518  17.931  0.00  0.00    +0.000 A 
ATOM     11  N   UNL     1       5.060   4.283  18.888  0.00  0.00    +0.000 NA
ATOM     12  C   UNL     1       4.265   5.234  19.454  0.00  0.00    +0.000 A 
ENDBRANCH   6   7
BRANCH   1  14
ATOM     13  C   UNL     1      -0.942  10.749  19.606  0.00  0.00    +0.000 C 
ATOM     14  C   UNL     1       0.154  10.550  20.663  0.00  0.00    +0.000 C 
ATOM     15  C   UNL     1       1.213  11.663  20.672  0.00  0.00    +0.000 C 
ATOM     16  C   UNL     1      -0.544  10.584  22.037  0.00  0.00    +0.000 C 
ENDBRANCH   1  14
BRANCH   3  17
ATOM     17  O   UNL     1       1.764  10.518  17.487  0.00  0.00    +0.000 OA
ATOM     18  H   UNL     1       2.352  10.506  16.716  0.00  0.00    +0.000 HD
ENDBRANCH   3  17
BRANCH   4  19
ATOM     19  O   UNL     1       3.310   7.971  16.888  0.00  0.00    +0.000 OA
ATOM     20  H   UNL     1       3.928   7.268  17.187  0.00  0.00    +0.000 HD
ENDBRANCH   4  19
TORSDOF 4
ENDMDL
MODEL 7
REMARK VINA RESULT:      -6.2      4.016      6.569
REMARK  Name = 
REMARK  7 active torsions:
REMARK  status: ('A' for Active; 'I' for Inactive)
REMARK    1  A    between atoms: C_1  and  C_2
REMARK    2  A    between atoms: C_2  and  C_3
REMARK    3  A    between atoms: C_2  and  C_4
REMARK    4  A    between atoms: C_2  and  N_5
REMARK    5  A    between atoms: C_7  and  O_8
REMARK    6  A    between atoms: C_9  and  O_10
REMARK    7  A    between atoms: N_12  and  C_13
REMARK                            x       y       z     vdW  Elec       q    Type
REMARK                         _______ _______ _______ _____ _____    ______ ____
ROOT
ATOM      1  N   UNL     1       3.841   5.972  17.266  0.00  0.00    +0.000 NA
ATOM      2  C   UNL     1       3.219   6.479  18.265  0.00  0.00    +0.000 C 
ATOM      3  C   UNL     1       2.841   6.185  19.668  0.00  0.00    +0.000 C 
ATOM      4  C   UNL     1       2.257   7.400  19.815  0.00  0.00    +0.000 C 
ATOM      5  C   UNL     1       2.517   7.761  18.406  0.00  0.00    +0.000 C 
ATOM      6  N   UNL     1       2.265   8.702  17.559  0.00  0.00    +0.000 NA
ENDROOT
BRANCH   6   7
ATOM      7  C   UNL     1       1.518   9.816  17.998  0.00  0.00    +0.000 A 
ATOM      8  C   UNL     1       2.087  11.023  18.410  0.00  0.00    +0.000 A 
ATOM      9  C   UNL     1       1.291  12.115  18.754  0.00  0.00    +0.000 A 
ATOM     10  C   UNL     1      -0.081  11.945  18.763  0.00  0.00    +0.000 A 
ATOM     11  N   UNL     1      -0.687  10.779  18.458  0.00  0.00    +0.000 NA
ATOM     12  C   UNL     1       0.125   9.750  18.085  0.00  0.00    +0.000 A 
ENDBRANCH   6   7
BRANCH   1  14
ATOM     13  C   UNL     1       3.418   3.548  17.515  0.00  0.00    +0.000 C 
ATOM     14  C   UNL     1       4.475   4.646  17.341  0.00  0.00    +0.000 C 
ATOM     15  C   UNL     1       5.578   4.618  18.410  0.00  0.00    +0.000 C 
ATOM     16  C   UNL     1       5.160   4.393  15.984  0.00  0.00    +0.000 C 
ENDBRANCH   1  14
BRANCH   3  17
ATOM     17  O   UNL     1       2.963   5.223  20.513  0.00  0.00    +0.000 OA
ATOM     18  H   UNL     1       2.258   4.569  20.391  0.00  0.00    +0.000 HD
ENDBRANCH   3  17
BRANCH   4  19
ATOM     19  O   UNL     1       1.663   7.955  20.808  0.00  0.00    +0.000 OA
ATOM     20  H   UNL     1       1.682   8.926  20.659  0.00  0.00    +0.000 HD
ENDBRANCH   4  19
TORSDOF 4
ENDMDL
MODEL 8
REMARK VINA RESULT:      -6.2      1.473      6.230
REMARK  Name = 
REMARK  7 active torsions:
REMARK  status: ('A' for Active; 'I' for Inactive)
REMARK    1  A    between atoms: C_1  and  C_2
REMARK    2  A    between atoms: C_2  and  C_3
REMARK    3  A    between atoms: C_2  and  C_4
REMARK    4  A    between atoms: C_2  and  N_5
REMARK    5  A    between atoms: C_7  and  O_8
REMARK    6  A    between atoms: C_9  and  O_10
REMARK    7  A    between atoms: N_12  and  C_13
REMARK                            x       y       z     vdW  Elec       q    Type
REMARK                         _______ _______ _______ _____ _____    ______ ____
ROOT
ATOM      1  N   UNL     1       5.216   3.976  15.777  0.00  0.00    +0.000 NA
ATOM      2  C   UNL     1       4.909   4.581  16.863  0.00  0.00    +0.000 C 
ATOM      3  C   UNL     1       5.139   5.854  17.589  0.00  0.00    +0.000 C 
ATOM      4  C   UNL     1       4.313   5.482  18.599  0.00  0.00    +0.000 C 
ATOM      5  C   UNL     1       4.080   4.153  17.996  0.00  0.00    +0.000 C 
ATOM      6  N   UNL     1       3.488   3.035  18.256  0.00  0.00    +0.000 NA
ENDROOT
BRANCH   6   7
ATOM      7  C   UNL     1       2.784   2.917  19.474  0.00  0.00    +0.000 A 
ATOM      8  C   UNL     1       1.420   3.185  19.616  0.00  0.00    +0.000 A 
ATOM      9  C   UNL     1       0.765   2.970  20.828  0.00  0.00    +0.000 A 
ATOM     10  C   UNL     1       1.519   2.568  21.914  0.00  0.00    +0.000 A 
ATOM     11  N   UNL     1       2.853   2.375  21.862  0.00  0.00    +0.000 NA
ATOM     12  C   UNL     1       3.447   2.553  20.648  0.00  0.00    +0.000 A 
ENDBRANCH   6   7
BRANCH   1  14
ATOM     13  C   UNL     1       6.120   3.748  13.486  0.00  0.00    +0.000 C 
ATOM     14  C   UNL     1       6.084   4.597  14.764  0.00  0.00    +0.000 C 
ATOM     15  C   UNL     1       7.474   4.908  15.338  0.00  0.00    +0.000 C 
ATOM     16  C   UNL     1       5.445   5.947  14.383  0.00  0.00    +0.000 C 
ENDBRANCH   1  14
BRANCH   3  17
ATOM     17  O   UNL     1       5.808   6.940  17.431  0.00  0.00    +0.000 OA
ATOM     18  H   UNL     1       6.681   6.868  17.848  0.00  0.00    +0.000 HD
ENDBRANCH   3  17
BRANCH   4  19
ATOM     19  O   UNL     1       3.953   6.075  19.677  0.00  0.00    +0.000 OA
ATOM     20  H   UNL     1       4.750   6.174  20.242  0.00  0.00    +0.000 HD
ENDBRANCH   4  19
TORSDOF 4
ENDMDL
MODEL 9
REMARK VINA RESULT:      -6.2      1.438      6.235
REMARK  Name = 
REMARK  7 active torsions:
REMARK  status: ('A' for Active; 'I' for Inactive)
REMARK    1  A    between atoms: C_1  and  C_2
REMARK    2  A    between atoms: C_2  and  C_3
REMARK    3  A    between atoms: C_2  and  C_4
REMARK    4  A    between atoms: C_2  and  N_5
REMARK    5  A    between atoms: C_7  and  O_8
REMARK    6  A    between atoms: C_9  and  O_10
REMARK    7  A    between atoms: N_12  and  C_13
REMARK                            x       y       z     vdW  Elec       q    Type
REMARK                         _______ _______ _______ _____ _____    ______ ____
ROOT
ATOM      1  N   UNL     1       5.207   4.065  15.798  0.00  0.00    +0.000 NA
ATOM      2  C   UNL     1       4.871   4.666  16.878  0.00  0.00    +0.000 C 
ATOM      3  C   UNL     1       5.049   5.951  17.597  0.00  0.00    +0.000 C 
ATOM      4  C   UNL     1       4.232   5.555  18.605  0.00  0.00    +0.000 C 
ATOM      5  C   UNL     1       4.052   4.214  18.010  0.00  0.00    +0.000 C 
ATOM      6  N   UNL     1       3.500   3.077  18.274  0.00  0.00    +0.000 NA
ENDROOT
BRANCH   6   7
ATOM      7  C   UNL     1       2.794   2.941  19.488  0.00  0.00    +0.000 A 
ATOM      8  C   UNL     1       1.430   3.206  19.631  0.00  0.00    +0.000 A 
ATOM      9  C   UNL     1       0.773   2.972  20.839  0.00  0.00    +0.000 A 
ATOM     10  C   UNL     1       1.525   2.555  21.921  0.00  0.00    +0.000 A 
ATOM     11  N   UNL     1       2.859   2.363  21.868  0.00  0.00    +0.000 NA
ATOM     12  C   UNL     1       3.455   2.560  20.658  0.00  0.00    +0.000 A 
ENDBRANCH   6   7
BRANCH   1  14
ATOM     13  C   UNL     1       7.489   4.887  15.310  0.00  0.00    +0.000 C 
ATOM     14  C   UNL     1       6.057   4.712  14.786  0.00  0.00    +0.000 C 
ATOM     15  C   UNL     1       5.421   6.014  14.276  0.00  0.00    +0.000 C 
ATOM     16  C   UNL     1       6.139   3.753  13.582  0.00  0.00    +0.000 C 
ENDBRANCH   1  14
BRANCH   3  17
ATOM     17  O   UNL     1       5.678   7.060  17.435  0.00  0.00    +0.000 OA
ATOM     18  H   UNL     1       5.161   7.802  17.786  0.00  0.00    +0.000 HD
ENDBRANCH   3  17
BRANCH   4  19
ATOM     19  O   UNL     1       3.843   6.141  19.677  0.00  0.00    +0.000 OA
ATOM     20  H   UNL     1       4.488   5.922  20.385  0.00  0.00    +0.000 HD
ENDBRANCH   4  19
TORSDOF 4
ENDMDL
