MODEL 1
REMARK VINA RESULT:      -7.5      0.000      0.000
REMARK  Name = 
REMARK  3 active torsions:
REMARK  status: ('A' for Active; 'I' for Inactive)
REMARK    1  A    between atoms: C_1  and  C_2
REMARK    2  A    between atoms: N_4  and  N_5
REMARK    3  A    between atoms: N_5  and  C_6
REMARK                            x       y       z     vdW  Elec       q    Type
REMARK                         _______ _______ _______ _____ _____    ______ ____
ROOT
ATOM      1  C   UNL     1       1.481   7.444  21.099  0.00  0.00    +0.000 C 
ATOM      2  C   UNL     1       1.997   6.648  19.958  0.00  0.00    +0.000 A 
ATOM      3  C   UNL     1       2.760   7.120  18.916  0.00  0.00    +0.000 A 
ATOM      4  N   UNL     1       3.166   6.059  18.140  0.00  0.00    +0.000 N 
ATOM      5  C   UNL     1       2.511   4.916  18.559  0.00  0.00    +0.000 A 
ATOM      6  C   UNL     1       2.500   3.615  18.033  0.00  0.00    +0.000 A 
ATOM      7  C   UNL     1       1.730   2.648  18.689  0.00  0.00    +0.000 A 
ATOM      8  C   UNL     1       1.016   2.959  19.843  0.00  0.00    +0.000 A 
ATOM      9  C   UNL     1       1.042   4.255  20.367  0.00  0.00    +0.000 A 
ATOM     10  C   UNL     1       1.788   5.256  19.709  0.00  0.00    +0.000 A 
ENDROOT
BRANCH   4  11
ATOM     11  N   UNL     1       4.050   6.138  17.069  0.00  0.00    +0.000 N 
ATOM     12  H   UNL     1       4.087   7.089  16.708  0.00  0.00    +0.000 HD
BRANCH  11  13
ATOM     13  C   UNL     1       5.338   5.538  17.095  0.00  0.00    +0.000 A 
ATOM     14  C   UNL     1       6.179   5.626  18.208  0.00  0.00    +0.000 A 
ATOM     15  C   UNL     1       7.457   5.091  18.131  0.00  0.00    +0.000 A 
ATOM     16  N   UNL     1       7.933   4.431  17.053  0.00  0.00    +0.000 NA
ATOM     17  C   UNL     1       7.079   4.289  16.013  0.00  0.00    +0.000 A 
ATOM     18  C   UNL     1       5.795   4.807  15.997  0.00  0.00    +0.000 A 
ATOM     19  F   UNL     1       5.016   4.648  14.916  0.00  0.00    +0.000 F 
ENDBRANCH  11  13
ENDBRANCH   4  11
TORSDOF 2
ENDMDL
MODEL 2
REMARK VINA RESULT:      -7.4      2.206      5.504
REMARK  Name = 
REMARK  3 active torsions:
REMARK  status: ('A' for Active; 'I' for Inactive)
REMARK    1  A    between atoms: C_1  and  C_2
REMARK    2  A    between atoms: N_4  and  N_5
REMARK    3  A    between atoms: N_5  and  C_6
REMARK                            x       y       z     vdW  Elec       q    Type
REMARK                         _______ _______ _______ _____ _____    ______ ____
ROOT
ATOM      1  C   UNL     1       7.828   7.608  17.843  0.00  0.00    +0.000 C 
ATOM      2  C   UNL     1       7.126   6.301  17.811  0.00  0.00    +0.000 A 
ATOM      3  C   UNL     1       6.710   5.574  18.903  0.00  0.00    +0.000 A 
ATOM      4  N   UNL     1       5.970   4.499  18.469  0.00  0.00    +0.000 N 
ATOM      5  C   UNL     1       6.062   4.411  17.093  0.00  0.00    +0.000 A 
ATOM      6  C   UNL     1       5.582   3.443  16.197  0.00  0.00    +0.000 A 
ATOM      7  C   UNL     1       5.831   3.630  14.833  0.00  0.00    +0.000 A 
ATOM      8  C   UNL     1       6.514   4.754  14.374  0.00  0.00    +0.000 A 
ATOM      9  C   UNL     1       6.979   5.718  15.273  0.00  0.00    +0.000 A 
ATOM     10  C   UNL     1       6.765   5.541  16.657  0.00  0.00    +0.000 A 
ENDROOT
BRANCH   4  11
ATOM     11  N   UNL     1       5.286   3.610  19.292  0.00  0.00    +0.000 N 
ATOM     12  H   UNL     1       5.679   3.620  20.231  0.00  0.00    +0.000 HD
BRANCH  11  13
ATOM     13  C   UNL     1       3.868   3.532  19.321  0.00  0.00    +0.000 A 
ATOM     14  C   UNL     1       3.071   4.594  19.758  0.00  0.00    +0.000 A 
ATOM     15  C   UNL     1       1.697   4.417  19.840  0.00  0.00    +0.000 A 
ATOM     16  N   UNL     1       1.061   3.284  19.470  0.00  0.00    +0.000 NA
ATOM     17  C   UNL     1       1.840   2.292  18.979  0.00  0.00    +0.000 A 
ATOM     18  C   UNL     1       3.219   2.377  18.879  0.00  0.00    +0.000 A 
ATOM     19  F   UNL     1       3.926   1.341  18.405  0.00  0.00    +0.000 F 
ENDBRANCH  11  13
ENDBRANCH   4  11
TORSDOF 2
ENDMDL
MODEL 3
REMARK VINA RESULT:      -7.4      2.315      5.604
REMARK  Name = 
REMARK  3 active torsions:
REMARK  status: ('A' for Active; 'I' for Inactive)
REMARK    1  A    between atoms: C_1  and  C_2
REMARK    2  A    between atoms: N_4  and  N_5
REMARK    3  A    between atoms: N_5  and  C_6
REMARK                            x       y       z     vdW  Elec       q    Type
REMARK                         _______ _______ _______ _____ _____    ______ ____
ROOT
ATOM      1  C   UNL     1       7.789   7.660  17.839  0.00  0.00    +0.000 C 
ATOM      2  C   UNL     1       7.131   6.333  17.756  0.00  0.00    +0.000 A 
ATOM      3  C   UNL     1       6.725   5.558  18.817  0.00  0.00    +0.000 A 
ATOM      4  N   UNL     1       6.026   4.474  18.339  0.00  0.00    +0.000 N 
ATOM      5  C   UNL     1       6.139   4.434  16.962  0.00  0.00    +0.000 A 
ATOM      6  C   UNL     1       5.701   3.482  16.028  0.00  0.00    +0.000 A 
ATOM      7  C   UNL     1       5.961   3.722  14.674  0.00  0.00    +0.000 A 
ATOM      8  C   UNL     1       6.613   4.881  14.262  0.00  0.00    +0.000 A 
ATOM      9  C   UNL     1       7.035   5.830  15.198  0.00  0.00    +0.000 A 
ATOM     10  C   UNL     1       6.809   5.600  16.572  0.00  0.00    +0.000 A 
ENDROOT
BRANCH   4  11
ATOM     11  N   UNL     1       5.362   3.537  19.123  0.00  0.00    +0.000 N 
ATOM     12  H   UNL     1       5.714   3.557  20.078  0.00  0.00    +0.000 HD
BRANCH  11  13
ATOM     13  C   UNL     1       3.950   3.376  19.091  0.00  0.00    +0.000 A 
ATOM     14  C   UNL     1       3.343   2.203  18.633  0.00  0.00    +0.000 A 
ATOM     15  C   UNL     1       1.959   2.149  18.548  0.00  0.00    +0.000 A 
ATOM     16  N   UNL     1       1.142   3.152  18.936  0.00  0.00    +0.000 NA
ATOM     17  C   UNL     1       1.743   4.251  19.448  0.00  0.00    +0.000 A 
ATOM     18  C   UNL     1       3.116   4.397  19.552  0.00  0.00    +0.000 A 
ATOM     19  F   UNL     1       3.639   5.529  20.046  0.00  0.00    +0.000 F 
ENDBRANCH  11  13
ENDBRANCH   4  11
TORSDOF 2
ENDMDL
MODEL 4
REMARK VINA RESULT:      -7.3      1.506      1.572
REMARK  Name = 
REMARK  3 active torsions:
REMARK  status: ('A' for Active; 'I' for Inactive)
REMARK    1  A    between atoms: C_1  and  C_2
REMARK    2  A    between atoms: N_4  and  N_5
REMARK    3  A    between atoms: N_5  and  C_6
REMARK                            x       y       z     vdW  Elec       q    Type
REMARK                         _______ _______ _______ _____ _____    ______ ____
ROOT
ATOM      1  C   UNL     1       1.539   6.735  20.739  0.00  0.00    +0.000 C 
ATOM      2  C   UNL     1       2.365   5.664  20.130  0.00  0.00    +0.000 A 
ATOM      3  C   UNL     1       3.695   5.755  19.792  0.00  0.00    +0.000 A 
ATOM      4  N   UNL     1       4.143   4.517  19.395  0.00  0.00    +0.000 N 
ATOM      5  C   UNL     1       3.064   3.659  19.286  0.00  0.00    +0.000 A 
ATOM      6  C   UNL     1       2.980   2.337  18.821  0.00  0.00    +0.000 A 
ATOM      7  C   UNL     1       1.727   1.714  18.834  0.00  0.00    +0.000 A 
ATOM      8  C   UNL     1       0.601   2.376  19.316  0.00  0.00    +0.000 A 
ATOM      9  C   UNL     1       0.695   3.689  19.787  0.00  0.00    +0.000 A 
ATOM     10  C   UNL     1       1.942   4.350  19.760  0.00  0.00    +0.000 A 
ENDROOT
BRANCH   4  11
ATOM     11  N   UNL     1       5.463   4.197  19.096  0.00  0.00    +0.000 N 
ATOM     12  H   UNL     1       5.585   3.186  19.062  0.00  0.00    +0.000 HD
BRANCH  11  13
ATOM     13  C   UNL     1       6.191   4.846  18.063  0.00  0.00    +0.000 A 
ATOM     14  C   UNL     1       7.040   5.927  18.316  0.00  0.00    +0.000 A 
ATOM     15  C   UNL     1       7.653   6.568  17.247  0.00  0.00    +0.000 A 
ATOM     16  N   UNL     1       7.524   6.176  15.961  0.00  0.00    +0.000 NA
ATOM     17  C   UNL     1       6.759   5.081  15.742  0.00  0.00    +0.000 A 
ATOM     18  C   UNL     1       6.097   4.393  16.745  0.00  0.00    +0.000 A 
ATOM     19  F   UNL     1       5.335   3.331  16.446  0.00  0.00    +0.000 F 
ENDBRANCH  11  13
ENDBRANCH   4  11
TORSDOF 2
ENDMDL
MODEL 5
REMARK VINA RESULT:      -7.2      1.682      3.017
REMARK  Name = 
REMARK  3 active torsions:
REMARK  status: ('A' for Active; 'I' for Inactive)
REMARK    1  A    between atoms: C_1  and  C_2
REMARK    2  A    between atoms: N_4  and  N_5
REMARK    3  A    between atoms: N_5  and  C_6
REMARK                            x       y       z     vdW  Elec       q    Type
REMARK                         _______ _______ _______ _____ _____    ______ ____
ROOT
ATOM      1  C   UNL     1       1.824   2.886  21.536  0.00  0.00    +0.000 C 
ATOM      2  C   UNL     1       2.379   3.535  20.323  0.00  0.00    +0.000 A 
ATOM      3  C   UNL     1       3.089   2.915  19.321  0.00  0.00    +0.000 A 
ATOM      4  N   UNL     1       3.300   3.812  18.300  0.00  0.00    +0.000 N 
ATOM      5  C   UNL     1       2.900   5.070  18.712  0.00  0.00    +0.000 A 
ATOM      6  C   UNL     1       3.005   6.322  18.086  0.00  0.00    +0.000 A 
ATOM      7  C   UNL     1       2.496   7.437  18.760  0.00  0.00    +0.000 A 
ATOM      8  C   UNL     1       1.882   7.308  20.004  0.00  0.00    +0.000 A 
ATOM      9  C   UNL     1       1.772   6.055  20.614  0.00  0.00    +0.000 A 
ATOM     10  C   UNL     1       2.301   4.917  19.969  0.00  0.00    +0.000 A 
ENDROOT
BRANCH   4  11
ATOM     11  N   UNL     1       3.878   3.510  17.071  0.00  0.00    +0.000 N 
ATOM     12  H   UNL     1       3.166   3.471  16.344  0.00  0.00    +0.000 HD
BRANCH  11  13
ATOM     13  C   UNL     1       5.064   4.141  16.608  0.00  0.00    +0.000 A 
ATOM     14  C   UNL     1       5.223   4.547  15.280  0.00  0.00    +0.000 A 
ATOM     15  C   UNL     1       6.441   5.077  14.879  0.00  0.00    +0.000 A 
ATOM     16  N   UNL     1       7.484   5.282  15.712  0.00  0.00    +0.000 NA
ATOM     17  C   UNL     1       7.288   4.953  17.010  0.00  0.00    +0.000 A 
ATOM     18  C   UNL     1       6.112   4.401  17.493  0.00  0.00    +0.000 A 
ATOM     19  F   UNL     1       6.002   4.077  18.790  0.00  0.00    +0.000 F 
ENDBRANCH  11  13
ENDBRANCH   4  11
TORSDOF 2
ENDMDL
MODEL 6
REMARK VINA RESULT:      -7.2      1.726      5.421
REMARK  Name = 
REMARK  3 active torsions:
REMARK  status: ('A' for Active; 'I' for Inactive)
REMARK    1  A    between atoms: C_1  and  C_2
REMARK    2  A    between atoms: N_4  and  N_5
REMARK    3  A    between atoms: N_5  and  C_6
REMARK                            x       y       z     vdW  Elec       q    Type
REMARK                         _______ _______ _______ _____ _____    ______ ____
ROOT
ATOM      1  C   UNL     1       7.848   5.842  19.148  0.00  0.00    +0.000 C 
ATOM      2  C   UNL     1       6.613   5.544  18.382  0.00  0.00    +0.000 A 
ATOM      3  C   UNL     1       5.328   5.559  18.872  0.00  0.00    +0.000 A 
ATOM      4  N   UNL     1       4.449   5.379  17.830  0.00  0.00    +0.000 N 
ATOM      5  C   UNL     1       5.159   5.054  16.689  0.00  0.00    +0.000 A 
ATOM      6  C   UNL     1       4.724   4.678  15.408  0.00  0.00    +0.000 A 
ATOM      7  C   UNL     1       5.696   4.409  14.438  0.00  0.00    +0.000 A 
ATOM      8  C   UNL     1       7.053   4.533  14.726  0.00  0.00    +0.000 A 
ATOM      9  C   UNL     1       7.476   4.920  16.001  0.00  0.00    +0.000 A 
ATOM     10  C   UNL     1       6.518   5.171  17.006  0.00  0.00    +0.000 A 
ENDROOT
BRANCH   4  11
ATOM     11  N   UNL     1       3.063   5.456  17.924  0.00  0.00    +0.000 N 
ATOM     12  H   UNL     1       2.652   5.618  17.007  0.00  0.00    +0.000 HD
BRANCH  11  13
ATOM     13  C   UNL     1       2.296   4.532  18.684  0.00  0.00    +0.000 A 
ATOM     14  C   UNL     1       1.816   4.835  19.962  0.00  0.00    +0.000 A 
ATOM     15  C   UNL     1       1.149   3.854  20.682  0.00  0.00    +0.000 A 
ATOM     16  N   UNL     1       0.879   2.621  20.201  0.00  0.00    +0.000 NA
ATOM     17  C   UNL     1       1.285   2.369  18.935  0.00  0.00    +0.000 A 
ATOM     18  C   UNL     1       1.972   3.283  18.153  0.00  0.00    +0.000 A 
ATOM     19  F   UNL     1       2.364   2.950  16.914  0.00  0.00    +0.000 F 
ENDBRANCH  11  13
ENDBRANCH   4  11
TORSDOF 2
ENDMDL
MODEL 7
REMARK VINA RESULT:      -7.2      1.232      1.680
REMARK  Name = 
REMARK  3 active torsions:
REMARK  status: ('A' for Active; 'I' for Inactive)
REMARK    1  A    between atoms: C_1  and  C_2
REMARK    2  A    between atoms: N_4  and  N_5
REMARK    3  A    between atoms: N_5  and  C_6
REMARK                            x       y       z     vdW  Elec       q    Type
REMARK                         _______ _______ _______ _____ _____    ______ ____
ROOT
ATOM      1  C   UNL     1       1.383   6.488  21.030  0.00  0.00    +0.000 C 
ATOM      2  C   UNL     1       2.035   6.013  19.785  0.00  0.00    +0.000 A 
ATOM      3  C   UNL     1       2.790   6.773  18.921  0.00  0.00    +0.000 A 
ATOM      4  N   UNL     1       3.345   5.951  17.969  0.00  0.00    +0.000 N 
ATOM      5  C   UNL     1       2.802   4.685  18.091  0.00  0.00    +0.000 A 
ATOM      6  C   UNL     1       2.959   3.535  17.302  0.00  0.00    +0.000 A 
ATOM      7  C   UNL     1       2.271   2.378  17.684  0.00  0.00    +0.000 A 
ATOM      8  C   UNL     1       1.474   2.360  18.826  0.00  0.00    +0.000 A 
ATOM      9  C   UNL     1       1.332   3.507  19.612  0.00  0.00    +0.000 A 
ATOM     10  C   UNL     1       1.993   4.696  19.234  0.00  0.00    +0.000 A 
ENDROOT
BRANCH   4  11
ATOM     11  N   UNL     1       4.264   6.346  17.002  0.00  0.00    +0.000 N 
ATOM     12  H   UNL     1       4.388   7.357  17.022  0.00  0.00    +0.000 HD
BRANCH  11  13
ATOM     13  C   UNL     1       5.498   5.672  16.799  0.00  0.00    +0.000 A 
ATOM     14  C   UNL     1       5.901   5.217  15.540  0.00  0.00    +0.000 A 
ATOM     15  C   UNL     1       7.079   4.491  15.432  0.00  0.00    +0.000 A 
ATOM     16  N   UNL     1       7.904   4.235  16.470  0.00  0.00    +0.000 NA
ATOM     17  C   UNL     1       7.537   4.747  17.667  0.00  0.00    +0.000 A 
ATOM     18  C   UNL     1       6.371   5.467  17.870  0.00  0.00    +0.000 A 
ATOM     19  F   UNL     1       6.062   5.920  19.094  0.00  0.00    +0.000 F 
ENDBRANCH  11  13
ENDBRANCH   4  11
TORSDOF 2
ENDMDL
MODEL 8
REMARK VINA RESULT:      -7.2      2.370      5.839
REMARK  Name = 
REMARK  3 active torsions:
REMARK  status: ('A' for Active; 'I' for Inactive)
REMARK    1  A    between atoms: C_1  and  C_2
REMARK    2  A    between atoms: N_4  and  N_5
REMARK    3  A    between atoms: N_5  and  C_6
REMARK                            x       y       z     vdW  Elec       q    Type
REMARK                         _______ _______ _______ _____ _____    ______ ____
ROOT
ATOM      1  C   UNL     1       5.674   5.095  14.415  0.00  0.00    +0.000 C 
ATOM      2  C   UNL     1       5.596   4.796  15.866  0.00  0.00    +0.000 A 
ATOM      3  C   UNL     1       4.750   3.894  16.467  0.00  0.00    +0.000 A 
ATOM      4  N   UNL     1       5.077   3.789  17.798  0.00  0.00    +0.000 N 
ATOM      5  C   UNL     1       6.007   4.763  18.113  0.00  0.00    +0.000 A 
ATOM      6  C   UNL     1       6.571   5.135  19.344  0.00  0.00    +0.000 A 
ATOM      7  C   UNL     1       7.508   6.175  19.349  0.00  0.00    +0.000 A 
ATOM      8  C   UNL     1       7.888   6.805  18.167  0.00  0.00    +0.000 A 
ATOM      9  C   UNL     1       7.329   6.420  16.944  0.00  0.00    +0.000 A 
ATOM     10  C   UNL     1       6.362   5.393  16.914  0.00  0.00    +0.000 A 
ENDROOT
BRANCH   4  11
ATOM     11  N   UNL     1       4.517   2.886  18.696  0.00  0.00    +0.000 N 
ATOM     12  H   UNL     1       5.176   2.672  19.442  0.00  0.00    +0.000 HD
BRANCH  11  13
ATOM     13  C   UNL     1       3.193   3.021  19.191  0.00  0.00    +0.000 A 
ATOM     14  C   UNL     1       2.901   3.744  20.351  0.00  0.00    +0.000 A 
ATOM     15  C   UNL     1       1.596   3.762  20.824  0.00  0.00    +0.000 A 
ATOM     16  N   UNL     1       0.561   3.162  20.198  0.00  0.00    +0.000 NA
ATOM     17  C   UNL     1       0.847   2.530  19.036  0.00  0.00    +0.000 A 
ATOM     18  C   UNL     1       2.123   2.447  18.502  0.00  0.00    +0.000 A 
ATOM     19  F   UNL     1       2.332   1.780  17.357  0.00  0.00    +0.000 F 
ENDBRANCH  11  13
ENDBRANCH   4  11
TORSDOF 2
ENDMDL
MODEL 9
REMARK VINA RESULT:      -7.2      2.813      5.364
REMARK  Name = 
REMARK  3 active torsions:
REMARK  status: ('A' for Active; 'I' for Inactive)
REMARK    1  A    between atoms: C_1  and  C_2
REMARK    2  A    between atoms: N_4  and  N_5
REMARK    3  A    between atoms: N_5  and  C_6
REMARK                            x       y       z     vdW  Elec       q    Type
REMARK                         _______ _______ _______ _____ _____    ______ ____
ROOT
ATOM      1  C   UNL     1       4.821   3.985  16.406  0.00  0.00    +0.000 C 
ATOM      2  C   UNL     1       3.996   4.433  17.555  0.00  0.00    +0.000 A 
ATOM      3  C   UNL     1       4.173   5.587  18.282  0.00  0.00    +0.000 A 
ATOM      4  N   UNL     1       3.126   5.727  19.163  0.00  0.00    +0.000 N 
ATOM      5  C   UNL     1       2.367   4.572  19.151  0.00  0.00    +0.000 A 
ATOM      6  C   UNL     1       1.270   4.181  19.935  0.00  0.00    +0.000 A 
ATOM      7  C   UNL     1       0.695   2.931  19.683  0.00  0.00    +0.000 A 
ATOM      8  C   UNL     1       1.180   2.108  18.669  0.00  0.00    +0.000 A 
ATOM      9  C   UNL     1       2.265   2.510  17.885  0.00  0.00    +0.000 A 
ATOM     10  C   UNL     1       2.881   3.755  18.136  0.00  0.00    +0.000 A 
ENDROOT
BRANCH   4  11
ATOM     11  N   UNL     1       2.903   6.833  19.978  0.00  0.00    +0.000 N 
ATOM     12  H   UNL     1       3.779   7.162  20.379  0.00  0.00    +0.000 HD
BRANCH  11  13
ATOM     13  C   UNL     1       2.069   7.914  19.587  0.00  0.00    +0.000 A 
ATOM     14  C   UNL     1       1.985   8.350  18.261  0.00  0.00    +0.000 A 
ATOM     15  C   UNL     1       1.217   9.468  17.966  0.00  0.00    +0.000 A 
ATOM     16  N   UNL     1       0.488  10.143  18.881  0.00  0.00    +0.000 NA
ATOM     17  C   UNL     1       0.521   9.662  20.146  0.00  0.00    +0.000 A 
ATOM     18  C   UNL     1       1.274   8.566  20.532  0.00  0.00    +0.000 A 
ATOM     19  F   UNL     1       1.275   8.165  21.812  0.00  0.00    +0.000 F 
ENDBRANCH  11  13
ENDBRANCH   4  11
TORSDOF 2
ENDMDL
