MODEL 1
REMARK VINA RESULT:      -7.9      0.000      0.000
REMARK  Name = 
REMARK  9 active torsions:
REMARK  status: ('A' for Active; 'I' for Inactive)
REMARK    1  A    between atoms: C_1  and  O_2
REMARK    2  A    between atoms: O_2  and  C_3
REMARK    3  A    between atoms: C_5  and  C_6
REMARK    4  A    between atoms: C_6  and  C_7
REMARK    5  A    between atoms: C_11  and  C_12
REMARK    6  A    between atoms: C_22  and  O_23
REMARK    7  A    between atoms: O_23  and  C_24
REMARK    8  A    between atoms: C_25  and  O_26
REMARK    9  A    between atoms: O_26  and  C_27
REMARK                            x       y       z     vdW  Elec       q    Type
REMARK                         _______ _______ _______ _____ _____    ______ ____
ROOT
ATOM      1  C   UNL     1       1.708   3.917  20.013  0.00  0.00    +0.000 A 
ATOM      2  N   UNL     1       0.525   3.236  20.051  0.00  0.00    +0.000 N 
ATOM      3  N   UNL     1       0.458   2.283  19.113  0.00  0.00    +0.000 NA
ATOM      4  N   UNL     1       1.599   2.312  18.444  0.00  0.00    +0.000 NA
ATOM      5  C   UNL     1       2.376   3.319  18.958  0.00  0.00    +0.000 A 
ATOM      6  H   UNL     1      -0.266   3.354  20.675  0.00  0.00    +0.000 HD
ENDROOT
BRANCH   5   7
ATOM      7  C   UNL     1       3.676   3.638  18.401  0.00  0.00    +0.000 A 
ATOM      8  C   UNL     1       3.814   3.761  16.995  0.00  0.00    +0.000 A 
ATOM      9  C   UNL     1       4.988   4.265  16.423  0.00  0.00    +0.000 A 
ATOM     10  C   UNL     1       5.983   4.665  17.282  0.00  0.00    +0.000 A 
ATOM     11  C   UNL     1       5.875   4.498  18.644  0.00  0.00    +0.000 A 
ATOM     12  C   UNL     1       4.752   3.965  19.232  0.00  0.00    +0.000 A 
ATOM     13  O   UNL     1       6.935   5.028  19.315  0.00  0.00    +0.000 OA
ATOM     14  C   UNL     1       7.508   5.816  18.253  0.00  0.00    +0.000 C 
ATOM     15  O   UNL     1       7.115   5.344  16.946  0.00  0.00    +0.000 OA
ENDBRANCH   5   7
BRANCH   1  16
ATOM     16  C   UNL     1       2.011   5.004  20.980  0.00  0.00    +0.000 C 
BRANCH  16  19
ATOM     17  C   UNL     1       0.629   8.585  20.978  0.00  0.00    +0.000 A 
ATOM     18  C   UNL     1       0.781   7.229  21.281  0.00  0.00    +0.000 A 
ATOM     19  C   UNL     1       1.630   6.402  20.546  0.00  0.00    +0.000 A 
ATOM     20  C   UNL     1       2.243   6.948  19.416  0.00  0.00    +0.000 A 
ATOM     21  C   UNL     1       2.065   8.291  19.046  0.00  0.00    +0.000 A 
ATOM     22  C   UNL     1       1.264   9.136  19.840  0.00  0.00    +0.000 A 
BRANCH  17  24
ATOM     23  C   UNL     1       0.186   9.466  23.135  0.00  0.00    +0.000 C 
ATOM     24  O   UNL     1      -0.178   9.376  21.757  0.00  0.00    +0.000 OA
ENDBRANCH  17  24
BRANCH  21  25
ATOM     25  O   UNL     1       2.764   8.582  17.900  0.00  0.00    +0.000 OA
ATOM     26  C   UNL     1       3.644   7.611  17.353  0.00  0.00    +0.000 C 
ENDBRANCH  21  25
BRANCH  22  27
ATOM     27  O   UNL     1       1.140  10.441  19.436  0.00  0.00    +0.000 OA
ATOM     28  C   UNL     1       0.021  10.791  18.639  0.00  0.00    +0.000 C 
ENDBRANCH  22  27
ENDBRANCH  16  19
ENDBRANCH   1  16
TORSDOF 6
ENDMDL
MODEL 2
REMARK VINA RESULT:      -7.8      0.401      2.540
REMARK  Name = 
REMARK  9 active torsions:
REMARK  status: ('A' for Active; 'I' for Inactive)
REMARK    1  A    between atoms: C_1  and  O_2
REMARK    2  A    between atoms: O_2  and  C_3
REMARK    3  A    between atoms: C_5  and  C_6
REMARK    4  A    between atoms: C_6  and  C_7
REMARK    5  A    between atoms: C_11  and  C_12
REMARK    6  A    between atoms: C_22  and  O_23
REMARK    7  A    between atoms: O_23  and  C_24
REMARK    8  A    between atoms: C_25  and  O_26
REMARK    9  A    between atoms: O_26  and  C_27
REMARK                            x       y       z     vdW  Elec       q    Type
REMARK                         _______ _______ _______ _____ _____    ______ ____
ROOT
ATOM      1  C   UNL     1       1.635   4.025  19.971  0.00  0.00    +0.000 A 
ATOM      2  N   UNL     1       0.443   3.362  19.904  0.00  0.00    +0.000 N 
ATOM      3  N   UNL     1       0.446   2.408  18.965  0.00  0.00    +0.000 NA
ATOM      4  N   UNL     1       1.643   2.417  18.402  0.00  0.00    +0.000 NA
ATOM      5  C   UNL     1       2.386   3.414  18.982  0.00  0.00    +0.000 A 
ATOM      6  H   UNL     1      -0.400   3.496  20.453  0.00  0.00    +0.000 HD
ENDROOT
BRANCH   5   7
ATOM      7  C   UNL     1       3.736   3.711  18.544  0.00  0.00    +0.000 A 
ATOM      8  C   UNL     1       4.021   3.738  17.155  0.00  0.00    +0.000 A 
ATOM      9  C   UNL     1       5.246   4.217  16.676  0.00  0.00    +0.000 A 
ATOM     10  C   UNL     1       6.143   4.689  17.606  0.00  0.00    +0.000 A 
ATOM     11  C   UNL     1       5.892   4.614  18.957  0.00  0.00    +0.000 A 
ATOM     12  C   UNL     1       4.716   4.108  19.459  0.00  0.00    +0.000 A 
ATOM     13  O   UNL     1       6.872   5.203  19.697  0.00  0.00    +0.000 OA
ATOM     14  C   UNL     1       7.550   5.923  18.649  0.00  0.00    +0.000 C 
ATOM     15  O   UNL     1       7.300   5.358  17.344  0.00  0.00    +0.000 OA
ENDBRANCH   5   7
BRANCH   1  16
ATOM     16  C   UNL     1       1.867   5.111  20.959  0.00  0.00    +0.000 C 
BRANCH  16  19
ATOM     17  C   UNL     1       2.195   8.122  18.602  0.00  0.00    +0.000 A 
ATOM     18  C   UNL     1       2.420   6.873  19.187  0.00  0.00    +0.000 A 
ATOM     19  C   UNL     1       1.852   6.520  20.411  0.00  0.00    +0.000 A 
ATOM     20  C   UNL     1       1.139   7.504  21.099  0.00  0.00    +0.000 A 
ATOM     21  C   UNL     1       0.943   8.791  20.570  0.00  0.00    +0.000 A 
ATOM     22  C   UNL     1       1.458   9.111  19.298  0.00  0.00    +0.000 A 
BRANCH  17  24
ATOM     23  C   UNL     1       3.868   7.637  16.993  0.00  0.00    +0.000 C 
ATOM     24  O   UNL     1       2.730   8.413  17.373  0.00  0.00    +0.000 OA
ENDBRANCH  17  24
BRANCH  21  25
ATOM     25  O   UNL     1       0.219   9.572  21.436  0.00  0.00    +0.000 OA
ATOM     26  C   UNL     1      -0.197   9.035  22.682  0.00  0.00    +0.000 C 
ENDBRANCH  21  25
BRANCH  22  27
ATOM     27  O   UNL     1       1.223  10.378  18.829  0.00  0.00    +0.000 OA
ATOM     28  C   UNL     1      -0.074  10.685  18.346  0.00  0.00    +0.000 C 
ENDBRANCH  22  27
ENDBRANCH  16  19
ENDBRANCH   1  16
TORSDOF 6
ENDMDL
MODEL 3
REMARK VINA RESULT:      -7.5      0.733      1.471
REMARK  Name = 
REMARK  9 active torsions:
REMARK  status: ('A' for Active; 'I' for Inactive)
REMARK    1  A    between atoms: C_1  and  O_2
REMARK    2  A    between atoms: O_2  and  C_3
REMARK    3  A    between atoms: C_5  and  C_6
REMARK    4  A    between atoms: C_6  and  C_7
REMARK    5  A    between atoms: C_11  and  C_12
REMARK    6  A    between atoms: C_22  and  O_23
REMARK    7  A    between atoms: O_23  and  C_24
REMARK    8  A    between atoms: C_25  and  O_26
REMARK    9  A    between atoms: O_26  and  C_27
REMARK                            x       y       z     vdW  Elec       q    Type
REMARK                         _______ _______ _______ _____ _____    ______ ____
ROOT
ATOM      1  C   UNL     1       1.818   4.095  20.022  0.00  0.00    +0.000 A 
ATOM      2  N   UNL     1       0.732   3.271  20.092  0.00  0.00    +0.000 N 
ATOM      3  N   UNL     1       0.741   2.337  19.132  0.00  0.00    +0.000 NA
ATOM      4  N   UNL     1       1.839   2.522  18.418  0.00  0.00    +0.000 NA
ATOM      5  C   UNL     1       2.508   3.607  18.925  0.00  0.00    +0.000 A 
ATOM      6  H   UNL     1      -0.040   3.277  20.751  0.00  0.00    +0.000 HD
ENDROOT
BRANCH   5   7
ATOM      7  C   UNL     1       3.732   4.097  18.322  0.00  0.00    +0.000 A 
ATOM      8  C   UNL     1       4.864   4.325  19.145  0.00  0.00    +0.000 A 
ATOM      9  C   UNL     1       6.120   4.598  18.591  0.00  0.00    +0.000 A 
ATOM     10  C   UNL     1       6.213   4.602  17.219  0.00  0.00    +0.000 A 
ATOM     11  C   UNL     1       5.107   4.434  16.418  0.00  0.00    +0.000 A 
ATOM     12  C   UNL     1       3.853   4.208  16.934  0.00  0.00    +0.000 A 
ATOM     13  O   UNL     1       5.430   4.395  15.095  0.00  0.00    +0.000 OA
ATOM     14  C   UNL     1       6.855   4.218  15.211  0.00  0.00    +0.000 C 
ATOM     15  O   UNL     1       7.361   4.662  16.489  0.00  0.00    +0.000 OA
ENDBRANCH   5   7
BRANCH   1  16
ATOM     16  C   UNL     1       2.028   5.191  21.004  0.00  0.00    +0.000 C 
BRANCH  16  19
ATOM     17  C   UNL     1       0.676   8.783  20.969  0.00  0.00    +0.000 A 
ATOM     18  C   UNL     1       0.839   7.437  21.310  0.00  0.00    +0.000 A 
ATOM     19  C   UNL     1       1.627   6.576  20.547  0.00  0.00    +0.000 A 
ATOM     20  C   UNL     1       2.159   7.073  19.355  0.00  0.00    +0.000 A 
ATOM     21  C   UNL     1       1.965   8.404  18.949  0.00  0.00    +0.000 A 
ATOM     22  C   UNL     1       1.231   9.285  19.768  0.00  0.00    +0.000 A 
BRANCH  17  24
ATOM     23  C   UNL     1       0.115   9.434  23.180  0.00  0.00    +0.000 C 
ATOM     24  O   UNL     1      -0.066   9.610  21.774  0.00  0.00    +0.000 OA
ENDBRANCH  17  24
BRANCH  21  25
ATOM     25  O   UNL     1       2.581   8.645  17.746  0.00  0.00    +0.000 OA
ATOM     26  C   UNL     1       3.657   7.817  17.333  0.00  0.00    +0.000 C 
ENDBRANCH  21  25
BRANCH  22  27
ATOM     27  O   UNL     1       1.086  10.575  19.325  0.00  0.00    +0.000 OA
ATOM     28  C   UNL     1      -0.122  10.929  18.673  0.00  0.00    +0.000 C 
ENDBRANCH  22  27
ENDBRANCH  16  19
ENDBRANCH   1  16
TORSDOF 6
ENDMDL
MODEL 4
REMARK VINA RESULT:      -7.5      0.722      2.895
REMARK  Name = 
REMARK  9 active torsions:
REMARK  status: ('A' for Active; 'I' for Inactive)
REMARK    1  A    between atoms: C_1  and  O_2
REMARK    2  A    between atoms: O_2  and  C_3
REMARK    3  A    between atoms: C_5  and  C_6
REMARK    4  A    between atoms: C_6  and  C_7
REMARK    5  A    between atoms: C_11  and  C_12
REMARK    6  A    between atoms: C_22  and  O_23
REMARK    7  A    between atoms: O_23  and  C_24
REMARK    8  A    between atoms: C_25  and  O_26
REMARK    9  A    between atoms: O_26  and  C_27
REMARK                            x       y       z     vdW  Elec       q    Type
REMARK                         _______ _______ _______ _____ _____    ______ ____
ROOT
ATOM      1  C   UNL     1       1.740   4.064  19.997  0.00  0.00    +0.000 A 
ATOM      2  N   UNL     1       0.630   3.269  19.999  0.00  0.00    +0.000 N 
ATOM      3  N   UNL     1       0.630   2.395  18.985  0.00  0.00    +0.000 NA
ATOM      4  N   UNL     1       1.744   2.591  18.300  0.00  0.00    +0.000 NA
ATOM      5  C   UNL     1       2.434   3.624  18.884  0.00  0.00    +0.000 A 
ATOM      6  H   UNL     1      -0.153   3.257  20.645  0.00  0.00    +0.000 HD
ENDROOT
BRANCH   5   7
ATOM      7  C   UNL     1       3.683   4.114  18.332  0.00  0.00    +0.000 A 
ATOM      8  C   UNL     1       4.805   4.261  19.186  0.00  0.00    +0.000 A 
ATOM      9  C   UNL     1       6.078   4.531  18.670  0.00  0.00    +0.000 A 
ATOM     10  C   UNL     1       6.197   4.612  17.303  0.00  0.00    +0.000 A 
ATOM     11  C   UNL     1       5.101   4.523  16.474  0.00  0.00    +0.000 A 
ATOM     12  C   UNL     1       3.832   4.303  16.955  0.00  0.00    +0.000 A 
ATOM     13  O   UNL     1       5.447   4.553  15.157  0.00  0.00    +0.000 OA
ATOM     14  C   UNL     1       6.865   4.329  15.286  0.00  0.00    +0.000 C 
ATOM     15  O   UNL     1       7.359   4.682  16.596  0.00  0.00    +0.000 OA
ENDBRANCH   5   7
BRANCH   1  16
ATOM     16  C   UNL     1       1.963   5.091  21.048  0.00  0.00    +0.000 C 
BRANCH  16  19
ATOM     17  C   UNL     1       2.048   8.310  18.959  0.00  0.00    +0.000 A 
ATOM     18  C   UNL     1       2.393   7.051  19.458  0.00  0.00    +0.000 A 
ATOM     19  C   UNL     1       1.804   6.531  20.611  0.00  0.00    +0.000 A 
ATOM     20  C   UNL     1       0.936   7.360  21.323  0.00  0.00    +0.000 A 
ATOM     21  C   UNL     1       0.612   8.655  20.884  0.00  0.00    +0.000 A 
ATOM     22  C   UNL     1       1.154   9.141  19.677  0.00  0.00    +0.000 A 
BRANCH  17  24
ATOM     23  C   UNL     1       3.622   7.930  17.226  0.00  0.00    +0.000 C 
ATOM     24  O   UNL     1       2.613   8.766  17.794  0.00  0.00    +0.000 OA
ENDBRANCH  17  24
BRANCH  21  25
ATOM     25  O   UNL     1      -0.253   9.267  21.756  0.00  0.00    +0.000 OA
ATOM     26  C   UNL     1       0.104   9.391  23.124  0.00  0.00    +0.000 C 
ENDBRANCH  21  25
BRANCH  22  27
ATOM     27  O   UNL     1       0.791  10.406  19.293  0.00  0.00    +0.000 OA
ATOM     28  C   UNL     1      -0.377  10.558  18.506  0.00  0.00    +0.000 C 
ENDBRANCH  22  27
ENDBRANCH  16  19
ENDBRANCH   1  16
TORSDOF 6
ENDMDL
MODEL 5
REMARK VINA RESULT:      -7.5      1.346      6.121
REMARK  Name = 
REMARK  9 active torsions:
REMARK  status: ('A' for Active; 'I' for Inactive)
REMARK    1  A    between atoms: C_1  and  O_2
REMARK    2  A    between atoms: O_2  and  C_3
REMARK    3  A    between atoms: C_5  and  C_6
REMARK    4  A    between atoms: C_6  and  C_7
REMARK    5  A    between atoms: C_11  and  C_12
REMARK    6  A    between atoms: C_22  and  O_23
REMARK    7  A    between atoms: O_23  and  C_24
REMARK    8  A    between atoms: C_25  and  O_26
REMARK    9  A    between atoms: O_26  and  C_27
REMARK                            x       y       z     vdW  Elec       q    Type
REMARK                         _______ _______ _______ _____ _____    ______ ____
ROOT
ATOM      1  C   UNL     1       2.433   3.404  19.057  0.00  0.00    +0.000 A 
ATOM      2  N   UNL     1       2.140   2.306  19.814  0.00  0.00    +0.000 N 
ATOM      3  N   UNL     1       1.547   2.630  20.970  0.00  0.00    +0.000 NA
ATOM      4  N   UNL     1       1.431   3.948  20.993  0.00  0.00    +0.000 NA
ATOM      5  C   UNL     1       1.986   4.451  19.844  0.00  0.00    +0.000 A 
ATOM      6  H   UNL     1       2.303   1.324  19.615  0.00  0.00    +0.000 HD
ENDROOT
BRANCH   5   7
ATOM      7  C   UNL     1       2.058   5.878  19.594  0.00  0.00    +0.000 A 
ATOM      8  C   UNL     1       2.225   6.339  18.264  0.00  0.00    +0.000 A 
ATOM      9  C   UNL     1       2.095   7.696  17.945  0.00  0.00    +0.000 A 
ATOM     10  C   UNL     1       1.767   8.552  18.970  0.00  0.00    +0.000 A 
ATOM     11  C   UNL     1       1.657   8.117  20.271  0.00  0.00    +0.000 A 
ATOM     12  C   UNL     1       1.822   6.798  20.620  0.00  0.00    +0.000 A 
ATOM     13  O   UNL     1       1.251   9.107  21.114  0.00  0.00    +0.000 OA
ATOM     14  C   UNL     1       0.810  10.072  20.139  0.00  0.00    +0.000 C 
ATOM     15  O   UNL     1       1.417   9.863  18.845  0.00  0.00    +0.000 OA
ENDBRANCH   5   7
BRANCH   1  16
ATOM     16  C   UNL     1       3.072   3.279  17.721  0.00  0.00    +0.000 C 
BRANCH  16  19
ATOM     17  C   UNL     1       5.953   5.318  16.211  0.00  0.00    +0.000 A 
ATOM     18  C   UNL     1       4.856   4.458  16.313  0.00  0.00    +0.000 A 
ATOM     19  C   UNL     1       4.388   4.005  17.546  0.00  0.00    +0.000 A 
ATOM     20  C   UNL     1       5.126   4.347  18.681  0.00  0.00    +0.000 A 
ATOM     21  C   UNL     1       6.269   5.160  18.611  0.00  0.00    +0.000 A 
ATOM     22  C   UNL     1       6.688   5.674  17.368  0.00  0.00    +0.000 A 
BRANCH  17  24
ATOM     23  C   UNL     1       7.050   4.844  14.163  0.00  0.00    +0.000 C 
ATOM     24  O   UNL     1       6.351   5.782  14.983  0.00  0.00    +0.000 OA
ENDBRANCH  17  24
BRANCH  21  25
ATOM     25  O   UNL     1       6.817   5.344  19.856  0.00  0.00    +0.000 OA
ATOM     26  C   UNL     1       8.229   5.353  20.005  0.00  0.00    +0.000 C 
ENDBRANCH  21  25
BRANCH  22  27
ATOM     27  O   UNL     1       7.803   6.472  17.365  0.00  0.00    +0.000 OA
ATOM     28  C   UNL     1       7.626   7.871  17.514  0.00  0.00    +0.000 C 
ENDBRANCH  22  27
ENDBRANCH  16  19
ENDBRANCH   1  16
TORSDOF 6
ENDMDL
MODEL 6
REMARK VINA RESULT:      -7.4      1.343      2.774
REMARK  Name = 
REMARK  9 active torsions:
REMARK  status: ('A' for Active; 'I' for Inactive)
REMARK    1  A    between atoms: C_1  and  O_2
REMARK    2  A    between atoms: O_2  and  C_3
REMARK    3  A    between atoms: C_5  and  C_6
REMARK    4  A    between atoms: C_6  and  C_7
REMARK    5  A    between atoms: C_11  and  C_12
REMARK    6  A    between atoms: C_22  and  O_23
REMARK    7  A    between atoms: O_23  and  C_24
REMARK    8  A    between atoms: C_25  and  O_26
REMARK    9  A    between atoms: O_26  and  C_27
REMARK                            x       y       z     vdW  Elec       q    Type
REMARK                         _______ _______ _______ _____ _____    ______ ____
ROOT
ATOM      1  C   UNL     1       2.349   4.742  19.269  0.00  0.00    +0.000 A 
ATOM      2  N   UNL     1       1.274   3.918  19.099  0.00  0.00    +0.000 N 
ATOM      3  N   UNL     1       1.373   3.179  17.987  0.00  0.00    +0.000 NA
ATOM      4  N   UNL     1       2.519   3.496  17.408  0.00  0.00    +0.000 NA
ATOM      5  C   UNL     1       3.129   4.469  18.159  0.00  0.00    +0.000 A 
ATOM      6  H   UNL     1       0.453   3.799  19.685  0.00  0.00    +0.000 HD
ENDROOT
BRANCH   5   7
ATOM      7  C   UNL     1       4.388   5.065  17.757  0.00  0.00    +0.000 A 
ATOM      8  C   UNL     1       4.451   5.792  16.541  0.00  0.00    +0.000 A 
ATOM      9  C   UNL     1       5.578   6.554  16.210  0.00  0.00    +0.000 A 
ATOM     10  C   UNL     1       6.601   6.593  17.128  0.00  0.00    +0.000 A 
ATOM     11  C   UNL     1       6.566   5.847  18.284  0.00  0.00    +0.000 A 
ATOM     12  C   UNL     1       5.492   5.055  18.615  0.00  0.00    +0.000 A 
ATOM     13  O   UNL     1       7.639   6.089  19.087  0.00  0.00    +0.000 OA
ATOM     14  C   UNL     1       8.132   7.288  18.456  0.00  0.00    +0.000 C 
ATOM     15  O   UNL     1       7.691   7.409  17.087  0.00  0.00    +0.000 OA
ENDBRANCH   5   7
BRANCH   1  16
ATOM     16  C   UNL     1       2.463   5.636  20.451  0.00  0.00    +0.000 C 
BRANCH  16  19
ATOM     17  C   UNL     1       1.442   9.007  18.926  0.00  0.00    +0.000 A 
ATOM     18  C   UNL     1       2.148   7.823  19.159  0.00  0.00    +0.000 A 
ATOM     19  C   UNL     1       1.907   7.033  20.282  0.00  0.00    +0.000 A 
ATOM     20  C   UNL     1       1.013   7.522  21.237  0.00  0.00    +0.000 A 
ATOM     21  C   UNL     1       0.331   8.739  21.066  0.00  0.00    +0.000 A 
ATOM     22  C   UNL     1       0.526   9.491  19.891  0.00  0.00    +0.000 A 
BRANCH  17  24
ATOM     23  C   UNL     1       2.413  10.941  17.955  0.00  0.00    +0.000 C 
ATOM     24  O   UNL     1       1.673   9.731  17.784  0.00  0.00    +0.000 OA
ENDBRANCH  17  24
BRANCH  21  25
ATOM     25  O   UNL     1      -0.482   9.001  22.141  0.00  0.00    +0.000 OA
ATOM     26  C   UNL     1       0.071   9.590  23.308  0.00  0.00    +0.000 C 
ENDBRANCH  21  25
BRANCH  22  27
ATOM     27  O   UNL     1      -0.178  10.663  19.774  0.00  0.00    +0.000 OA
ATOM     28  C   UNL     1      -1.370  10.655  19.008  0.00  0.00    +0.000 C 
ENDBRANCH  22  27
ENDBRANCH  16  19
ENDBRANCH   1  16
TORSDOF 6
ENDMDL
MODEL 7
REMARK VINA RESULT:      -7.4      3.852      5.897
REMARK  Name = 
REMARK  9 active torsions:
REMARK  status: ('A' for Active; 'I' for Inactive)
REMARK    1  A    between atoms: C_1  and  O_2
REMARK    2  A    between atoms: O_2  and  C_3
REMARK    3  A    between atoms: C_5  and  C_6
REMARK    4  A    between atoms: C_6  and  C_7
REMARK    5  A    between atoms: C_11  and  C_12
REMARK    6  A    between atoms: C_22  and  O_23
REMARK    7  A    between atoms: O_23  and  C_24
REMARK    8  A    between atoms: C_25  and  O_26
REMARK    9  A    between atoms: O_26  and  C_27
REMARK                            x       y       z     vdW  Elec       q    Type
REMARK                         _______ _______ _______ _____ _____    ______ ____
ROOT
ATOM      1  C   UNL     1       6.219   5.586  17.483  0.00  0.00    +0.000 A 
ATOM      2  N   UNL     1       6.851   5.379  18.675  0.00  0.00    +0.000 N 
ATOM      3  N   UNL     1       7.992   4.693  18.531  0.00  0.00    +0.000 NA
ATOM      4  N   UNL     1       8.137   4.443  17.241  0.00  0.00    +0.000 NA
ATOM      5  C   UNL     1       7.054   4.958  16.575  0.00  0.00    +0.000 A 
ATOM      6  H   UNL     1       6.578   5.670  19.608  0.00  0.00    +0.000 HD
ENDROOT
BRANCH   5   7
ATOM      7  C   UNL     1       6.895   4.802  15.142  0.00  0.00    +0.000 A 
ATOM      8  C   UNL     1       7.857   5.376  14.274  0.00  0.00    +0.000 A 
ATOM      9  C   UNL     1       7.865   5.083  12.905  0.00  0.00    +0.000 A 
ATOM     10  C   UNL     1       6.922   4.192  12.449  0.00  0.00    +0.000 A 
ATOM     11  C   UNL     1       5.953   3.674  13.278  0.00  0.00    +0.000 A 
ATOM     12  C   UNL     1       5.894   3.978  14.618  0.00  0.00    +0.000 A 
ATOM     13  O   UNL     1       5.169   2.756  12.647  0.00  0.00    +0.000 OA
ATOM     14  C   UNL     1       5.975   2.536  11.473  0.00  0.00    +0.000 C 
ATOM     15  O   UNL     1       6.871   3.636  11.206  0.00  0.00    +0.000 OA
ENDBRANCH   5   7
BRANCH   1  16
ATOM     16  C   UNL     1       4.945   6.348  17.400  0.00  0.00    +0.000 C 
BRANCH  16  19
ATOM     17  C   UNL     1       2.323   3.763  18.485  0.00  0.00    +0.000 A 
ATOM     18  C   UNL     1       3.286   4.424  17.718  0.00  0.00    +0.000 A 
ATOM     19  C   UNL     1       3.742   5.700  18.049  0.00  0.00    +0.000 A 
ATOM     20  C   UNL     1       3.117   6.352  19.114  0.00  0.00    +0.000 A 
ATOM     21  C   UNL     1       2.102   5.742  19.870  0.00  0.00    +0.000 A 
ATOM     22  C   UNL     1       1.703   4.423  19.573  0.00  0.00    +0.000 A 
BRANCH  17  24
ATOM     23  C   UNL     1       2.916   1.470  18.368  0.00  0.00    +0.000 C 
ATOM     24  O   UNL     1       1.938   2.488  18.155  0.00  0.00    +0.000 OA
ENDBRANCH  17  24
BRANCH  21  25
ATOM     25  O   UNL     1       1.647   6.586  20.852  0.00  0.00    +0.000 OA
ATOM     26  C   UNL     1       1.544   7.977  20.587  0.00  0.00    +0.000 C 
ENDBRANCH  21  25
BRANCH  22  27
ATOM     27  O   UNL     1       0.718   3.877  20.354  0.00  0.00    +0.000 OA
ATOM     28  C   UNL     1       1.094   2.943  21.352  0.00  0.00    +0.000 C 
ENDBRANCH  22  27
ENDBRANCH  16  19
ENDBRANCH   1  16
TORSDOF 6
ENDMDL
MODEL 8
REMARK VINA RESULT:      -7.3      2.339      6.749
REMARK  Name = 
REMARK  9 active torsions:
REMARK  status: ('A' for Active; 'I' for Inactive)
REMARK    1  A    between atoms: C_1  and  O_2
REMARK    2  A    between atoms: O_2  and  C_3
REMARK    3  A    between atoms: C_5  and  C_6
REMARK    4  A    between atoms: C_6  and  C_7
REMARK    5  A    between atoms: C_11  and  C_12
REMARK    6  A    between atoms: C_22  and  O_23
REMARK    7  A    between atoms: O_23  and  C_24
REMARK    8  A    between atoms: C_25  and  O_26
REMARK    9  A    between atoms: O_26  and  C_27
REMARK                            x       y       z     vdW  Elec       q    Type
REMARK                         _______ _______ _______ _____ _____    ______ ____
ROOT
ATOM      1  C   UNL     1       3.780   3.609  18.245  0.00  0.00    +0.000 A 
ATOM      2  N   UNL     1       4.445   2.586  18.857  0.00  0.00    +0.000 N 
ATOM      3  N   UNL     1       4.442   2.705  20.191  0.00  0.00    +0.000 NA
ATOM      4  N   UNL     1       3.766   3.804  20.483  0.00  0.00    +0.000 NA
ATOM      5  C   UNL     1       3.368   4.392  19.309  0.00  0.00    +0.000 A 
ATOM      6  H   UNL     1       4.914   1.785  18.446  0.00  0.00    +0.000 HD
ENDROOT
BRANCH   5   7
ATOM      7  C   UNL     1       2.645   5.648  19.294  0.00  0.00    +0.000 A 
ATOM      8  C   UNL     1       2.089   6.141  20.502  0.00  0.00    +0.000 A 
ATOM      9  C   UNL     1       1.565   7.436  20.584  0.00  0.00    +0.000 A 
ATOM     10  C   UNL     1       1.642   8.217  19.455  0.00  0.00    +0.000 A 
ATOM     11  C   UNL     1       2.131   7.725  18.266  0.00  0.00    +0.000 A 
ATOM     12  C   UNL     1       2.612   6.443  18.144  0.00  0.00    +0.000 A 
ATOM     13  O   UNL     1       2.190   8.681  17.297  0.00  0.00    +0.000 OA
ATOM     14  C   UNL     1       2.010   9.851  18.118  0.00  0.00    +0.000 C 
ATOM     15  O   UNL     1       1.363   9.548  19.373  0.00  0.00    +0.000 OA
ENDBRANCH   5   7
BRANCH   1  16
ATOM     16  C   UNL     1       3.636   3.668  16.767  0.00  0.00    +0.000 C 
BRANCH  16  19
ATOM     17  C   UNL     1       6.783   5.688  15.901  0.00  0.00    +0.000 A 
ATOM     18  C   UNL     1       5.585   5.308  16.512  0.00  0.00    +0.000 A 
ATOM     19  C   UNL     1       4.800   4.270  16.011  0.00  0.00    +0.000 A 
ATOM     20  C   UNL     1       5.192   3.690  14.803  0.00  0.00    +0.000 A 
ATOM     21  C   UNL     1       6.358   4.087  14.128  0.00  0.00    +0.000 A 
ATOM     22  C   UNL     1       7.183   5.085  14.683  0.00  0.00    +0.000 A 
BRANCH  17  24
ATOM     23  C   UNL     1       7.619   6.692  17.880  0.00  0.00    +0.000 C 
ATOM     24  O   UNL     1       7.552   6.681  16.453  0.00  0.00    +0.000 OA
ENDBRANCH  17  24
BRANCH  21  25
ATOM     25  O   UNL     1       6.520   3.374  12.966  0.00  0.00    +0.000 OA
ATOM     26  C   UNL     1       5.432   3.256  12.061  0.00  0.00    +0.000 C 
ENDBRANCH  21  25
BRANCH  22  27
ATOM     27  O   UNL     1       8.315   5.421  13.986  0.00  0.00    +0.000 OA
ATOM     28  C   UNL     1       8.175   5.816  12.631  0.00  0.00    +0.000 C 
ENDBRANCH  22  27
ENDBRANCH  16  19
ENDBRANCH   1  16
TORSDOF 6
ENDMDL
MODEL 9
REMARK VINA RESULT:      -7.3      3.109      4.627
REMARK  Name = 
REMARK  9 active torsions:
REMARK  status: ('A' for Active; 'I' for Inactive)
REMARK    1  A    between atoms: C_1  and  O_2
REMARK    2  A    between atoms: O_2  and  C_3
REMARK    3  A    between atoms: C_5  and  C_6
REMARK    4  A    between atoms: C_6  and  C_7
REMARK    5  A    between atoms: C_11  and  C_12
REMARK    6  A    between atoms: C_22  and  O_23
REMARK    7  A    between atoms: O_23  and  C_24
REMARK    8  A    between atoms: C_25  and  O_26
REMARK    9  A    between atoms: O_26  and  C_27
REMARK                            x       y       z     vdW  Elec       q    Type
REMARK                         _______ _______ _______ _____ _____    ______ ____
ROOT
ATOM      1  C   UNL     1       5.250   6.674  16.882  0.00  0.00    +0.000 A 
ATOM      2  N   UNL     1       6.397   7.368  16.625  0.00  0.00    +0.000 N 
ATOM      3  N   UNL     1       7.495   6.664  16.928  0.00  0.00    +0.000 NA
ATOM      4  N   UNL     1       7.092   5.489  17.382  0.00  0.00    +0.000 NA
ATOM      5  C   UNL     1       5.720   5.474  17.388  0.00  0.00    +0.000 A 
ATOM      6  H   UNL     1       6.513   8.303  16.247  0.00  0.00    +0.000 HD
ENDROOT
BRANCH   5   7
ATOM      7  C   UNL     1       4.973   4.334  17.882  0.00  0.00    +0.000 A 
ATOM      8  C   UNL     1       5.233   3.851  19.189  0.00  0.00    +0.000 A 
ATOM      9  C   UNL     1       4.405   2.894  19.787  0.00  0.00    +0.000 A 
ATOM     10  C   UNL     1       3.314   2.469  19.065  0.00  0.00    +0.000 A 
ATOM     11  C   UNL     1       3.089   2.895  17.776  0.00  0.00    +0.000 A 
ATOM     12  C   UNL     1       3.909   3.801  17.147  0.00  0.00    +0.000 A 
ATOM     13  O   UNL     1       1.918   2.415  17.272  0.00  0.00    +0.000 OA
ATOM     14  C   UNL     1       1.316   1.946  18.494  0.00  0.00    +0.000 C 
ATOM     15  O   UNL     1       2.295   1.692  19.525  0.00  0.00    +0.000 OA
ENDBRANCH   5   7
BRANCH   1  16
ATOM     16  C   UNL     1       3.910   7.252  16.599  0.00  0.00    +0.000 C 
BRANCH  16  19
ATOM     17  C   UNL     1       1.580   9.280  18.877  0.00  0.00    +0.000 A 
ATOM     18  C   UNL     1       2.479   8.963  17.855  0.00  0.00    +0.000 A 
ATOM     19  C   UNL     1       3.127   7.729  17.801  0.00  0.00    +0.000 A 
ATOM     20  C   UNL     1       2.938   6.854  18.873  0.00  0.00    +0.000 A 
ATOM     21  C   UNL     1       2.089   7.164  19.949  0.00  0.00    +0.000 A 
ATOM     22  C   UNL     1       1.381   8.382  19.953  0.00  0.00    +0.000 A 
BRANCH  17  24
ATOM     23  C   UNL     1       1.741  11.634  18.631  0.00  0.00    +0.000 C 
ATOM     24  O   UNL     1       0.924  10.485  18.866  0.00  0.00    +0.000 OA
ENDBRANCH  17  24
BRANCH  21  25
ATOM     25  O   UNL     1       2.077   6.149  20.873  0.00  0.00    +0.000 OA
ATOM     26  C   UNL     1       1.354   4.959  20.597  0.00  0.00    +0.000 C 
ENDBRANCH  21  25
BRANCH  22  27
ATOM     27  O   UNL     1       0.557   8.623  21.023  0.00  0.00    +0.000 OA
ATOM     28  C   UNL     1       1.114   9.235  22.174  0.00  0.00    +0.000 C 
ENDBRANCH  22  27
ENDBRANCH  16  19
ENDBRANCH   1  16
TORSDOF 6
ENDMDL
