MODEL 1
REMARK VINA RESULT:      -8.2      0.000      0.000
REMARK  Name = 
REMARK  9 active torsions:
REMARK  status: ('A' for Active; 'I' for Inactive)
REMARK    1  A    between atoms: C_4  and  C_5
REMARK    2  A    between atoms: C_9  and  C_10
REMARK    3  A    between atoms: C_10  and  O_11
REMARK    4  A    between atoms: O_11  and  C_12
REMARK    5  A    between atoms: C_15  and  O_16
REMARK    6  A    between atoms: O_16  and  C_17
REMARK    7  A    between atoms: C_17  and  C_18
REMARK    8  A    between atoms: C_18  and  C_19
REMARK    9  A    between atoms: C_19  and  C_20
REMARK                            x       y       z     vdW  Elec       q    Type
REMARK                         _______ _______ _______ _____ _____    ______ ____
ROOT
ATOM      1  C   UNL     1       1.251   9.526  19.047  0.00  0.00    +0.000 A 
ATOM      2  C   UNL     1       1.946   9.099  17.923  0.00  0.00    +0.000 A 
ATOM      3  C   UNL     1       2.595   7.876  17.933  0.00  0.00    +0.000 A 
ATOM      4  C   UNL     1       2.603   7.078  19.080  0.00  0.00    +0.000 A 
ATOM      5  C   UNL     1       1.962   7.536  20.232  0.00  0.00    +0.000 A 
ATOM      6  C   UNL     1       1.288   8.763  20.218  0.00  0.00    +0.000 A 
ENDROOT
BRANCH   1   7
ATOM      7  O   UNL     1       0.501  10.669  19.075  0.00  0.00    +0.000 OA
BRANCH   7   8
ATOM      8  C   UNL     1      -0.838  10.460  19.552  0.00  0.00    +0.000 C 
BRANCH   8  13
ATOM      9  C   UNL     1      -3.954  11.195  17.718  0.00  0.00    +0.000 A 
ATOM     10  C   UNL     1      -3.714  10.651  16.456  0.00  0.00    +0.000 A 
ATOM     11  C   UNL     1      -2.504  10.016  16.197  0.00  0.00    +0.000 A 
ATOM     12  C   UNL     1      -1.550   9.938  17.197  0.00  0.00    +0.000 A 
ATOM     13  C   UNL     1      -1.835  10.517  18.427  0.00  0.00    +0.000 A 
ATOM     14  N   UNL     1      -3.024  11.117  18.700  0.00  0.00    +0.000 NA
BRANCH   9  18
ATOM     15  C   UNL     1      -7.619  13.208  18.764  0.00  0.00    +0.000 A 
ATOM     16  C   UNL     1      -7.160  13.228  17.451  0.00  0.00    +0.000 A 
ATOM     17  C   UNL     1      -5.978  12.560  17.112  0.00  0.00    +0.000 A 
ATOM     18  C   UNL     1      -5.225  11.862  18.075  0.00  0.00    +0.000 A 
ATOM     19  C   UNL     1      -5.730  11.837  19.390  0.00  0.00    +0.000 A 
ATOM     20  C   UNL     1      -6.909  12.507  19.733  0.00  0.00    +0.000 A 
ENDBRANCH   9  18
ENDBRANCH   8  13
ENDBRANCH   7   8
ENDBRANCH   1   7
BRANCH   4  21
ATOM     21  O   UNL     1       3.212   5.847  19.151  0.00  0.00    +0.000 OA
BRANCH  21  22
ATOM     22  C   UNL     1       4.427   5.762  18.401  0.00  0.00    +0.000 C 
BRANCH  22  23
ATOM     23  C   UNL     1       5.584   5.340  19.283  0.00  0.00    +0.000 C 
BRANCH  23  24
ATOM     24  C   UNL     1       6.889   5.990  18.839  0.00  0.00    +0.000 C 
BRANCH  24  25
ATOM     25  C   UNL     1       7.235   5.561  17.467  0.00  0.00    +0.000 A 
ATOM     26  N   UNL     1       7.494   4.347  17.032  0.00  0.00    +0.000 NA
ATOM     27  N   UNL     1       7.719   4.471  15.682  0.00  0.00    +0.000 NA
ATOM     28  N   UNL     1       7.596   5.732  15.292  0.00  0.00    +0.000 NA
ATOM     29  N   UNL     1       7.295   6.413  16.403  0.00  0.00    +0.000 N 
ATOM     30  H   UNL     1       7.135   7.411  16.358  0.00  0.00    +0.000 HD
ENDBRANCH  24  25
ENDBRANCH  23  24
ENDBRANCH  22  23
ENDBRANCH  21  22
ENDBRANCH   4  21
TORSDOF 9
ENDMDL
MODEL 2
REMARK VINA RESULT:      -8.1      2.141      3.578
REMARK  Name = 
REMARK  9 active torsions:
REMARK  status: ('A' for Active; 'I' for Inactive)
REMARK    1  A    between atoms: C_4  and  C_5
REMARK    2  A    between atoms: C_9  and  C_10
REMARK    3  A    between atoms: C_10  and  O_11
REMARK    4  A    between atoms: O_11  and  C_12
REMARK    5  A    between atoms: C_15  and  O_16
REMARK    6  A    between atoms: O_16  and  C_17
REMARK    7  A    between atoms: C_17  and  C_18
REMARK    8  A    between atoms: C_18  and  C_19
REMARK    9  A    between atoms: C_19  and  C_20
REMARK                            x       y       z     vdW  Elec       q    Type
REMARK                         _______ _______ _______ _____ _____    ______ ____
ROOT
ATOM      1  C   UNL     1       2.020   7.115  20.104  0.00  0.00    +0.000 A 
ATOM      2  C   UNL     1       2.387   7.121  18.765  0.00  0.00    +0.000 A 
ATOM      3  C   UNL     1       2.336   5.951  18.025  0.00  0.00    +0.000 A 
ATOM      4  C   UNL     1       1.962   4.744  18.621  0.00  0.00    +0.000 A 
ATOM      5  C   UNL     1       1.658   4.723  19.984  0.00  0.00    +0.000 A 
ATOM      6  C   UNL     1       1.690   5.909  20.727  0.00  0.00    +0.000 A 
ENDROOT
BRANCH   1   7
ATOM      7  O   UNL     1       1.946   8.248  20.866  0.00  0.00    +0.000 OA
BRANCH   7   8
ATOM      8  C   UNL     1       0.612   8.549  21.309  0.00  0.00    +0.000 C 
BRANCH   8  13
ATOM      9  C   UNL     1      -1.172  10.987  19.190  0.00  0.00    +0.000 A 
ATOM     10  C   UNL     1      -0.750  12.215  19.698  0.00  0.00    +0.000 A 
ATOM     11  C   UNL     1       0.152  12.252  20.756  0.00  0.00    +0.000 A 
ATOM     12  C   UNL     1       0.614  11.064  21.296  0.00  0.00    +0.000 A 
ATOM     13  C   UNL     1       0.142   9.871  20.766  0.00  0.00    +0.000 A 
ATOM     14  N   UNL     1      -0.718   9.822  19.714  0.00  0.00    +0.000 NA
BRANCH   9  18
ATOM     15  C   UNL     1      -3.945  10.594  15.913  0.00  0.00    +0.000 A 
ATOM     16  C   UNL     1      -4.192  11.508  16.934  0.00  0.00    +0.000 A 
ATOM     17  C   UNL     1      -3.281  11.644  17.987  0.00  0.00    +0.000 A 
ATOM     18  C   UNL     1      -2.108  10.868  18.050  0.00  0.00    +0.000 A 
ATOM     19  C   UNL     1      -1.872   9.973  16.989  0.00  0.00    +0.000 A 
ATOM     20  C   UNL     1      -2.782   9.832  15.936  0.00  0.00    +0.000 A 
ENDBRANCH   9  18
ENDBRANCH   8  13
ENDBRANCH   7   8
ENDBRANCH   1   7
BRANCH   4  21
ATOM     21  O   UNL     1       1.872   3.552  17.942  0.00  0.00    +0.000 OA
BRANCH  21  22
ATOM     22  C   UNL     1       2.896   3.373  16.957  0.00  0.00    +0.000 C 
BRANCH  22  23
ATOM     23  C   UNL     1       4.245   3.146  17.609  0.00  0.00    +0.000 C 
BRANCH  23  24
ATOM     24  C   UNL     1       5.312   4.052  17.006  0.00  0.00    +0.000 C 
BRANCH  24  25
ATOM     25  C   UNL     1       6.188   4.591  18.068  0.00  0.00    +0.000 A 
ATOM     26  N   UNL     1       5.959   4.654  19.361  0.00  0.00    +0.000 NA
ATOM     27  N   UNL     1       7.089   5.202  19.918  0.00  0.00    +0.000 NA
ATOM     28  N   UNL     1       7.998   5.466  18.989  0.00  0.00    +0.000 NA
ATOM     29  N   UNL     1       7.437   5.086  17.835  0.00  0.00    +0.000 N 
ATOM     30  H   UNL     1       7.952   5.176  16.969  0.00  0.00    +0.000 HD
ENDBRANCH  24  25
ENDBRANCH  23  24
ENDBRANCH  22  23
ENDBRANCH  21  22
ENDBRANCH   4  21
TORSDOF 9
ENDMDL
MODEL 3
REMARK VINA RESULT:      -8.1      2.162      3.543
REMARK  Name = 
REMARK  9 active torsions:
REMARK  status: ('A' for Active; 'I' for Inactive)
REMARK    1  A    between atoms: C_4  and  C_5
REMARK    2  A    between atoms: C_9  and  C_10
REMARK    3  A    between atoms: C_10  and  O_11
REMARK    4  A    between atoms: O_11  and  C_12
REMARK    5  A    between atoms: C_15  and  O_16
REMARK    6  A    between atoms: O_16  and  C_17
REMARK    7  A    between atoms: C_17  and  C_18
REMARK    8  A    between atoms: C_18  and  C_19
REMARK    9  A    between atoms: C_19  and  C_20
REMARK                            x       y       z     vdW  Elec       q    Type
REMARK                         _______ _______ _______ _____ _____    ______ ____
ROOT
ATOM      1  C   UNL     1       2.001   7.123  19.777  0.00  0.00    +0.000 A 
ATOM      2  C   UNL     1       2.222   6.796  18.446  0.00  0.00    +0.000 A 
ATOM      3  C   UNL     1       2.136   5.477  18.032  0.00  0.00    +0.000 A 
ATOM      4  C   UNL     1       1.874   4.455  18.947  0.00  0.00    +0.000 A 
ATOM      5  C   UNL     1       1.718   4.774  20.298  0.00  0.00    +0.000 A 
ATOM      6  C   UNL     1       1.784   6.109  20.714  0.00  0.00    +0.000 A 
ENDROOT
BRANCH   1   7
ATOM      7  O   UNL     1       1.965   8.411  20.237  0.00  0.00    +0.000 OA
BRANCH   7   8
ATOM      8  C   UNL     1       0.879   8.662  21.143  0.00  0.00    +0.000 C 
BRANCH   8  13
ATOM      9  C   UNL     1      -1.354  10.958  19.313  0.00  0.00    +0.000 A 
ATOM     10  C   UNL     1      -1.224  12.155  20.018  0.00  0.00    +0.000 A 
ATOM     11  C   UNL     1      -0.375  12.219  21.118  0.00  0.00    +0.000 A 
ATOM     12  C   UNL     1       0.326  11.089  21.501  0.00  0.00    +0.000 A 
ATOM     13  C   UNL     1       0.140   9.920  20.776  0.00  0.00    +0.000 A 
ATOM     14  N   UNL     1      -0.666   9.851  19.683  0.00  0.00    +0.000 NA
BRANCH   9  18
ATOM     15  C   UNL     1      -3.823  10.612  15.796  0.00  0.00    +0.000 A 
ATOM     16  C   UNL     1      -2.620   9.917  15.878  0.00  0.00    +0.000 A 
ATOM     17  C   UNL     1      -1.829  10.019  17.028  0.00  0.00    +0.000 A 
ATOM     18  C   UNL     1      -2.217  10.820  18.118  0.00  0.00    +0.000 A 
ATOM     19  C   UNL     1      -3.452  11.489  18.017  0.00  0.00    +0.000 A 
ATOM     20  C   UNL     1      -4.243  11.392  16.867  0.00  0.00    +0.000 A 
ENDBRANCH   9  18
ENDBRANCH   8  13
ENDBRANCH   7   8
ENDBRANCH   1   7
BRANCH   4  21
ATOM     21  O   UNL     1       1.757   3.130  18.600  0.00  0.00    +0.000 OA
BRANCH  21  22
ATOM     22  C   UNL     1       2.437   2.791  17.388  0.00  0.00    +0.000 C 
BRANCH  22  23
ATOM     23  C   UNL     1       3.940   2.828  17.577  0.00  0.00    +0.000 C 
BRANCH  23  24
ATOM     24  C   UNL     1       4.608   3.730  16.547  0.00  0.00    +0.000 C 
BRANCH  24  25
ATOM     25  C   UNL     1       5.984   4.064  16.972  0.00  0.00    +0.000 A 
ATOM     26  N   UNL     1       7.021   4.362  16.221  0.00  0.00    +0.000 NA
ATOM     27  N   UNL     1       8.052   4.628  17.089  0.00  0.00    +0.000 NA
ATOM     28  N   UNL     1       7.658   4.503  18.349  0.00  0.00    +0.000 NA
ATOM     29  N   UNL     1       6.369   4.151  18.278  0.00  0.00    +0.000 N 
ATOM     30  H   UNL     1       5.836   4.009  19.126  0.00  0.00    +0.000 HD
ENDBRANCH  24  25
ENDBRANCH  23  24
ENDBRANCH  22  23
ENDBRANCH  21  22
ENDBRANCH   4  21
TORSDOF 9
ENDMDL
MODEL 4
REMARK VINA RESULT:      -8.1      7.955     10.481
REMARK  Name = 
REMARK  9 active torsions:
REMARK  status: ('A' for Active; 'I' for Inactive)
REMARK    1  A    between atoms: C_4  and  C_5
REMARK    2  A    between atoms: C_9  and  C_10
REMARK    3  A    between atoms: C_10  and  O_11
REMARK    4  A    between atoms: O_11  and  C_12
REMARK    5  A    between atoms: C_15  and  O_16
REMARK    6  A    between atoms: O_16  and  C_17
REMARK    7  A    between atoms: C_17  and  C_18
REMARK    8  A    between atoms: C_18  and  C_19
REMARK    9  A    between atoms: C_19  and  C_20
REMARK                            x       y       z     vdW  Elec       q    Type
REMARK                         _______ _______ _______ _____ _____    ______ ____
ROOT
ATOM      1  C   UNL     1       8.077   7.257  18.361  0.00  0.00    +0.000 A 
ATOM      2  C   UNL     1       7.449   7.397  17.130  0.00  0.00    +0.000 A 
ATOM      3  C   UNL     1       6.664   6.372  16.631  0.00  0.00    +0.000 A 
ATOM      4  C   UNL     1       6.529   5.169  17.329  0.00  0.00    +0.000 A 
ATOM      5  C   UNL     1       7.214   5.000  18.534  0.00  0.00    +0.000 A 
ATOM      6  C   UNL     1       7.992   6.044  19.049  0.00  0.00    +0.000 A 
ENDROOT
BRANCH   1   7
ATOM      7  O   UNL     1       8.779   8.265  18.963  0.00  0.00    +0.000 OA
BRANCH   7   8
ATOM      8  C   UNL     1       8.583   9.545  18.342  0.00  0.00    +0.000 C 
BRANCH   8  13
ATOM      9  C   UNL     1       9.635  12.018  20.869  0.00  0.00    +0.000 A 
ATOM     10  C   UNL     1      10.797  12.559  20.317  0.00  0.00    +0.000 A 
ATOM     11  C   UNL     1      11.246  12.113  19.079  0.00  0.00    +0.000 A 
ATOM     12  C   UNL     1      10.534  11.130  18.413  0.00  0.00    +0.000 A 
ATOM     13  C   UNL     1       9.399  10.612  19.020  0.00  0.00    +0.000 A 
ATOM     14  N   UNL     1       8.935  11.059  20.217  0.00  0.00    +0.000 NA
BRANCH   9  18
ATOM     15  C   UNL     1       8.099  13.306  24.685  0.00  0.00    +0.000 A 
ATOM     16  C   UNL     1       8.659  14.230  23.808  0.00  0.00    +0.000 A 
ATOM     17  C   UNL     1       9.141  13.811  22.563  0.00  0.00    +0.000 A 
ATOM     18  C   UNL     1       9.082  12.461  22.168  0.00  0.00    +0.000 A 
ATOM     19  C   UNL     1       8.485  11.554  23.066  0.00  0.00    +0.000 A 
ATOM     20  C   UNL     1       8.005  11.970  24.312  0.00  0.00    +0.000 A 
ENDBRANCH   9  18
ENDBRANCH   8  13
ENDBRANCH   7   8
ENDBRANCH   1   7
BRANCH   4  21
ATOM     21  O   UNL     1       5.752   4.119  16.899  0.00  0.00    +0.000 OA
BRANCH  21  22
ATOM     22  C   UNL     1       4.407   4.492  16.581  0.00  0.00    +0.000 C 
BRANCH  22  23
ATOM     23  C   UNL     1       3.614   4.793  17.837  0.00  0.00    +0.000 C 
BRANCH  23  24
ATOM     24  C   UNL     1       2.828   3.573  18.303  0.00  0.00    +0.000 C 
BRANCH  24  25
ATOM     25  C   UNL     1       3.513   2.926  19.442  0.00  0.00    +0.000 A 
ATOM     26  N   UNL     1       3.040   2.673  20.642  0.00  0.00    +0.000 NA
ATOM     27  N   UNL     1       4.049   2.029  21.317  0.00  0.00    +0.000 NA
ATOM     28  N   UNL     1       5.119   1.882  20.547  0.00  0.00    +0.000 NA
ATOM     29  N   UNL     1       4.786   2.441  19.378  0.00  0.00    +0.000 N 
ATOM     30  H   UNL     1       5.446   2.440  18.611  0.00  0.00    +0.000 HD
ENDBRANCH  24  25
ENDBRANCH  23  24
ENDBRANCH  22  23
ENDBRANCH  21  22
ENDBRANCH   4  21
TORSDOF 9
ENDMDL
MODEL 5
REMARK VINA RESULT:      -8.0      4.344     11.032
REMARK  Name = 
REMARK  9 active torsions:
REMARK  status: ('A' for Active; 'I' for Inactive)
REMARK    1  A    between atoms: C_4  and  C_5
REMARK    2  A    between atoms: C_9  and  C_10
REMARK    3  A    between atoms: C_10  and  O_11
REMARK    4  A    between atoms: O_11  and  C_12
REMARK    5  A    between atoms: C_15  and  O_16
REMARK    6  A    between atoms: O_16  and  C_17
REMARK    7  A    between atoms: C_17  and  C_18
REMARK    8  A    between atoms: C_18  and  C_19
REMARK    9  A    between atoms: C_19  and  C_20
REMARK                            x       y       z     vdW  Elec       q    Type
REMARK                         _______ _______ _______ _____ _____    ______ ____
ROOT
ATOM      1  C   UNL     1       2.563   5.018  18.862  0.00  0.00    +0.000 A 
ATOM      2  C   UNL     1       2.630   6.221  18.171  0.00  0.00    +0.000 A 
ATOM      3  C   UNL     1       2.355   7.412  18.822  0.00  0.00    +0.000 A 
ATOM      4  C   UNL     1       1.963   7.421  20.163  0.00  0.00    +0.000 A 
ATOM      5  C   UNL     1       1.830   6.207  20.841  0.00  0.00    +0.000 A 
ATOM      6  C   UNL     1       2.127   5.004  20.189  0.00  0.00    +0.000 A 
ENDROOT
BRANCH   1   7
ATOM      7  O   UNL     1       2.922   3.818  18.313  0.00  0.00    +0.000 OA
BRANCH   7   8
ATOM      8  C   UNL     1       4.227   3.375  18.718  0.00  0.00    +0.000 C 
BRANCH   8  13
ATOM      9  C   UNL     1       6.472   4.829  16.177  0.00  0.00    +0.000 A 
ATOM     10  C   UNL     1       7.255   5.715  16.917  0.00  0.00    +0.000 A 
ATOM     11  C   UNL     1       7.054   5.836  18.288  0.00  0.00    +0.000 A 
ATOM     12  C   UNL     1       6.071   5.076  18.899  0.00  0.00    +0.000 A 
ATOM     13  C   UNL     1       5.307   4.228  18.109  0.00  0.00    +0.000 A 
ATOM     14  N   UNL     1       5.512   4.082  16.773  0.00  0.00    +0.000 NA
BRANCH   9  18
ATOM     15  C   UNL     1       7.021   4.178  11.952  0.00  0.00    +0.000 A 
ATOM     16  C   UNL     1       6.029   3.489  12.643  0.00  0.00    +0.000 A 
ATOM     17  C   UNL     1       5.843   3.715  14.011  0.00  0.00    +0.000 A 
ATOM     18  C   UNL     1       6.646   4.628  14.722  0.00  0.00    +0.000 A 
ATOM     19  C   UNL     1       7.623   5.330  13.989  0.00  0.00    +0.000 A 
ATOM     20  C   UNL     1       7.814   5.103  12.622  0.00  0.00    +0.000 A 
ENDBRANCH   9  18
ENDBRANCH   8  13
ENDBRANCH   7   8
ENDBRANCH   1   7
BRANCH   4  21
ATOM     21  O   UNL     1       1.694   8.567  20.873  0.00  0.00    +0.000 OA
BRANCH  21  22
ATOM     22  C   UNL     1       0.368   9.067  20.677  0.00  0.00    +0.000 C 
BRANCH  22  23
ATOM     23  C   UNL     1      -0.517   8.744  21.864  0.00  0.00    +0.000 C 
BRANCH  23  24
ATOM     24  C   UNL     1      -0.193   9.635  23.058  0.00  0.00    +0.000 C 
BRANCH  24  25
ATOM     25  C   UNL     1      -0.723  10.998  22.840  0.00  0.00    +0.000 A 
ATOM     26  N   UNL     1      -0.143  12.013  22.239  0.00  0.00    +0.000 NA
ATOM     27  N   UNL     1      -1.057  13.038  22.263  0.00  0.00    +0.000 NA
ATOM     28  N   UNL     1      -2.179  12.662  22.861  0.00  0.00    +0.000 NA
ATOM     29  N   UNL     1      -1.972  11.390  23.222  0.00  0.00    +0.000 N 
ATOM     30  H   UNL     1      -2.704  10.872  23.690  0.00  0.00    +0.000 HD
ENDBRANCH  24  25
ENDBRANCH  23  24
ENDBRANCH  22  23
ENDBRANCH  21  22
ENDBRANCH   4  21
TORSDOF 9
ENDMDL
MODEL 6
REMARK VINA RESULT:      -8.0      5.132      8.062
REMARK  Name = 
REMARK  9 active torsions:
REMARK  status: ('A' for Active; 'I' for Inactive)
REMARK    1  A    between atoms: C_4  and  C_5
REMARK    2  A    between atoms: C_9  and  C_10
REMARK    3  A    between atoms: C_10  and  O_11
REMARK    4  A    between atoms: O_11  and  C_12
REMARK    5  A    between atoms: C_15  and  O_16
REMARK    6  A    between atoms: O_16  and  C_17
REMARK    7  A    between atoms: C_17  and  C_18
REMARK    8  A    between atoms: C_18  and  C_19
REMARK    9  A    between atoms: C_19  and  C_20
REMARK                            x       y       z     vdW  Elec       q    Type
REMARK                         _______ _______ _______ _____ _____    ______ ____
ROOT
ATOM      1  C   UNL     1       6.500   4.936  18.314  0.00  0.00    +0.000 A 
ATOM      2  C   UNL     1       7.489   5.474  19.128  0.00  0.00    +0.000 A 
ATOM      3  C   UNL     1       8.033   6.712  18.834  0.00  0.00    +0.000 A 
ATOM      4  C   UNL     1       7.635   7.417  17.695  0.00  0.00    +0.000 A 
ATOM      5  C   UNL     1       6.690   6.849  16.839  0.00  0.00    +0.000 A 
ATOM      6  C   UNL     1       6.124   5.605  17.146  0.00  0.00    +0.000 A 
ENDROOT
BRANCH   1   7
ATOM      7  O   UNL     1       5.844   3.771  18.600  0.00  0.00    +0.000 OA
BRANCH   7   8
ATOM      8  C   UNL     1       4.495   3.741  18.107  0.00  0.00    +0.000 C 
BRANCH   8  13
ATOM      9  C   UNL     1       2.296   6.233  19.708  0.00  0.00    +0.000 A 
ATOM     10  C   UNL     1       1.826   5.562  20.836  0.00  0.00    +0.000 A 
ATOM     11  C   UNL     1       2.246   4.260  21.090  0.00  0.00    +0.000 A 
ATOM     12  C   UNL     1       3.123   3.647  20.212  0.00  0.00    +0.000 A 
ATOM     13  C   UNL     1       3.540   4.355  19.093  0.00  0.00    +0.000 A 
ATOM     14  N   UNL     1       3.158   5.637  18.848  0.00  0.00    +0.000 NA
BRANCH   9  18
ATOM     15  C   UNL     1       1.261  10.316  18.786  0.00  0.00    +0.000 A 
ATOM     16  C   UNL     1       1.868   9.513  17.825  0.00  0.00    +0.000 A 
ATOM     17  C   UNL     1       2.187   8.184  18.122  0.00  0.00    +0.000 A 
ATOM     18  C   UNL     1       1.915   7.627  19.386  0.00  0.00    +0.000 A 
ATOM     19  C   UNL     1       1.276   8.455  20.329  0.00  0.00    +0.000 A 
ATOM     20  C   UNL     1       0.958   9.786  20.036  0.00  0.00    +0.000 A 
ENDBRANCH   9  18
ENDBRANCH   8  13
ENDBRANCH   7   8
ENDBRANCH   1   7
BRANCH   4  21
ATOM     21  O   UNL     1       8.120   8.658  17.355  0.00  0.00    +0.000 OA
BRANCH  21  22
ATOM     22  C   UNL     1       8.677   9.379  18.459  0.00  0.00    +0.000 C 
BRANCH  22  23
ATOM     23  C   UNL     1       8.863  10.843  18.115  0.00  0.00    +0.000 C 
BRANCH  23  24
ATOM     24  C   UNL     1      10.319  11.268  18.257  0.00  0.00    +0.000 C 
BRANCH  24  25
ATOM     25  C   UNL     1      10.419  12.741  18.331  0.00  0.00    +0.000 A 
ATOM     26  N   UNL     1       9.791  13.639  17.606  0.00  0.00    +0.000 NA
ATOM     27  N   UNL     1      10.197  14.862  18.085  0.00  0.00    +0.000 NA
ATOM     28  N   UNL     1      11.052  14.720  19.089  0.00  0.00    +0.000 NA
ATOM     29  N   UNL     1      11.192  13.399  19.243  0.00  0.00    +0.000 N 
ATOM     30  H   UNL     1      11.794  13.035  19.970  0.00  0.00    +0.000 HD
ENDBRANCH  24  25
ENDBRANCH  23  24
ENDBRANCH  22  23
ENDBRANCH  21  22
ENDBRANCH   4  21
TORSDOF 9
ENDMDL
MODEL 7
REMARK VINA RESULT:      -7.9      2.919     10.730
REMARK  Name = 
REMARK  9 active torsions:
REMARK  status: ('A' for Active; 'I' for Inactive)
REMARK    1  A    between atoms: C_4  and  C_5
REMARK    2  A    between atoms: C_9  and  C_10
REMARK    3  A    between atoms: C_10  and  O_11
REMARK    4  A    between atoms: O_11  and  C_12
REMARK    5  A    between atoms: C_15  and  O_16
REMARK    6  A    between atoms: O_16  and  C_17
REMARK    7  A    between atoms: C_17  and  C_18
REMARK    8  A    between atoms: C_18  and  C_19
REMARK    9  A    between atoms: C_19  and  C_20
REMARK                            x       y       z     vdW  Elec       q    Type
REMARK                         _______ _______ _______ _____ _____    ______ ____
ROOT
ATOM      1  C   UNL     1       2.756   5.242  18.837  0.00  0.00    +0.000 A 
ATOM      2  C   UNL     1       2.797   6.268  17.903  0.00  0.00    +0.000 A 
ATOM      3  C   UNL     1       2.438   7.555  18.269  0.00  0.00    +0.000 A 
ATOM      4  C   UNL     1       1.987   7.831  19.562  0.00  0.00    +0.000 A 
ATOM      5  C   UNL     1       1.881   6.788  20.484  0.00  0.00    +0.000 A 
ATOM      6  C   UNL     1       2.263   5.491  20.120  0.00  0.00    +0.000 A 
ENDROOT
BRANCH   1   7
ATOM      7  O   UNL     1       3.195   3.973  18.576  0.00  0.00    +0.000 OA
BRANCH   7   8
ATOM      8  C   UNL     1       4.529   3.724  19.047  0.00  0.00    +0.000 C 
BRANCH   8  13
ATOM      9  C   UNL     1       6.544   5.028  16.246  0.00  0.00    +0.000 A 
ATOM     10  C   UNL     1       7.350   5.990  16.856  0.00  0.00    +0.000 A 
ATOM     11  C   UNL     1       7.241   6.214  18.225  0.00  0.00    +0.000 A 
ATOM     12  C   UNL     1       6.327   5.480  18.962  0.00  0.00    +0.000 A 
ATOM     13  C   UNL     1       5.536   4.553  18.298  0.00  0.00    +0.000 A 
ATOM     14  N   UNL     1       5.652   4.306  16.965  0.00  0.00    +0.000 NA
BRANCH   9  18
ATOM     15  C   UNL     1       6.810   4.053  12.055  0.00  0.00    +0.000 A 
ATOM     16  C   UNL     1       5.813   3.487  12.844  0.00  0.00    +0.000 A 
ATOM     17  C   UNL     1       5.720   3.819  14.200  0.00  0.00    +0.000 A 
ATOM     18  C   UNL     1       6.622   4.717  14.801  0.00  0.00    +0.000 A 
ATOM     19  C   UNL     1       7.603   5.293  13.971  0.00  0.00    +0.000 A 
ATOM     20  C   UNL     1       7.701   4.961  12.616  0.00  0.00    +0.000 A 
ENDBRANCH   9  18
ENDBRANCH   8  13
ENDBRANCH   7   8
ENDBRANCH   1   7
BRANCH   4  21
ATOM     21  O   UNL     1       1.633   9.087  19.997  0.00  0.00    +0.000 OA
BRANCH  21  22
ATOM     22  C   UNL     1       0.545   9.089  20.925  0.00  0.00    +0.000 C 
BRANCH  22  23
ATOM     23  C   UNL     1      -0.682   9.748  20.326  0.00  0.00    +0.000 C 
BRANCH  23  24
ATOM     24  C   UNL     1      -0.311  10.653  19.158  0.00  0.00    +0.000 C 
BRANCH  24  25
ATOM     25  C   UNL     1      -1.487  10.881  18.292  0.00  0.00    +0.000 A 
ATOM     26  N   UNL     1      -2.590  11.541  18.569  0.00  0.00    +0.000 NA
ATOM     27  N   UNL     1      -3.354  11.496  17.427  0.00  0.00    +0.000 NA
ATOM     28  N   UNL     1      -2.732  10.829  16.464  0.00  0.00    +0.000 NA
ATOM     29  N   UNL     1      -1.569  10.444  17.002  0.00  0.00    +0.000 N 
ATOM     30  H   UNL     1      -0.904   9.922  16.447  0.00  0.00    +0.000 HD
ENDBRANCH  24  25
ENDBRANCH  23  24
ENDBRANCH  22  23
ENDBRANCH  21  22
ENDBRANCH   4  21
TORSDOF 9
ENDMDL
MODEL 8
REMARK VINA RESULT:      -7.9      3.556     10.679
REMARK  Name = 
REMARK  9 active torsions:
REMARK  status: ('A' for Active; 'I' for Inactive)
REMARK    1  A    between atoms: C_4  and  C_5
REMARK    2  A    between atoms: C_9  and  C_10
REMARK    3  A    between atoms: C_10  and  O_11
REMARK    4  A    between atoms: O_11  and  C_12
REMARK    5  A    between atoms: C_15  and  O_16
REMARK    6  A    between atoms: O_16  and  C_17
REMARK    7  A    between atoms: C_17  and  C_18
REMARK    8  A    between atoms: C_18  and  C_19
REMARK    9  A    between atoms: C_19  and  C_20
REMARK                            x       y       z     vdW  Elec       q    Type
REMARK                         _______ _______ _______ _____ _____    ______ ____
ROOT
ATOM      1  C   UNL     1       2.513   5.081  18.669  0.00  0.00    +0.000 A 
ATOM      2  C   UNL     1       2.551   6.246  17.915  0.00  0.00    +0.000 A 
ATOM      3  C   UNL     1       2.320   7.471  18.517  0.00  0.00    +0.000 A 
ATOM      4  C   UNL     1       2.001   7.551  19.875  0.00  0.00    +0.000 A 
ATOM      5  C   UNL     1       1.896   6.376  20.621  0.00  0.00    +0.000 A 
ATOM      6  C   UNL     1       2.149   5.138  20.017  0.00  0.00    +0.000 A 
ENDROOT
BRANCH   1   7
ATOM      7  O   UNL     1       2.834   3.851  18.164  0.00  0.00    +0.000 OA
BRANCH   7   8
ATOM      8  C   UNL     1       4.116   3.372  18.604  0.00  0.00    +0.000 C 
BRANCH   8  13
ATOM      9  C   UNL     1       6.443   4.780  16.112  0.00  0.00    +0.000 A 
ATOM     10  C   UNL     1       7.251   5.624  16.874  0.00  0.00    +0.000 A 
ATOM     11  C   UNL     1       7.039   5.729  18.245  0.00  0.00    +0.000 A 
ATOM     12  C   UNL     1       6.021   4.998  18.832  0.00  0.00    +0.000 A 
ATOM     13  C   UNL     1       5.234   4.193  18.021  0.00  0.00    +0.000 A 
ATOM     14  N   UNL     1       5.449   4.060  16.684  0.00  0.00    +0.000 NA
BRANCH   9  18
ATOM     15  C   UNL     1       7.020   4.180  11.882  0.00  0.00    +0.000 A 
ATOM     16  C   UNL     1       6.043   3.461  12.564  0.00  0.00    +0.000 A 
ATOM     17  C   UNL     1       5.848   3.671  13.934  0.00  0.00    +0.000 A 
ATOM     18  C   UNL     1       6.626   4.596  14.655  0.00  0.00    +0.000 A 
ATOM     19  C   UNL     1       7.587   5.328  13.931  0.00  0.00    +0.000 A 
ATOM     20  C   UNL     1       7.787   5.118  12.563  0.00  0.00    +0.000 A 
ENDBRANCH   9  18
ENDBRANCH   8  13
ENDBRANCH   7   8
ENDBRANCH   1   7
BRANCH   4  21
ATOM     21  O   UNL     1       1.778   8.735  20.540  0.00  0.00    +0.000 OA
BRANCH  21  22
ATOM     22  C   UNL     1       1.109   8.573  21.794  0.00  0.00    +0.000 C 
BRANCH  22  23
ATOM     23  C   UNL     1      -0.343   8.995  21.695  0.00  0.00    +0.000 C 
BRANCH  23  24
ATOM     24  C   UNL     1      -0.478  10.511  21.626  0.00  0.00    +0.000 C 
BRANCH  24  25
ATOM     25  C   UNL     1      -0.901  10.928  20.272  0.00  0.00    +0.000 A 
ATOM     26  N   UNL     1      -1.510  12.036  19.912  0.00  0.00    +0.000 NA
ATOM     27  N   UNL     1      -1.648  11.964  18.547  0.00  0.00    +0.000 NA
ATOM     28  N   UNL     1      -1.130  10.838  18.074  0.00  0.00    +0.000 NA
ATOM     29  N   UNL     1      -0.664  10.191  19.149  0.00  0.00    +0.000 N 
ATOM     30  H   UNL     1      -0.203   9.297  19.041  0.00  0.00    +0.000 HD
ENDBRANCH  24  25
ENDBRANCH  23  24
ENDBRANCH  22  23
ENDBRANCH  21  22
ENDBRANCH   4  21
TORSDOF 9
ENDMDL
MODEL 9
REMARK VINA RESULT:      -7.9      2.454     10.978
REMARK  Name = 
REMARK  9 active torsions:
REMARK  status: ('A' for Active; 'I' for Inactive)
REMARK    1  A    between atoms: C_4  and  C_5
REMARK    2  A    between atoms: C_9  and  C_10
REMARK    3  A    between atoms: C_10  and  O_11
REMARK    4  A    between atoms: O_11  and  C_12
REMARK    5  A    between atoms: C_15  and  O_16
REMARK    6  A    between atoms: O_16  and  C_17
REMARK    7  A    between atoms: C_17  and  C_18
REMARK    8  A    between atoms: C_18  and  C_19
REMARK    9  A    between atoms: C_19  and  C_20
REMARK                            x       y       z     vdW  Elec       q    Type
REMARK                         _______ _______ _______ _____ _____    ______ ____
ROOT
ATOM      1  C   UNL     1       2.459   7.304  18.367  0.00  0.00    +0.000 A 
ATOM      2  C   UNL     1       2.108   7.299  19.710  0.00  0.00    +0.000 A 
ATOM      3  C   UNL     1       1.560   8.432  20.289  0.00  0.00    +0.000 A 
ATOM      4  C   UNL     1       1.396   9.606  19.548  0.00  0.00    +0.000 A 
ATOM      5  C   UNL     1       1.811   9.633  18.215  0.00  0.00    +0.000 A 
ATOM      6  C   UNL     1       2.346   8.482  17.624  0.00  0.00    +0.000 A 
ENDROOT
BRANCH   1   7
ATOM      7  O   UNL     1       2.905   6.193  17.705  0.00  0.00    +0.000 OA
BRANCH   7   8
ATOM      8  C   UNL     1       3.647   5.292  18.542  0.00  0.00    +0.000 C 
BRANCH   8  13
ATOM      9  C   UNL     1       6.486   4.803  16.237  0.00  0.00    +0.000 A 
ATOM     10  C   UNL     1       7.592   4.831  17.086  0.00  0.00    +0.000 A 
ATOM     11  C   UNL     1       7.408   5.003  18.455  0.00  0.00    +0.000 A 
ATOM     12  C   UNL     1       6.125   5.152  18.953  0.00  0.00    +0.000 A 
ATOM     13  C   UNL     1       5.064   5.139  18.058  0.00  0.00    +0.000 A 
ATOM     14  N   UNL     1       5.229   4.945  16.722  0.00  0.00    +0.000 NA
BRANCH   9  18
ATOM     15  C   UNL     1       6.864   4.138  11.994  0.00  0.00    +0.000 A 
ATOM     16  C   UNL     1       5.866   3.492  12.718  0.00  0.00    +0.000 A 
ATOM     17  C   UNL     1       5.736   3.724  14.092  0.00  0.00    +0.000 A 
ATOM     18  C   UNL     1       6.602   4.598  14.776  0.00  0.00    +0.000 A 
ATOM     19  C   UNL     1       7.584   5.257  14.011  0.00  0.00    +0.000 A 
ATOM     20  C   UNL     1       7.719   5.025  12.639  0.00  0.00    +0.000 A 
ENDBRANCH   9  18
ENDBRANCH   8  13
ENDBRANCH   7   8
ENDBRANCH   1   7
BRANCH   4  21
ATOM     21  O   UNL     1       0.843  10.758  20.055  0.00  0.00    +0.000 OA
BRANCH  21  22
ATOM     22  C   UNL     1      -0.555  10.648  20.339  0.00  0.00    +0.000 C 
BRANCH  22  23
ATOM     23  C   UNL     1      -1.344  10.342  19.081  0.00  0.00    +0.000 C 
BRANCH  23  24
ATOM     24  C   UNL     1      -1.462  11.570  18.187  0.00  0.00    +0.000 C 
BRANCH  24  25
ATOM     25  C   UNL     1      -2.547  11.384  17.200  0.00  0.00    +0.000 A 
ATOM     26  N   UNL     1      -2.508  10.734  16.058  0.00  0.00    +0.000 NA
ATOM     27  N   UNL     1      -3.775  10.821  15.532  0.00  0.00    +0.000 NA
ATOM     28  N   UNL     1      -4.578  11.505  16.335  0.00  0.00    +0.000 NA
ATOM     29  N   UNL     1      -3.814  11.858  17.375  0.00  0.00    +0.000 N 
ATOM     30  H   UNL     1      -4.213  12.385  18.140  0.00  0.00    +0.000 HD
ENDBRANCH  24  25
ENDBRANCH  23  24
ENDBRANCH  22  23
ENDBRANCH  21  22
ENDBRANCH   4  21
TORSDOF 9
ENDMDL
