MODEL 1
REMARK VINA RESULT:      -8.9      0.000      0.000
REMARK  Name = 
REMARK  5 active torsions:
REMARK  status: ('A' for Active; 'I' for Inactive)
REMARK    1  A    between atoms: C_1  and  N_2
REMARK    2  A    between atoms: C_5  and  C_6
REMARK    3  A    between atoms: C_9  and  N_10
REMARK    4  A    between atoms: C_11  and  C_13
REMARK    5  A    between atoms: C_13  and  C_15
REMARK                            x       y       z     vdW  Elec       q    Type
REMARK                         _______ _______ _______ _____ _____    ______ ____
ROOT
ATOM      1  N   UNL     1       3.166   5.712  18.065  0.00  0.00    +0.000 N 
ATOM      2  C   UNL     1       4.476   5.184  18.208  0.00  0.00    +0.000 C 
ATOM      3  O   UNL     1       5.275   5.476  19.090  0.00  0.00    +0.000 OA
ATOM      4  H   UNL     1       2.641   5.337  17.273  0.00  0.00    +0.000 HD
ENDROOT
BRANCH   1   8
ATOM      5  C   UNL     1       1.120   8.647  20.525  0.00  0.00    +0.000 A 
ATOM      6  C   UNL     1       1.329   7.323  20.951  0.00  0.00    +0.000 A 
ATOM      7  C   UNL     1       2.000   6.362  20.148  0.00  0.00    +0.000 A 
ATOM      8  C   UNL     1       2.495   6.677  18.892  0.00  0.00    +0.000 A 
ATOM      9  C   UNL     1       2.310   8.008  18.463  0.00  0.00    +0.000 A 
ATOM     10  C   UNL     1       1.627   8.972  19.260  0.00  0.00    +0.000 A 
BRANCH   5  15
ATOM     11  C   UNL     1      -1.478  12.571  21.892  0.00  0.00    +0.000 C 
ATOM     12  N   UNL     1      -0.768  11.309  21.990  0.00  0.00    +0.000 N 
ATOM     13  C   UNL     1      -0.718  10.530  23.101  0.00  0.00    +0.000 A 
ATOM     14  C   UNL     1       0.000   9.424  22.745  0.00  0.00    +0.000 A 
ATOM     15  C   UNL     1       0.368   9.602  21.375  0.00  0.00    +0.000 A 
ATOM     16  N   UNL     1      -0.116  10.788  20.932  0.00  0.00    +0.000 NA
ENDBRANCH   5  15
ENDBRANCH   1   8
BRANCH   2  17
ATOM     17  C   UNL     1       4.906   4.208  17.101  0.00  0.00    +0.000 C 
ATOM     18  O   UNL     1       4.369   3.091  17.206  0.00  0.00    +0.000 OA
BRANCH  17  19
ATOM     19  C   UNL     1       5.896   4.438  16.010  0.00  0.00    +0.000 A 
ATOM     20  C   UNL     1       7.174   4.878  16.346  0.00  0.00    +0.000 A 
ATOM     21  N   UNL     1       7.582   5.629  15.283  0.00  0.00    +0.000 N 
ATOM     22  C   UNL     1       7.184   4.950  14.166  0.00  0.00    +0.000 A 
ATOM     23  C   UNL     1       7.751   4.937  12.882  0.00  0.00    +0.000 A 
ATOM     24  C   UNL     1       7.127   4.146  11.929  0.00  0.00    +0.000 A 
ATOM     25  C   UNL     1       5.936   3.487  12.237  0.00  0.00    +0.000 A 
ATOM     26  C   UNL     1       5.350   3.564  13.531  0.00  0.00    +0.000 A 
ATOM     27  C   UNL     1       6.025   4.253  14.564  0.00  0.00    +0.000 A 
ATOM     28  H   UNL     1       8.195   6.433  15.303  0.00  0.00    +0.000 HD
ENDBRANCH  17  19
ENDBRANCH   2  17
TORSDOF 4
ENDMDL
MODEL 2
REMARK VINA RESULT:      -8.9      1.103      1.645
REMARK  Name = 
REMARK  5 active torsions:
REMARK  status: ('A' for Active; 'I' for Inactive)
REMARK    1  A    between atoms: C_1  and  N_2
REMARK    2  A    between atoms: C_5  and  C_6
REMARK    3  A    between atoms: C_9  and  N_10
REMARK    4  A    between atoms: C_11  and  C_13
REMARK    5  A    between atoms: C_13  and  C_15
REMARK                            x       y       z     vdW  Elec       q    Type
REMARK                         _______ _______ _______ _____ _____    ______ ____
ROOT
ATOM      1  N   UNL     1       3.660   5.989  17.921  0.00  0.00    +0.000 N 
ATOM      2  C   UNL     1       3.272   4.706  17.454  0.00  0.00    +0.000 C 
ATOM      3  O   UNL     1       2.135   4.250  17.471  0.00  0.00    +0.000 OA
ATOM      4  H   UNL     1       4.654   6.198  17.811  0.00  0.00    +0.000 HD
ENDROOT
BRANCH   1   8
ATOM      5  C   UNL     1       1.202   9.084  19.717  0.00  0.00    +0.000 A 
ATOM      6  C   UNL     1       1.659   9.163  18.389  0.00  0.00    +0.000 A 
ATOM      7  C   UNL     1       2.462   8.149  17.799  0.00  0.00    +0.000 A 
ATOM      8  C   UNL     1       2.839   7.016  18.501  0.00  0.00    +0.000 A 
ATOM      9  C   UNL     1       2.369   6.916  19.828  0.00  0.00    +0.000 A 
ATOM     10  C   UNL     1       1.573   7.935  20.427  0.00  0.00    +0.000 A 
BRANCH   5  15
ATOM     11  C   UNL     1      -1.412  11.699  22.934  0.00  0.00    +0.000 C 
ATOM     12  N   UNL     1      -0.733  11.347  21.700  0.00  0.00    +0.000 N 
ATOM     13  C   UNL     1      -0.569  12.179  20.639  0.00  0.00    +0.000 A 
ATOM     14  C   UNL     1       0.162  11.472  19.727  0.00  0.00    +0.000 A 
ATOM     15  C   UNL     1       0.410  10.191  20.307  0.00  0.00    +0.000 A 
ATOM     16  N   UNL     1      -0.166  10.136  21.533  0.00  0.00    +0.000 NA
ENDBRANCH   5  15
ENDBRANCH   1   8
BRANCH   2  17
ATOM     17  C   UNL     1       4.424   3.824  16.945  0.00  0.00    +0.000 C 
ATOM     18  O   UNL     1       4.417   2.684  17.440  0.00  0.00    +0.000 OA
BRANCH  17  19
ATOM     19  C   UNL     1       5.524   4.204  16.012  0.00  0.00    +0.000 A 
ATOM     20  C   UNL     1       6.721   4.675  16.543  0.00  0.00    +0.000 A 
ATOM     21  N   UNL     1       7.210   5.540  15.608  0.00  0.00    +0.000 N 
ATOM     22  C   UNL     1       6.994   4.946  14.396  0.00  0.00    +0.000 A 
ATOM     23  C   UNL     1       7.714   5.078  13.199  0.00  0.00    +0.000 A 
ATOM     24  C   UNL     1       7.261   4.346  12.111  0.00  0.00    +0.000 A 
ATOM     25  C   UNL     1       6.085   3.602  12.209  0.00  0.00    +0.000 A 
ATOM     26  C   UNL     1       5.341   3.531  13.419  0.00  0.00    +0.000 A 
ATOM     27  C   UNL     1       5.841   4.157  14.583  0.00  0.00    +0.000 A 
ATOM     28  H   UNL     1       7.765   6.369  15.773  0.00  0.00    +0.000 HD
ENDBRANCH  17  19
ENDBRANCH   2  17
TORSDOF 4
ENDMDL
MODEL 3
REMARK VINA RESULT:      -8.9      1.161      1.424
REMARK  Name = 
REMARK  5 active torsions:
REMARK  status: ('A' for Active; 'I' for Inactive)
REMARK    1  A    between atoms: C_1  and  N_2
REMARK    2  A    between atoms: C_5  and  C_6
REMARK    3  A    between atoms: C_9  and  N_10
REMARK    4  A    between atoms: C_11  and  C_13
REMARK    5  A    between atoms: C_13  and  C_15
REMARK                            x       y       z     vdW  Elec       q    Type
REMARK                         _______ _______ _______ _____ _____    ______ ____
ROOT
ATOM      1  N   UNL     1       3.668   6.093  17.861  0.00  0.00    +0.000 N 
ATOM      2  C   UNL     1       3.297   4.778  17.476  0.00  0.00    +0.000 C 
ATOM      3  O   UNL     1       2.170   4.301  17.546  0.00  0.00    +0.000 OA
ATOM      4  H   UNL     1       4.654   6.316  17.716  0.00  0.00    +0.000 HD
ENDROOT
BRANCH   1   8
ATOM      5  C   UNL     1       1.141   9.242  19.457  0.00  0.00    +0.000 A 
ATOM      6  C   UNL     1       1.525   8.127  20.222  0.00  0.00    +0.000 A 
ATOM      7  C   UNL     1       2.354   7.096  19.702  0.00  0.00    +0.000 A 
ATOM      8  C   UNL     1       2.838   7.134  18.404  0.00  0.00    +0.000 A 
ATOM      9  C   UNL     1       2.477   8.259  17.633  0.00  0.00    +0.000 A 
ATOM     10  C   UNL     1       1.636   9.289  18.147  0.00  0.00    +0.000 A 
BRANCH   5  15
ATOM     11  C   UNL     1      -0.839  12.441  22.598  0.00  0.00    +0.000 C 
ATOM     12  N   UNL     1      -0.646  11.670  21.384  0.00  0.00    +0.000 N 
ATOM     13  C   UNL     1      -1.356  11.835  20.238  0.00  0.00    +0.000 A 
ATOM     14  C   UNL     1      -0.819  10.954  19.342  0.00  0.00    +0.000 A 
ATOM     15  C   UNL     1       0.231  10.268  20.025  0.00  0.00    +0.000 A 
ATOM     16  N   UNL     1       0.313  10.726  21.297  0.00  0.00    +0.000 NA
ENDBRANCH   5  15
ENDBRANCH   1   8
BRANCH   2  17
ATOM     17  C   UNL     1       4.456   3.893  16.989  0.00  0.00    +0.000 C 
ATOM     18  O   UNL     1       4.457   2.765  17.513  0.00  0.00    +0.000 OA
BRANCH  17  19
ATOM     19  C   UNL     1       5.553   4.257  16.047  0.00  0.00    +0.000 A 
ATOM     20  C   UNL     1       6.755   4.729  16.568  0.00  0.00    +0.000 A 
ATOM     21  N   UNL     1       7.242   5.582  15.621  0.00  0.00    +0.000 N 
ATOM     22  C   UNL     1       7.018   4.976  14.417  0.00  0.00    +0.000 A 
ATOM     23  C   UNL     1       7.733   5.092  13.214  0.00  0.00    +0.000 A 
ATOM     24  C   UNL     1       7.271   4.351  12.136  0.00  0.00    +0.000 A 
ATOM     25  C   UNL     1       6.092   3.614  12.248  0.00  0.00    +0.000 A 
ATOM     26  C   UNL     1       5.354   3.559  13.462  0.00  0.00    +0.000 A 
ATOM     27  C   UNL     1       5.862   4.195  14.617  0.00  0.00    +0.000 A 
ATOM     28  H   UNL     1       7.802   6.409  15.775  0.00  0.00    +0.000 HD
ENDBRANCH  17  19
ENDBRANCH   2  17
TORSDOF 4
ENDMDL
MODEL 4
REMARK VINA RESULT:      -8.9      0.480      1.044
REMARK  Name = 
REMARK  5 active torsions:
REMARK  status: ('A' for Active; 'I' for Inactive)
REMARK    1  A    between atoms: C_1  and  N_2
REMARK    2  A    between atoms: C_5  and  C_6
REMARK    3  A    between atoms: C_9  and  N_10
REMARK    4  A    between atoms: C_11  and  C_13
REMARK    5  A    between atoms: C_13  and  C_15
REMARK                            x       y       z     vdW  Elec       q    Type
REMARK                         _______ _______ _______ _____ _____    ______ ____
ROOT
ATOM      1  N   UNL     1       3.166   5.818  17.832  0.00  0.00    +0.000 N 
ATOM      2  C   UNL     1       4.287   5.014  18.165  0.00  0.00    +0.000 C 
ATOM      3  O   UNL     1       4.892   5.032  19.230  0.00  0.00    +0.000 OA
ATOM      4  H   UNL     1       2.785   5.652  16.899  0.00  0.00    +0.000 HD
ENDROOT
BRANCH   1   8
ATOM      5  C   UNL     1       1.190   8.791  20.304  0.00  0.00    +0.000 A 
ATOM      6  C   UNL     1       1.522   9.032  18.959  0.00  0.00    +0.000 A 
ATOM      7  C   UNL     1       2.167   8.059  18.148  0.00  0.00    +0.000 A 
ATOM      8  C   UNL     1       2.503   6.807  18.638  0.00  0.00    +0.000 A 
ATOM      9  C   UNL     1       2.156   6.546  19.980  0.00  0.00    +0.000 A 
ATOM     10  C   UNL     1       1.519   7.523  20.800  0.00  0.00    +0.000 A 
BRANCH   5  15
ATOM     11  C   UNL     1      -0.177  13.230  21.867  0.00  0.00    +0.000 C 
ATOM     12  N   UNL     1      -0.043  11.785  21.825  0.00  0.00    +0.000 N 
ATOM     13  C   UNL     1      -0.679  10.921  22.656  0.00  0.00    +0.000 A 
ATOM     14  C   UNL     1      -0.316   9.672  22.238  0.00  0.00    +0.000 A 
ATOM     15  C   UNL     1       0.565   9.855  21.128  0.00  0.00    +0.000 A 
ATOM     16  N   UNL     1       0.725  11.180  20.896  0.00  0.00    +0.000 NA
ENDBRANCH   5  15
ENDBRANCH   1   8
BRANCH   2  17
ATOM     17  C   UNL     1       4.784   4.095  17.037  0.00  0.00    +0.000 C 
ATOM     18  O   UNL     1       4.264   2.966  17.068  0.00  0.00    +0.000 OA
BRANCH  17  19
ATOM     19  C   UNL     1       5.818   4.391  16.004  0.00  0.00    +0.000 A 
ATOM     20  C   UNL     1       7.056   4.876  16.414  0.00  0.00    +0.000 A 
ATOM     21  N   UNL     1       7.485   5.667  15.389  0.00  0.00    +0.000 N 
ATOM     22  C   UNL     1       7.174   4.996  14.239  0.00  0.00    +0.000 A 
ATOM     23  C   UNL     1       7.807   5.034  12.987  0.00  0.00    +0.000 A 
ATOM     24  C   UNL     1       7.266   4.238  11.987  0.00  0.00    +0.000 A 
ATOM     25  C   UNL     1       6.091   3.524  12.221  0.00  0.00    +0.000 A 
ATOM     26  C   UNL     1       5.437   3.548  13.483  0.00  0.00    +0.000 A 
ATOM     27  C   UNL     1       6.028   4.242  14.563  0.00  0.00    +0.000 A 
ATOM     28  H   UNL     1       8.061   6.495  15.456  0.00  0.00    +0.000 HD
ENDBRANCH  17  19
ENDBRANCH   2  17
TORSDOF 4
ENDMDL
MODEL 5
REMARK VINA RESULT:      -8.4      3.291      5.279
REMARK  Name = 
REMARK  5 active torsions:
REMARK  status: ('A' for Active; 'I' for Inactive)
REMARK    1  A    between atoms: C_1  and  N_2
REMARK    2  A    between atoms: C_5  and  C_6
REMARK    3  A    between atoms: C_9  and  N_10
REMARK    4  A    between atoms: C_11  and  C_13
REMARK    5  A    between atoms: C_13  and  C_15
REMARK                            x       y       z     vdW  Elec       q    Type
REMARK                         _______ _______ _______ _____ _____    ______ ____
ROOT
ATOM      1  N   UNL     1       1.921   8.158  19.740  0.00  0.00    +0.000 N 
ATOM      2  C   UNL     1       2.305   8.201  18.374  0.00  0.00    +0.000 C 
ATOM      3  O   UNL     1       1.953   9.043  17.557  0.00  0.00    +0.000 OA
ATOM      4  H   UNL     1       2.328   7.386  20.272  0.00  0.00    +0.000 HD
ENDROOT
BRANCH   1   8
ATOM      5  C   UNL     1      -0.652  10.871  21.946  0.00  0.00    +0.000 A 
ATOM      6  C   UNL     1      -0.240  11.131  20.627  0.00  0.00    +0.000 A 
ATOM      7  C   UNL     1       0.601  10.243  19.903  0.00  0.00    +0.000 A 
ATOM      8  C   UNL     1       1.061   9.059  20.457  0.00  0.00    +0.000 A 
ATOM      9  C   UNL     1       0.636   8.777  21.773  0.00  0.00    +0.000 A 
ATOM     10  C   UNL     1      -0.197   9.670  22.506  0.00  0.00    +0.000 A 
BRANCH   5  15
ATOM     11  C   UNL     1      -4.270  12.746  24.669  0.00  0.00    +0.000 C 
ATOM     12  N   UNL     1      -3.059  12.688  23.870  0.00  0.00    +0.000 N 
ATOM     13  C   UNL     1      -2.210  13.729  23.669  0.00  0.00    +0.000 A 
ATOM     14  C   UNL     1      -1.188  13.230  22.913  0.00  0.00    +0.000 A 
ATOM     15  C   UNL     1      -1.488  11.852  22.682  0.00  0.00    +0.000 A 
ATOM     16  N   UNL     1      -2.663  11.542  23.282  0.00  0.00    +0.000 NA
ENDBRANCH   5  15
ENDBRANCH   1   8
BRANCH   2  17
ATOM     17  C   UNL     1       3.194   7.035  17.913  0.00  0.00    +0.000 C 
ATOM     18  O   UNL     1       4.178   7.409  17.251  0.00  0.00    +0.000 OA
BRANCH  17  19
ATOM     19  C   UNL     1       2.970   5.575  18.119  0.00  0.00    +0.000 A 
ATOM     20  C   UNL     1       3.659   4.671  17.315  0.00  0.00    +0.000 A 
ATOM     21  N   UNL     1       2.832   3.592  17.203  0.00  0.00    +0.000 N 
ATOM     22  C   UNL     1       2.305   3.392  18.448  0.00  0.00    +0.000 A 
ATOM     23  C   UNL     1       1.859   2.202  19.045  0.00  0.00    +0.000 A 
ATOM     24  C   UNL     1       1.364   2.296  20.338  0.00  0.00    +0.000 A 
ATOM     25  C   UNL     1       1.237   3.544  20.948  0.00  0.00    +0.000 A 
ATOM     26  C   UNL     1       1.643   4.742  20.299  0.00  0.00    +0.000 A 
ATOM     27  C   UNL     1       2.271   4.673  19.035  0.00  0.00    +0.000 A 
ATOM     28  H   UNL     1       2.748   2.966  16.414  0.00  0.00    +0.000 HD
ENDBRANCH  17  19
ENDBRANCH   2  17
TORSDOF 4
ENDMDL
MODEL 6
REMARK VINA RESULT:      -8.3      1.157      1.410
REMARK  Name = 
REMARK  5 active torsions:
REMARK  status: ('A' for Active; 'I' for Inactive)
REMARK    1  A    between atoms: C_1  and  N_2
REMARK    2  A    between atoms: C_5  and  C_6
REMARK    3  A    between atoms: C_9  and  N_10
REMARK    4  A    between atoms: C_11  and  C_13
REMARK    5  A    between atoms: C_13  and  C_15
REMARK                            x       y       z     vdW  Elec       q    Type
REMARK                         _______ _______ _______ _____ _____    ______ ____
ROOT
ATOM      1  N   UNL     1       3.075   6.362  17.985  0.00  0.00    +0.000 N 
ATOM      2  C   UNL     1       4.394   6.393  17.462  0.00  0.00    +0.000 C 
ATOM      3  O   UNL     1       5.125   7.376  17.415  0.00  0.00    +0.000 OA
ATOM      4  H   UNL     1       2.625   5.446  17.950  0.00  0.00    +0.000 HD
ENDROOT
BRANCH   1   8
ATOM      5  C   UNL     1       0.756   9.614  19.686  0.00  0.00    +0.000 A 
ATOM      6  C   UNL     1       1.244   8.551  20.466  0.00  0.00    +0.000 A 
ATOM      7  C   UNL     1       2.005   7.487  19.911  0.00  0.00    +0.000 A 
ATOM      8  C   UNL     1       2.316   7.439  18.561  0.00  0.00    +0.000 A 
ATOM      9  C   UNL     1       1.850   8.512  17.773  0.00  0.00    +0.000 A 
ATOM     10  C   UNL     1       1.077   9.575  18.324  0.00  0.00    +0.000 A 
BRANCH   5  15
ATOM     11  C   UNL     1      -1.070  12.727  23.002  0.00  0.00    +0.000 C 
ATOM     12  N   UNL     1      -0.888  12.044  21.735  0.00  0.00    +0.000 N 
ATOM     13  C   UNL     1      -1.514  12.375  20.577  0.00  0.00    +0.000 A 
ATOM     14  C   UNL     1      -1.018  11.521  19.632  0.00  0.00    +0.000 A 
ATOM     15  C   UNL     1      -0.078  10.677  20.300  0.00  0.00    +0.000 A 
ATOM     16  N   UNL     1      -0.022  11.018  21.610  0.00  0.00    +0.000 NA
ENDBRANCH   5  15
ENDBRANCH   1   8
BRANCH   2  17
ATOM     17  C   UNL     1       4.884   5.066  16.858  0.00  0.00    +0.000 C 
ATOM     18  O   UNL     1       4.432   4.070  17.449  0.00  0.00    +0.000 OA
BRANCH  17  19
ATOM     19  C   UNL     1       5.844   4.870  15.734  0.00  0.00    +0.000 A 
ATOM     20  C   UNL     1       7.204   5.044  15.975  0.00  0.00    +0.000 A 
ATOM     21  N   UNL     1       7.720   5.489  14.794  0.00  0.00    +0.000 N 
ATOM     22  C   UNL     1       7.119   4.747  13.816  0.00  0.00    +0.000 A 
ATOM     23  C   UNL     1       7.602   4.385  12.549  0.00  0.00    +0.000 A 
ATOM     24  C   UNL     1       6.763   3.617  11.754  0.00  0.00    +0.000 A 
ATOM     25  C   UNL     1       5.470   3.320  12.185  0.00  0.00    +0.000 A 
ATOM     26  C   UNL     1       4.984   3.749  13.451  0.00  0.00    +0.000 A 
ATOM     27  C   UNL     1       5.852   4.421  14.341  0.00  0.00    +0.000 A 
ATOM     28  H   UNL     1       8.503   6.116  14.667  0.00  0.00    +0.000 HD
ENDBRANCH  17  19
ENDBRANCH   2  17
TORSDOF 4
ENDMDL
MODEL 7
REMARK VINA RESULT:      -8.3      3.517      5.412
REMARK  Name = 
REMARK  5 active torsions:
REMARK  status: ('A' for Active; 'I' for Inactive)
REMARK    1  A    between atoms: C_1  and  N_2
REMARK    2  A    between atoms: C_5  and  C_6
REMARK    3  A    between atoms: C_9  and  N_10
REMARK    4  A    between atoms: C_11  and  C_13
REMARK    5  A    between atoms: C_13  and  C_15
REMARK                            x       y       z     vdW  Elec       q    Type
REMARK                         _______ _______ _______ _____ _____    ______ ____
ROOT
ATOM      1  N   UNL     1       1.830   8.121  19.885  0.00  0.00    +0.000 N 
ATOM      2  C   UNL     1       2.244   8.160  18.527  0.00  0.00    +0.000 C 
ATOM      3  O   UNL     1       1.972   9.040  17.719  0.00  0.00    +0.000 OA
ATOM      4  H   UNL     1       2.167   7.312  20.409  0.00  0.00    +0.000 HD
ENDROOT
BRANCH   1   8
ATOM      5  C   UNL     1      -0.629  10.999  22.010  0.00  0.00    +0.000 A 
ATOM      6  C   UNL     1      -0.118   9.844  22.630  0.00  0.00    +0.000 A 
ATOM      7  C   UNL     1       0.689   8.903  21.936  0.00  0.00    +0.000 A 
ATOM      8  C   UNL     1       1.024   9.072  20.602  0.00  0.00    +0.000 A 
ATOM      9  C   UNL     1       0.536  10.238  19.976  0.00  0.00    +0.000 A 
ATOM     10  C   UNL     1      -0.283  11.179  20.665  0.00  0.00    +0.000 A 
BRANCH   5  15
ATOM     11  C   UNL     1      -4.348  12.664  24.734  0.00  0.00    +0.000 C 
ATOM     12  N   UNL     1      -3.127  12.673  23.949  0.00  0.00    +0.000 N 
ATOM     13  C   UNL     1      -2.316  13.750  23.786  0.00  0.00    +0.000 A 
ATOM     14  C   UNL     1      -1.266  13.310  23.030  0.00  0.00    +0.000 A 
ATOM     15  C   UNL     1      -1.510  11.929  22.760  0.00  0.00    +0.000 A 
ATOM     16  N   UNL     1      -2.679  11.559  23.337  0.00  0.00    +0.000 NA
ENDBRANCH   5  15
ENDBRANCH   1   8
BRANCH   2  17
ATOM     17  C   UNL     1       3.054   6.939  18.061  0.00  0.00    +0.000 C 
ATOM     18  O   UNL     1       3.996   7.242  17.308  0.00  0.00    +0.000 OA
BRANCH  17  19
ATOM     19  C   UNL     1       2.796   5.501  18.359  0.00  0.00    +0.000 A 
ATOM     20  C   UNL     1       3.119   4.548  17.397  0.00  0.00    +0.000 A 
ATOM     21  N   UNL     1       2.219   3.539  17.579  0.00  0.00    +0.000 N 
ATOM     22  C   UNL     1       2.105   3.376  18.931  0.00  0.00    +0.000 A 
ATOM     23  C   UNL     1       1.784   2.223  19.665  0.00  0.00    +0.000 A 
ATOM     24  C   UNL     1       1.739   2.351  21.046  0.00  0.00    +0.000 A 
ATOM     25  C   UNL     1       1.911   3.602  21.638  0.00  0.00    +0.000 A 
ATOM     26  C   UNL     1       2.178   4.767  20.867  0.00  0.00    +0.000 A 
ATOM     27  C   UNL     1       2.360   4.653  19.470  0.00  0.00    +0.000 A 
ATOM     28  H   UNL     1       1.839   2.925  16.872  0.00  0.00    +0.000 HD
ENDBRANCH  17  19
ENDBRANCH   2  17
TORSDOF 4
ENDMDL
MODEL 8
REMARK VINA RESULT:      -8.2      3.562      5.584
REMARK  Name = 
REMARK  5 active torsions:
REMARK  status: ('A' for Active; 'I' for Inactive)
REMARK    1  A    between atoms: C_1  and  N_2
REMARK    2  A    between atoms: C_5  and  C_6
REMARK    3  A    between atoms: C_9  and  N_10
REMARK    4  A    between atoms: C_11  and  C_13
REMARK    5  A    between atoms: C_13  and  C_15
REMARK                            x       y       z     vdW  Elec       q    Type
REMARK                         _______ _______ _______ _____ _____    ______ ____
ROOT
ATOM      1  N   UNL     1       1.809   8.430  20.003  0.00  0.00    +0.000 N 
ATOM      2  C   UNL     1       2.029   8.322  18.605  0.00  0.00    +0.000 C 
ATOM      3  O   UNL     1       1.539   9.043  17.743  0.00  0.00    +0.000 OA
ATOM      4  H   UNL     1       2.316   7.746  20.567  0.00  0.00    +0.000 HD
ENDROOT
BRANCH   1   8
ATOM      5  C   UNL     1      -0.645  11.275  22.178  0.00  0.00    +0.000 A 
ATOM      6  C   UNL     1      -0.095  11.566  20.917  0.00  0.00    +0.000 A 
ATOM      7  C   UNL     1       0.707  10.635  20.203  0.00  0.00    +0.000 A 
ATOM      8  C   UNL     1       0.990   9.377  20.709  0.00  0.00    +0.000 A 
ATOM      9  C   UNL     1       0.426   9.065  21.964  0.00  0.00    +0.000 A 
ATOM     10  C   UNL     1      -0.369  10.000  22.689  0.00  0.00    +0.000 A 
BRANCH   5  15
ATOM     11  C   UNL     1      -1.781  15.383  24.596  0.00  0.00    +0.000 C 
ATOM     12  N   UNL     1      -1.947  14.086  23.967  0.00  0.00    +0.000 N 
ATOM     13  C   UNL     1      -3.135  13.448  23.803  0.00  0.00    +0.000 A 
ATOM     14  C   UNL     1      -2.845  12.297  23.126  0.00  0.00    +0.000 A 
ATOM     15  C   UNL     1      -1.433  12.297  22.911  0.00  0.00    +0.000 A 
ATOM     16  N   UNL     1      -0.896  13.418  23.451  0.00  0.00    +0.000 NA
ENDBRANCH   5  15
ENDBRANCH   1   8
BRANCH   2  17
ATOM     17  C   UNL     1       2.921   7.145  18.177  0.00  0.00    +0.000 C 
ATOM     18  O   UNL     1       3.919   7.505  17.528  0.00  0.00    +0.000 OA
BRANCH  17  19
ATOM     19  C   UNL     1       2.686   5.689  18.400  0.00  0.00    +0.000 A 
ATOM     20  C   UNL     1       3.021   4.793  17.389  0.00  0.00    +0.000 A 
ATOM     21  N   UNL     1       2.137   3.762  17.520  0.00  0.00    +0.000 N 
ATOM     22  C   UNL     1       2.030   3.527  18.862  0.00  0.00    +0.000 A 
ATOM     23  C   UNL     1       1.728   2.333  19.536  0.00  0.00    +0.000 A 
ATOM     24  C   UNL     1       1.685   2.388  20.922  0.00  0.00    +0.000 A 
ATOM     25  C   UNL     1       1.839   3.610  21.578  0.00  0.00    +0.000 A 
ATOM     26  C   UNL     1       2.087   4.817  20.867  0.00  0.00    +0.000 A 
ATOM     27  C   UNL     1       2.266   4.778  19.466  0.00  0.00    +0.000 A 
ATOM     28  H   UNL     1       1.764   3.180  16.783  0.00  0.00    +0.000 HD
ENDBRANCH  17  19
ENDBRANCH   2  17
TORSDOF 4
ENDMDL
MODEL 9
REMARK VINA RESULT:      -8.1      1.560      2.050
REMARK  Name = 
REMARK  5 active torsions:
REMARK  status: ('A' for Active; 'I' for Inactive)
REMARK    1  A    between atoms: C_1  and  N_2
REMARK    2  A    between atoms: C_5  and  C_6
REMARK    3  A    between atoms: C_9  and  N_10
REMARK    4  A    between atoms: C_11  and  C_13
REMARK    5  A    between atoms: C_13  and  C_15
REMARK                            x       y       z     vdW  Elec       q    Type
REMARK                         _______ _______ _______ _____ _____    ______ ____
ROOT
ATOM      1  N   UNL     1       3.524   6.391  18.667  0.00  0.00    +0.000 N 
ATOM      2  C   UNL     1       3.661   5.165  19.368  0.00  0.00    +0.000 C 
ATOM      3  O   UNL     1       2.966   4.793  20.307  0.00  0.00    +0.000 OA
ATOM      4  H   UNL     1       4.188   6.521  17.902  0.00  0.00    +0.000 HD
ENDROOT
BRANCH   1   8
ATOM      5  C   UNL     1       0.627   9.566  19.282  0.00  0.00    +0.000 A 
ATOM      6  C   UNL     1       1.039   8.713  20.322  0.00  0.00    +0.000 A 
ATOM      7  C   UNL     1       1.989   7.675  20.122  0.00  0.00    +0.000 A 
ATOM      8  C   UNL     1       2.570   7.445  18.885  0.00  0.00    +0.000 A 
ATOM      9  C   UNL     1       2.181   8.309  17.840  0.00  0.00    +0.000 A 
ATOM     10  C   UNL     1       1.220   9.344  18.033  0.00  0.00    +0.000 A 
BRANCH   5  15
ATOM     11  C   UNL     1      -2.169  12.859  21.596  0.00  0.00    +0.000 C 
ATOM     12  N   UNL     1      -1.636  12.046  20.519  0.00  0.00    +0.000 N 
ATOM     13  C   UNL     1      -1.985  12.162  19.212  0.00  0.00    +0.000 A 
ATOM     14  C   UNL     1      -1.215  11.253  18.543  0.00  0.00    +0.000 A 
ATOM     15  C   UNL     1      -0.406  10.603  19.525  0.00  0.00    +0.000 A 
ATOM     16  N   UNL     1      -0.694  11.110  20.749  0.00  0.00    +0.000 NA
ENDBRANCH   5  15
ENDBRANCH   1   8
BRANCH   2  17
ATOM     17  C   UNL     1       4.837   4.285  18.913  0.00  0.00    +0.000 C 
ATOM     18  O   UNL     1       5.011   3.294  19.643  0.00  0.00    +0.000 OA
BRANCH  17  19
ATOM     19  C   UNL     1       5.774   4.525  17.778  0.00  0.00    +0.000 A 
ATOM     20  C   UNL     1       7.110   4.802  18.058  0.00  0.00    +0.000 A 
ATOM     21  N   UNL     1       7.526   5.611  17.043  0.00  0.00    +0.000 N 
ATOM     22  C   UNL     1       6.989   5.088  15.900  0.00  0.00    +0.000 A 
ATOM     23  C   UNL     1       7.469   5.146  14.582  0.00  0.00    +0.000 A 
ATOM     24  C   UNL     1       6.706   4.518  13.608  0.00  0.00    +0.000 A 
ATOM     25  C   UNL     1       5.476   3.952  13.941  0.00  0.00    +0.000 A 
ATOM     26  C   UNL     1       4.984   3.957  15.276  0.00  0.00    +0.000 A 
ATOM     27  C   UNL     1       5.791   4.472  16.315  0.00  0.00    +0.000 A 
ATOM     28  H   UNL     1       8.220   6.345  17.091  0.00  0.00    +0.000 HD
ENDBRANCH  17  19
ENDBRANCH   2  17
TORSDOF 4
ENDMDL
