MODEL 1
REMARK VINA RESULT:      -7.0      0.000      0.000
REMARK  Name = 
REMARK  8 active torsions:
REMARK  status: ('A' for Active; 'I' for Inactive)
REMARK    1  A    between atoms: C_1  and  C_2
REMARK    2  A    between atoms: C_2  and  O_3
REMARK    3  A    between atoms: C_2  and  C_4
REMARK    4  A    between atoms: C_4  and  N_5
REMARK    5  A    between atoms: N_13  and  C_14
REMARK    6  A    between atoms: C_14  and  C_15
REMARK    7  A    between atoms: C_15  and  C_16
REMARK    8  A    between atoms: C_15  and  O_17
REMARK                            x       y       z     vdW  Elec       q    Type
REMARK                         _______ _______ _______ _____ _____    ______ ____
ROOT
ATOM      1  N   UNL     1       2.927   3.261  18.336  0.00  0.00    +0.000 N 
ATOM      2  C   UNL     1       4.143   3.754  17.876  0.00  0.00    +0.000 A 
ATOM      3  N   UNL     1       5.051   4.133  18.801  0.00  0.00    +0.000 NA
ATOM      4  C   UNL     1       6.247   4.619  18.417  0.00  0.00    +0.000 A 
ATOM      5  N   UNL     1       7.157   4.993  19.399  0.00  0.00    +0.000 N 
ATOM      6  C   UNL     1       6.526   4.693  17.051  0.00  0.00    +0.000 A 
ATOM      7  N   UNL     1       7.641   5.117  16.363  0.00  0.00    +0.000 NA
ATOM      8  C   UNL     1       7.325   4.971  15.097  0.00  0.00    +0.000 A 
ATOM      9  N   UNL     1       6.073   4.430  14.939  0.00  0.00    +0.000 N 
ATOM     10  C   UNL     1       5.530   4.269  16.191  0.00  0.00    +0.000 A 
ATOM     11  N   UNL     1       4.318   3.794  16.536  0.00  0.00    +0.000 NA
ATOM     12  H   UNL     1       2.239   3.304  17.591  0.00  0.00    +0.000 HD
ATOM     13  H   UNL     1       6.974   4.516  20.271  0.00  0.00    +0.000 HD
ATOM     14  H   UNL     1       8.112   4.986  19.059  0.00  0.00    +0.000 HD
ENDROOT
BRANCH   1  15
ATOM     15  C   UNL     1       2.486   3.811  19.618  0.00  0.00    +0.000 C 
BRANCH  15  17
ATOM     16  C   UNL     1       1.938   2.716  21.839  0.00  0.00    +0.000 C 
ATOM     17  C   UNL     1       1.585   2.804  20.357  0.00  0.00    +0.000 C 
BRANCH  17  18
ATOM     18  O   UNL     1       0.209   3.185  20.235  0.00  0.00    +0.000 OA
ATOM     19  H   UNL     1       0.089   3.588  19.356  0.00  0.00    +0.000 HD
ENDBRANCH  17  18
ENDBRANCH  15  17
ENDBRANCH   1  15
BRANCH   9  20
ATOM     20  C   UNL     1       5.444   4.158  13.669  0.00  0.00    +0.000 C 
BRANCH  20  21
ATOM     21  C   UNL     1       6.285   3.326  12.694  0.00  0.00    +0.000 C 
ATOM     22  C   UNL     1       5.471   2.480  11.724  0.00  0.00    +0.000 C 
BRANCH  21  23
ATOM     23  O   UNL     1       7.119   4.213  11.937  0.00  0.00    +0.000 OA
ATOM     24  H   UNL     1       7.511   3.709  11.199  0.00  0.00    +0.000 HD
ENDBRANCH  21  23
ENDBRANCH  20  21
ENDBRANCH   9  20
TORSDOF 6
ENDMDL
MODEL 2
REMARK VINA RESULT:      -6.9      1.294      6.397
REMARK  Name = 
REMARK  8 active torsions:
REMARK  status: ('A' for Active; 'I' for Inactive)
REMARK    1  A    between atoms: C_1  and  C_2
REMARK    2  A    between atoms: C_2  and  O_3
REMARK    3  A    between atoms: C_2  and  C_4
REMARK    4  A    between atoms: C_4  and  N_5
REMARK    5  A    between atoms: N_13  and  C_14
REMARK    6  A    between atoms: C_14  and  C_15
REMARK    7  A    between atoms: C_15  and  C_16
REMARK    8  A    between atoms: C_15  and  O_17
REMARK                            x       y       z     vdW  Elec       q    Type
REMARK                         _______ _______ _______ _____ _____    ______ ____
ROOT
ATOM      1  N   UNL     1       5.307   4.403  14.015  0.00  0.00    +0.000 N 
ATOM      2  C   UNL     1       5.455   4.353  15.396  0.00  0.00    +0.000 A 
ATOM      3  N   UNL     1       6.712   4.362  15.888  0.00  0.00    +0.000 NA
ATOM      4  C   UNL     1       6.919   4.316  17.218  0.00  0.00    +0.000 A 
ATOM      5  N   UNL     1       8.228   4.333  17.687  0.00  0.00    +0.000 N 
ATOM      6  C   UNL     1       5.808   4.284  18.063  0.00  0.00    +0.000 A 
ATOM      7  N   UNL     1       5.698   4.254  19.435  0.00  0.00    +0.000 NA
ATOM      8  C   UNL     1       4.405   4.222  19.664  0.00  0.00    +0.000 A 
ATOM      9  N   UNL     1       3.677   4.277  18.501  0.00  0.00    +0.000 N 
ATOM     10  C   UNL     1       4.567   4.289  17.454  0.00  0.00    +0.000 A 
ATOM     11  N   UNL     1       4.320   4.318  16.131  0.00  0.00    +0.000 NA
ATOM     12  H   UNL     1       4.377   4.086  13.761  0.00  0.00    +0.000 HD
ATOM     13  H   UNL     1       8.854   4.752  17.013  0.00  0.00    +0.000 HD
ATOM     14  H   UNL     1       8.288   4.663  18.643  0.00  0.00    +0.000 HD
ENDROOT
BRANCH   1  15
ATOM     15  C   UNL     1       6.398   3.789  13.257  0.00  0.00    +0.000 C 
BRANCH  15  17
ATOM     16  C   UNL     1       4.713   3.189  11.458  0.00  0.00    +0.000 C 
ATOM     17  C   UNL     1       5.858   2.682  12.331  0.00  0.00    +0.000 C 
BRANCH  17  18
ATOM     18  O   UNL     1       6.901   2.192  11.481  0.00  0.00    +0.000 OA
ATOM     19  H   UNL     1       7.130   1.292  11.779  0.00  0.00    +0.000 HD
ENDBRANCH  17  18
ENDBRANCH  15  17
ENDBRANCH   1  15
BRANCH   9  20
ATOM     20  C   UNL     1       2.236   4.251  18.426  0.00  0.00    +0.000 C 
BRANCH  20  21
ATOM     21  C   UNL     1       1.567   3.098  19.183  0.00  0.00    +0.000 C 
ATOM     22  C   UNL     1       0.864   3.512  20.468  0.00  0.00    +0.000 C 
BRANCH  21  23
ATOM     23  O   UNL     1       0.606   2.478  18.317  0.00  0.00    +0.000 OA
ATOM     24  H   UNL     1       0.319   1.642  18.728  0.00  0.00    +0.000 HD
ENDBRANCH  21  23
ENDBRANCH  20  21
ENDBRANCH   9  20
TORSDOF 6
ENDMDL
MODEL 3
REMARK VINA RESULT:      -6.8      1.330      6.247
REMARK  Name = 
REMARK  8 active torsions:
REMARK  status: ('A' for Active; 'I' for Inactive)
REMARK    1  A    between atoms: C_1  and  C_2
REMARK    2  A    between atoms: C_2  and  O_3
REMARK    3  A    between atoms: C_2  and  C_4
REMARK    4  A    between atoms: C_4  and  N_5
REMARK    5  A    between atoms: N_13  and  C_14
REMARK    6  A    between atoms: C_14  and  C_15
REMARK    7  A    between atoms: C_15  and  C_16
REMARK    8  A    between atoms: C_15  and  O_17
REMARK                            x       y       z     vdW  Elec       q    Type
REMARK                         _______ _______ _______ _____ _____    ______ ____
ROOT
ATOM      1  N   UNL     1       5.264   4.573  14.600  0.00  0.00    +0.000 N 
ATOM      2  C   UNL     1       5.320   4.308  15.964  0.00  0.00    +0.000 A 
ATOM      3  N   UNL     1       6.389   4.775  16.645  0.00  0.00    +0.000 NA
ATOM      4  C   UNL     1       6.499   4.550  17.968  0.00  0.00    +0.000 A 
ATOM      5  N   UNL     1       7.612   5.051  18.635  0.00  0.00    +0.000 N 
ATOM      6  C   UNL     1       5.476   3.853  18.612  0.00  0.00    +0.000 A 
ATOM      7  N   UNL     1       5.296   3.493  19.928  0.00  0.00    +0.000 NA
ATOM      8  C   UNL     1       4.156   2.841  19.942  0.00  0.00    +0.000 A 
ATOM      9  N   UNL     1       3.570   2.806  18.700  0.00  0.00    +0.000 N 
ATOM     10  C   UNL     1       4.423   3.430  17.822  0.00  0.00    +0.000 A 
ATOM     11  N   UNL     1       4.285   3.620  16.496  0.00  0.00    +0.000 NA
ATOM     12  H   UNL     1       4.611   3.935  14.157  0.00  0.00    +0.000 HD
ATOM     13  H   UNL     1       8.015   5.835  18.140  0.00  0.00    +0.000 HD
ATOM     14  H   UNL     1       7.443   5.167  19.628  0.00  0.00    +0.000 HD
ENDROOT
BRANCH   1  15
ATOM     15  C   UNL     1       6.566   4.681  13.941  0.00  0.00    +0.000 C 
BRANCH  15  17
ATOM     16  C   UNL     1       5.248   3.387  12.202  0.00  0.00    +0.000 C 
ATOM     17  C   UNL     1       6.638   3.734  12.728  0.00  0.00    +0.000 C 
BRANCH  17  18
ATOM     18  O   UNL     1       7.392   4.338  11.670  0.00  0.00    +0.000 OA
ATOM     19  H   UNL     1       8.269   4.574  12.026  0.00  0.00    +0.000 HD
ENDBRANCH  17  18
ENDBRANCH  15  17
ENDBRANCH   1  15
BRANCH   9  20
ATOM     20  C   UNL     1       2.318   2.157  18.395  0.00  0.00    +0.000 C 
BRANCH  20  21
ATOM     21  C   UNL     1       1.082   3.061  18.478  0.00  0.00    +0.000 C 
ATOM     22  C   UNL     1       0.854   3.691  19.845  0.00  0.00    +0.000 C 
BRANCH  21  23
ATOM     23  O   UNL     1       1.215   4.109  17.509  0.00  0.00    +0.000 OA
ATOM     24  H   UNL     1       0.705   4.880  17.820  0.00  0.00    +0.000 HD
ENDBRANCH  21  23
ENDBRANCH  20  21
ENDBRANCH   9  20
TORSDOF 6
ENDMDL
MODEL 4
REMARK VINA RESULT:      -6.7      2.228      6.499
REMARK  Name = 
REMARK  8 active torsions:
REMARK  status: ('A' for Active; 'I' for Inactive)
REMARK    1  A    between atoms: C_1  and  C_2
REMARK    2  A    between atoms: C_2  and  O_3
REMARK    3  A    between atoms: C_2  and  C_4
REMARK    4  A    between atoms: C_4  and  N_5
REMARK    5  A    between atoms: N_13  and  C_14
REMARK    6  A    between atoms: C_14  and  C_15
REMARK    7  A    between atoms: C_15  and  C_16
REMARK    8  A    between atoms: C_15  and  O_17
REMARK                            x       y       z     vdW  Elec       q    Type
REMARK                         _______ _______ _______ _____ _____    ______ ____
ROOT
ATOM      1  N   UNL     1       5.432   4.297  16.062  0.00  0.00    +0.000 N 
ATOM      2  C   UNL     1       4.616   4.867  17.033  0.00  0.00    +0.000 A 
ATOM      3  N   UNL     1       4.364   6.189  16.936  0.00  0.00    +0.000 NA
ATOM      4  C   UNL     1       3.581   6.799  17.847  0.00  0.00    +0.000 A 
ATOM      5  N   UNL     1       3.340   8.161  17.709  0.00  0.00    +0.000 N 
ATOM      6  C   UNL     1       3.024   6.026  18.867  0.00  0.00    +0.000 A 
ATOM      7  N   UNL     1       2.186   6.348  19.911  0.00  0.00    +0.000 NA
ATOM      8  C   UNL     1       2.005   5.217  20.553  0.00  0.00    +0.000 A 
ATOM      9  N   UNL     1       2.652   4.171  19.942  0.00  0.00    +0.000 N 
ATOM     10  C   UNL     1       3.338   4.680  18.867  0.00  0.00    +0.000 A 
ATOM     11  N   UNL     1       4.129   4.039  17.985  0.00  0.00    +0.000 NA
ATOM     12  H   UNL     1       5.792   3.410  16.399  0.00  0.00    +0.000 HD
ATOM     13  H   UNL     1       3.464   8.461  16.752  0.00  0.00    +0.000 HD
ATOM     14  H   UNL     1       2.489   8.449  18.179  0.00  0.00    +0.000 HD
ENDROOT
BRANCH   1  15
ATOM     15  C   UNL     1       6.437   5.198  15.498  0.00  0.00    +0.000 C 
BRANCH  15  17
ATOM     16  C   UNL     1       6.089   3.798  13.411  0.00  0.00    +0.000 C 
ATOM     17  C   UNL     1       7.101   4.561  14.262  0.00  0.00    +0.000 C 
BRANCH  17  18
ATOM     18  O   UNL     1       7.714   5.571  13.451  0.00  0.00    +0.000 OA
ATOM     19  H   UNL     1       8.396   5.140  12.904  0.00  0.00    +0.000 HD
ENDBRANCH  17  18
ENDBRANCH  15  17
ENDBRANCH   1  15
BRANCH   9  20
ATOM     20  C   UNL     1       2.647   2.807  20.415  0.00  0.00    +0.000 C 
BRANCH  20  21
ATOM     21  C   UNL     1       1.902   1.812  19.518  0.00  0.00    +0.000 C 
ATOM     22  C   UNL     1       0.678   2.388  18.819  0.00  0.00    +0.000 C 
BRANCH  21  23
ATOM     23  O   UNL     1       2.810   1.326  18.520  0.00  0.00    +0.000 OA
ATOM     24  H   UNL     1       2.318   1.218  17.684  0.00  0.00    +0.000 HD
ENDBRANCH  21  23
ENDBRANCH  20  21
ENDBRANCH   9  20
TORSDOF 6
ENDMDL
MODEL 5
REMARK VINA RESULT:      -6.7      2.563      6.579
REMARK  Name = 
REMARK  8 active torsions:
REMARK  status: ('A' for Active; 'I' for Inactive)
REMARK    1  A    between atoms: C_1  and  C_2
REMARK    2  A    between atoms: C_2  and  O_3
REMARK    3  A    between atoms: C_2  and  C_4
REMARK    4  A    between atoms: C_4  and  N_5
REMARK    5  A    between atoms: N_13  and  C_14
REMARK    6  A    between atoms: C_14  and  C_15
REMARK    7  A    between atoms: C_15  and  C_16
REMARK    8  A    between atoms: C_15  and  O_17
REMARK                            x       y       z     vdW  Elec       q    Type
REMARK                         _______ _______ _______ _____ _____    ______ ____
ROOT
ATOM      1  N   UNL     1       7.163   5.624  19.588  0.00  0.00    +0.000 N 
ATOM      2  C   UNL     1       6.120   5.017  18.898  0.00  0.00    +0.000 A 
ATOM      3  N   UNL     1       6.390   4.523  17.671  0.00  0.00    +0.000 NA
ATOM      4  C   UNL     1       5.421   3.924  16.953  0.00  0.00    +0.000 A 
ATOM      5  N   UNL     1       5.740   3.423  15.696  0.00  0.00    +0.000 N 
ATOM      6  C   UNL     1       4.150   3.807  17.520  0.00  0.00    +0.000 A 
ATOM      7  N   UNL     1       2.985   3.242  17.054  0.00  0.00    +0.000 NA
ATOM      8  C   UNL     1       2.112   3.440  18.015  0.00  0.00    +0.000 A 
ATOM      9  N   UNL     1       2.676   4.067  19.099  0.00  0.00    +0.000 N 
ATOM     10  C   UNL     1       3.986   4.337  18.786  0.00  0.00    +0.000 A 
ATOM     11  N   UNL     1       4.924   4.957  19.527  0.00  0.00    +0.000 NA
ATOM     12  H   UNL     1       6.786   6.210  20.327  0.00  0.00    +0.000 HD
ATOM     13  H   UNL     1       6.728   3.229  15.618  0.00  0.00    +0.000 HD
ATOM     14  H   UNL     1       5.099   2.695  15.400  0.00  0.00    +0.000 HD
ENDROOT
BRANCH   1  15
ATOM     15  C   UNL     1       8.168   6.267  18.742  0.00  0.00    +0.000 C 
BRANCH  15  17
ATOM     16  C   UNL     1       8.143   8.678  17.954  0.00  0.00    +0.000 C 
ATOM     17  C   UNL     1       7.508   7.299  17.807  0.00  0.00    +0.000 C 
BRANCH  17  18
ATOM     18  O   UNL     1       7.629   6.881  16.442  0.00  0.00    +0.000 OA
ATOM     19  H   UNL     1       6.944   7.346  15.926  0.00  0.00    +0.000 HD
ENDBRANCH  17  18
ENDBRANCH  15  17
ENDBRANCH   1  15
BRANCH   9  20
ATOM     20  C   UNL     1       1.970   4.426  20.305  0.00  0.00    +0.000 C 
BRANCH  20  21
ATOM     21  C   UNL     1       2.239   3.517  21.510  0.00  0.00    +0.000 C 
ATOM     22  C   UNL     1       1.120   2.532  21.818  0.00  0.00    +0.000 C 
BRANCH  21  23
ATOM     23  O   UNL     1       3.443   2.777  21.265  0.00  0.00    +0.000 OA
ATOM     24  H   UNL     1       4.157   3.412  21.068  0.00  0.00    +0.000 HD
ENDBRANCH  21  23
ENDBRANCH  20  21
ENDBRANCH   9  20
TORSDOF 6
ENDMDL
MODEL 6
REMARK VINA RESULT:      -6.6      3.801      5.286
REMARK  Name = 
REMARK  8 active torsions:
REMARK  status: ('A' for Active; 'I' for Inactive)
REMARK    1  A    between atoms: C_1  and  C_2
REMARK    2  A    between atoms: C_2  and  O_3
REMARK    3  A    between atoms: C_2  and  C_4
REMARK    4  A    between atoms: C_4  and  N_5
REMARK    5  A    between atoms: N_13  and  C_14
REMARK    6  A    between atoms: C_14  and  C_15
REMARK    7  A    between atoms: C_15  and  C_16
REMARK    8  A    between atoms: C_15  and  O_17
REMARK                            x       y       z     vdW  Elec       q    Type
REMARK                         _______ _______ _______ _____ _____    ______ ____
ROOT
ATOM      1  N   UNL     1       1.703   7.723  20.384  0.00  0.00    +0.000 N 
ATOM      2  C   UNL     1       2.153   6.425  20.176  0.00  0.00    +0.000 A 
ATOM      3  N   UNL     1       1.370   5.417  20.616  0.00  0.00    +0.000 NA
ATOM      4  C   UNL     1       1.752   4.137  20.444  0.00  0.00    +0.000 A 
ATOM      5  N   UNL     1       0.916   3.127  20.907  0.00  0.00    +0.000 N 
ATOM      6  C   UNL     1       2.955   3.886  19.781  0.00  0.00    +0.000 A 
ATOM      7  N   UNL     1       3.590   2.713  19.443  0.00  0.00    +0.000 NA
ATOM      8  C   UNL     1       4.693   3.093  18.841  0.00  0.00    +0.000 A 
ATOM      9  N   UNL     1       4.774   4.460  18.735  0.00  0.00    +0.000 N 
ATOM     10  C   UNL     1       3.673   4.990  19.362  0.00  0.00    +0.000 A 
ATOM     11  N   UNL     1       3.333   6.283  19.530  0.00  0.00    +0.000 NA
ATOM     12  H   UNL     1       2.481   8.370  20.301  0.00  0.00    +0.000 HD
ATOM     13  H   UNL     1      -0.040   3.446  20.979  0.00  0.00    +0.000 HD
ATOM     14  H   UNL     1       1.077   2.247  20.429  0.00  0.00    +0.000 HD
ENDROOT
BRANCH   1  15
ATOM     15  C   UNL     1       0.874   7.903  21.576  0.00  0.00    +0.000 C 
BRANCH  15  17
ATOM     16  C   UNL     1      -0.112   9.726  23.038  0.00  0.00    +0.000 C 
ATOM     17  C   UNL     1       1.067   9.316  22.161  0.00  0.00    +0.000 C 
BRANCH  17  18
ATOM     18  O   UNL     1       2.264   9.370  22.945  0.00  0.00    +0.000 OA
ATOM     19  H   UNL     1       2.985   9.682  22.367  0.00  0.00    +0.000 HD
ENDBRANCH  17  18
ENDBRANCH  15  17
ENDBRANCH   1  15
BRANCH   9  20
ATOM     20  C   UNL     1       5.870   5.179  18.130  0.00  0.00    +0.000 C 
BRANCH  20  21
ATOM     21  C   UNL     1       6.752   4.348  17.191  0.00  0.00    +0.000 C 
ATOM     22  C   UNL     1       7.040   5.007  15.850  0.00  0.00    +0.000 C 
BRANCH  21  23
ATOM     23  O   UNL     1       7.999   4.084  17.848  0.00  0.00    +0.000 OA
ATOM     24  H   UNL     1       8.718   4.204  17.199  0.00  0.00    +0.000 HD
ENDBRANCH  21  23
ENDBRANCH  20  21
ENDBRANCH   9  20
TORSDOF 6
ENDMDL
MODEL 7
REMARK VINA RESULT:      -6.6      2.967      6.362
REMARK  Name = 
REMARK  8 active torsions:
REMARK  status: ('A' for Active; 'I' for Inactive)
REMARK    1  A    between atoms: C_1  and  C_2
REMARK    2  A    between atoms: C_2  and  O_3
REMARK    3  A    between atoms: C_2  and  C_4
REMARK    4  A    between atoms: C_4  and  N_5
REMARK    5  A    between atoms: N_13  and  C_14
REMARK    6  A    between atoms: C_14  and  C_15
REMARK    7  A    between atoms: C_15  and  C_16
REMARK    8  A    between atoms: C_15  and  O_17
REMARK                            x       y       z     vdW  Elec       q    Type
REMARK                         _______ _______ _______ _____ _____    ______ ____
ROOT
ATOM      1  N   UNL     1       6.834   5.509  18.030  0.00  0.00    +0.000 N 
ATOM      2  C   UNL     1       5.657   5.068  18.623  0.00  0.00    +0.000 A 
ATOM      3  N   UNL     1       5.559   3.752  18.908  0.00  0.00    +0.000 NA
ATOM      4  C   UNL     1       4.443   3.264  19.484  0.00  0.00    +0.000 A 
ATOM      5  N   UNL     1       4.382   1.904  19.766  0.00  0.00    +0.000 N 
ATOM      6  C   UNL     1       3.414   4.154  19.797  0.00  0.00    +0.000 A 
ATOM      7  N   UNL     1       2.187   3.967  20.392  0.00  0.00    +0.000 NA
ATOM      8  C   UNL     1       1.643   5.162  20.416  0.00  0.00    +0.000 A 
ATOM      9  N   UNL     1       2.484   6.119  19.903  0.00  0.00    +0.000 N 
ATOM     10  C   UNL     1       3.623   5.481  19.472  0.00  0.00    +0.000 A 
ATOM     11  N   UNL     1       4.715   6.003  18.882  0.00  0.00    +0.000 NA
ATOM     12  H   UNL     1       6.677   6.412  17.594  0.00  0.00    +0.000 HD
ATOM     13  H   UNL     1       5.307   1.506  19.856  0.00  0.00    +0.000 HD
ATOM     14  H   UNL     1       3.714   1.695  20.499  0.00  0.00    +0.000 HD
ENDROOT
BRANCH   1  15
ATOM     15  C   UNL     1       7.503   4.521  17.183  0.00  0.00    +0.000 C 
BRANCH  15  17
ATOM     16  C   UNL     1       6.085   3.776  15.216  0.00  0.00    +0.000 C 
ATOM     17  C   UNL     1       7.152   4.754  15.701  0.00  0.00    +0.000 C 
BRANCH  17  18
ATOM     18  O   UNL     1       6.672   6.090  15.507  0.00  0.00    +0.000 OA
ATOM     19  H   UNL     1       7.346   6.702  15.857  0.00  0.00    +0.000 HD
ENDBRANCH  17  18
ENDBRANCH  15  17
ENDBRANCH   1  15
BRANCH   9  20
ATOM     20  C   UNL     1       2.168   7.522  19.787  0.00  0.00    +0.000 C 
BRANCH  20  21
ATOM     21  C   UNL     1       1.928   8.017  18.356  0.00  0.00    +0.000 C 
ATOM     22  C   UNL     1       1.177   9.338  18.265  0.00  0.00    +0.000 C 
BRANCH  21  23
ATOM     23  O   UNL     1       3.197   8.167  17.705  0.00  0.00    +0.000 OA
ATOM     24  H   UNL     1       3.045   8.189  16.741  0.00  0.00    +0.000 HD
ENDBRANCH  21  23
ENDBRANCH  20  21
ENDBRANCH   9  20
TORSDOF 6
ENDMDL
MODEL 8
REMARK VINA RESULT:      -6.5      4.109      4.857
REMARK  Name = 
REMARK  8 active torsions:
REMARK  status: ('A' for Active; 'I' for Inactive)
REMARK    1  A    between atoms: C_1  and  C_2
REMARK    2  A    between atoms: C_2  and  O_3
REMARK    3  A    between atoms: C_2  and  C_4
REMARK    4  A    between atoms: C_4  and  N_5
REMARK    5  A    between atoms: N_13  and  C_14
REMARK    6  A    between atoms: C_14  and  C_15
REMARK    7  A    between atoms: C_15  and  C_16
REMARK    8  A    between atoms: C_15  and  O_17
REMARK                            x       y       z     vdW  Elec       q    Type
REMARK                         _______ _______ _______ _____ _____    ______ ____
ROOT
ATOM      1  N   UNL     1       2.116   8.494  17.798  0.00  0.00    +0.000 N 
ATOM      2  C   UNL     1       2.889   7.417  18.217  0.00  0.00    +0.000 A 
ATOM      3  N   UNL     1       2.450   6.716  19.285  0.00  0.00    +0.000 NA
ATOM      4  C   UNL     1       3.156   5.662  19.738  0.00  0.00    +0.000 A 
ATOM      5  N   UNL     1       2.669   4.962  20.836  0.00  0.00    +0.000 N 
ATOM      6  C   UNL     1       4.324   5.304  19.064  0.00  0.00    +0.000 A 
ATOM      7  N   UNL     1       5.229   4.287  19.269  0.00  0.00    +0.000 NA
ATOM      8  C   UNL     1       6.133   4.452  18.332  0.00  0.00    +0.000 A 
ATOM      9  N   UNL     1       5.826   5.503  17.502  0.00  0.00    +0.000 N 
ATOM     10  C   UNL     1       4.675   6.083  17.977  0.00  0.00    +0.000 A 
ATOM     11  N   UNL     1       4.007   7.152  17.504  0.00  0.00    +0.000 NA
ATOM     12  H   UNL     1       2.677   9.108  17.215  0.00  0.00    +0.000 HD
ATOM     13  H   UNL     1       1.670   5.083  20.937  0.00  0.00    +0.000 HD
ATOM     14  H   UNL     1       3.027   4.014  20.876  0.00  0.00    +0.000 HD
ENDROOT
BRANCH   1  15
ATOM     15  C   UNL     1       1.368   9.165  18.860  0.00  0.00    +0.000 C 
BRANCH  15  17
ATOM     16  C   UNL     1       1.029  11.508  19.771  0.00  0.00    +0.000 C 
ATOM     17  C   UNL     1       1.150  10.650  18.514  0.00  0.00    +0.000 C 
BRANCH  17  18
ATOM     18  O   UNL     1       2.240  11.142  17.725  0.00  0.00    +0.000 OA
ATOM     19  H   UNL     1       2.594  10.395  17.208  0.00  0.00    +0.000 HD
ENDBRANCH  17  18
ENDBRANCH  15  17
ENDBRANCH   1  15
BRANCH   9  20
ATOM     20  C   UNL     1       6.630   5.936  16.385  0.00  0.00    +0.000 C 
BRANCH  20  21
ATOM     21  C   UNL     1       6.884   4.867  15.315  0.00  0.00    +0.000 C 
ATOM     22  C   UNL     1       5.628   4.368  14.614  0.00  0.00    +0.000 C 
BRANCH  21  23
ATOM     23  O   UNL     1       7.772   5.409  14.328  0.00  0.00    +0.000 OA
ATOM     24  H   UNL     1       7.243   5.917  13.685  0.00  0.00    +0.000 HD
ENDBRANCH  21  23
ENDBRANCH  20  21
ENDBRANCH   9  20
TORSDOF 6
ENDMDL
MODEL 9
REMARK VINA RESULT:      -6.5      1.784      6.127
REMARK  Name = 
REMARK  8 active torsions:
REMARK  status: ('A' for Active; 'I' for Inactive)
REMARK    1  A    between atoms: C_1  and  C_2
REMARK    2  A    between atoms: C_2  and  O_3
REMARK    3  A    between atoms: C_2  and  C_4
REMARK    4  A    between atoms: C_4  and  N_5
REMARK    5  A    between atoms: N_13  and  C_14
REMARK    6  A    between atoms: C_14  and  C_15
REMARK    7  A    between atoms: C_15  and  C_16
REMARK    8  A    between atoms: C_15  and  O_17
REMARK                            x       y       z     vdW  Elec       q    Type
REMARK                         _______ _______ _______ _____ _____    ______ ____
ROOT
ATOM      1  N   UNL     1       5.470   3.836  13.890  0.00  0.00    +0.000 N 
ATOM      2  C   UNL     1       5.690   4.337  15.168  0.00  0.00    +0.000 A 
ATOM      3  N   UNL     1       6.569   5.354  15.294  0.00  0.00    +0.000 NA
ATOM      4  C   UNL     1       6.824   5.882  16.507  0.00  0.00    +0.000 A 
ATOM      5  N   UNL     1       7.731   6.931  16.596  0.00  0.00    +0.000 N 
ATOM      6  C   UNL     1       6.141   5.369  17.612  0.00  0.00    +0.000 A 
ATOM      7  N   UNL     1       6.171   5.704  18.946  0.00  0.00    +0.000 NA
ATOM      8  C   UNL     1       5.328   4.874  19.517  0.00  0.00    +0.000 A 
ATOM      9  N   UNL     1       4.722   4.050  18.601  0.00  0.00    +0.000 N 
ATOM     10  C   UNL     1       5.256   4.336  17.368  0.00  0.00    +0.000 A 
ATOM     11  N   UNL     1       4.987   3.771  16.175  0.00  0.00    +0.000 NA
ATOM     12  H   UNL     1       5.053   2.913  13.954  0.00  0.00    +0.000 HD
ATOM     13  H   UNL     1       7.811   7.424  15.717  0.00  0.00    +0.000 HD
ATOM     14  H   UNL     1       7.589   7.491  17.429  0.00  0.00    +0.000 HD
ENDROOT
BRANCH   1  15
ATOM     15  C   UNL     1       6.616   3.935  12.985  0.00  0.00    +0.000 C 
BRANCH  15  17
ATOM     16  C   UNL     1       7.190   2.094  11.337  0.00  0.00    +0.000 C 
ATOM     17  C   UNL     1       6.288   3.290  11.625  0.00  0.00    +0.000 C 
BRANCH  17  18
ATOM     18  O   UNL     1       4.924   2.853  11.598  0.00  0.00    +0.000 OA
ATOM     19  H   UNL     1       4.372   3.577  11.950  0.00  0.00    +0.000 HD
ENDBRANCH  17  18
ENDBRANCH  15  17
ENDBRANCH   1  15
BRANCH   9  20
ATOM     20  C   UNL     1       3.755   3.028  18.922  0.00  0.00    +0.000 C 
BRANCH  20  21
ATOM     21  C   UNL     1       2.326   3.314  18.446  0.00  0.00    +0.000 C 
ATOM     22  C   UNL     1       1.924   4.781  18.507  0.00  0.00    +0.000 C 
BRANCH  21  23
ATOM     23  O   UNL     1       2.196   2.861  17.091  0.00  0.00    +0.000 OA
ATOM     24  H   UNL     1       1.412   3.290  16.699  0.00  0.00    +0.000 HD
ENDBRANCH  21  23
ENDBRANCH  20  21
ENDBRANCH   9  20
TORSDOF 6
ENDMDL
