MODEL 1
REMARK VINA RESULT:      -9.1      0.000      0.000
REMARK  Name = 
REMARK  2 active torsions:
REMARK  status: ('A' for Active; 'I' for Inactive)
REMARK    1  A    between atoms: C_6  and  C_7
REMARK    2  A    between atoms: C_13  and  C_14
REMARK                            x       y       z     vdW  Elec       q    Type
REMARK                         _______ _______ _______ _____ _____    ______ ____
ROOT
ATOM      1  C   UNL     1       2.089   6.423  20.045  0.00  0.00    +0.000 A 
ATOM      2  C   UNL     1       1.281   5.434  20.760  0.00  0.00    +0.000 A 
ATOM      3  C   UNL     1       1.653   4.146  20.855  0.00  0.00    +0.000 A 
ATOM      4  C   UNL     1       2.860   3.713  20.245  0.00  0.00    +0.000 A 
ATOM      5  N   UNL     1       3.383   2.513  20.151  0.00  0.00    +0.000 NA
ATOM      6  C   UNL     1       4.545   2.692  19.457  0.00  0.00    +0.000 A 
ATOM      7  C   UNL     1       4.803   4.029  19.206  0.00  0.00    +0.000 A 
ATOM      8  N   UNL     1       3.647   4.677  19.614  0.00  0.00    +0.000 N 
ATOM      9  C   UNL     1       3.258   6.018  19.505  0.00  0.00    +0.000 A 
ENDROOT
BRANCH   1  15
ATOM     10  N   UNL     1       0.045  13.133  21.549  0.00  0.00    +0.000 N 
ATOM     11  C   UNL     1       0.401  11.916  21.132  0.00  0.00    +0.000 A 
ATOM     12  N   UNL     1       0.476  10.808  21.829  0.00  0.00    +0.000 NA
ATOM     13  C   UNL     1       0.901   9.882  20.911  0.00  0.00    +0.000 A 
ATOM     14  C   UNL     1       1.202   8.520  21.045  0.00  0.00    +0.000 A 
ATOM     15  C   UNL     1       1.659   7.824  19.910  0.00  0.00    +0.000 A 
ATOM     16  C   UNL     1       1.795   8.481  18.673  0.00  0.00    +0.000 A 
ATOM     17  C   UNL     1       1.484   9.839  18.523  0.00  0.00    +0.000 A 
ATOM     18  C   UNL     1       1.053  10.486  19.674  0.00  0.00    +0.000 A 
ATOM     19  O   UNL     1       0.719  11.801  19.812  0.00  0.00    +0.000 OA
ATOM     20  H   UNL     1      -0.457  13.176  22.428  0.00  0.00    +0.000 HD
ATOM     21  H   UNL     1      -0.262  13.794  20.850  0.00  0.00    +0.000 HD
ENDBRANCH   1  15
BRANCH   7  22
ATOM     22  C   UNL     1       5.957   4.666  18.614  0.00  0.00    +0.000 C 
ATOM     23  O   UNL     1       6.987   4.832  19.262  0.00  0.00    +0.000 OA
ATOM     24  N   UNL     1       5.889   5.049  17.275  0.00  0.00    +0.000 N 
ATOM     25  C   UNL     1       4.789   4.797  16.330  0.00  0.00    +0.000 C 
ATOM     26  C   UNL     1       5.293   4.131  15.048  0.00  0.00    +0.000 C 
ATOM     27  O   UNL     1       6.374   4.866  14.462  0.00  0.00    +0.000 OA
ATOM     28  C   UNL     1       7.468   4.974  15.386  0.00  0.00    +0.000 C 
ATOM     29  C   UNL     1       7.038   5.717  16.655  0.00  0.00    +0.000 C 
ENDBRANCH   7  22
TORSDOF 2
ENDMDL
MODEL 2
REMARK VINA RESULT:      -9.0      1.100      1.472
REMARK  Name = 
REMARK  2 active torsions:
REMARK  status: ('A' for Active; 'I' for Inactive)
REMARK    1  A    between atoms: C_6  and  C_7
REMARK    2  A    between atoms: C_13  and  C_14
REMARK                            x       y       z     vdW  Elec       q    Type
REMARK                         _______ _______ _______ _____ _____    ______ ____
ROOT
ATOM      1  C   UNL     1       2.077   6.214  20.206  0.00  0.00    +0.000 A 
ATOM      2  C   UNL     1       1.260   5.165  20.816  0.00  0.00    +0.000 A 
ATOM      3  C   UNL     1       1.611   3.868  20.764  0.00  0.00    +0.000 A 
ATOM      4  C   UNL     1       2.805   3.487  20.097  0.00  0.00    +0.000 A 
ATOM      5  N   UNL     1       3.306   2.296  19.864  0.00  0.00    +0.000 NA
ATOM      6  C   UNL     1       4.464   2.533  19.181  0.00  0.00    +0.000 A 
ATOM      7  C   UNL     1       4.742   3.885  19.077  0.00  0.00    +0.000 A 
ATOM      8  N   UNL     1       3.602   4.502  19.567  0.00  0.00    +0.000 N 
ATOM      9  C   UNL     1       3.234   5.853  19.612  0.00  0.00    +0.000 A 
ENDROOT
BRANCH   1  15
ATOM     10  N   UNL     1       0.485  12.919  18.214  0.00  0.00    +0.000 N 
ATOM     11  C   UNL     1       0.761  11.715  18.719  0.00  0.00    +0.000 A 
ATOM     12  N   UNL     1       1.405  10.724  18.152  0.00  0.00    +0.000 NA
ATOM     13  C   UNL     1       1.383   9.741  19.107  0.00  0.00    +0.000 A 
ATOM     14  C   UNL     1       1.877   8.429  19.094  0.00  0.00    +0.000 A 
ATOM     15  C   UNL     1       1.670   7.628  20.232  0.00  0.00    +0.000 A 
ATOM     16  C   UNL     1       0.996   8.140  21.357  0.00  0.00    +0.000 A 
ATOM     17  C   UNL     1       0.509   9.454  21.386  0.00  0.00    +0.000 A 
ATOM     18  C   UNL     1       0.724  10.200  20.234  0.00  0.00    +0.000 A 
ATOM     19  O   UNL     1       0.330  11.482  19.990  0.00  0.00    +0.000 OA
ATOM     20  H   UNL     1       1.031  13.203  17.408  0.00  0.00    +0.000 HD
ATOM     21  H   UNL     1       0.269  13.660  18.865  0.00  0.00    +0.000 HD
ENDBRANCH   1  15
BRANCH   7  22
ATOM     22  C   UNL     1       5.901   4.565  18.546  0.00  0.00    +0.000 C 
ATOM     23  O   UNL     1       6.904   4.735  19.235  0.00  0.00    +0.000 OA
ATOM     24  N   UNL     1       5.872   4.987  17.217  0.00  0.00    +0.000 N 
ATOM     25  C   UNL     1       4.812   4.738  16.226  0.00  0.00    +0.000 C 
ATOM     26  C   UNL     1       5.377   4.123  14.944  0.00  0.00    +0.000 C 
ATOM     27  O   UNL     1       6.460   4.900  14.419  0.00  0.00    +0.000 OA
ATOM     28  C   UNL     1       7.519   5.005  15.385  0.00  0.00    +0.000 C 
ATOM     29  C   UNL     1       7.026   5.699  16.659  0.00  0.00    +0.000 C 
ENDBRANCH   7  22
TORSDOF 2
ENDMDL
MODEL 3
REMARK VINA RESULT:      -8.9      1.568      2.401
REMARK  Name = 
REMARK  2 active torsions:
REMARK  status: ('A' for Active; 'I' for Inactive)
REMARK    1  A    between atoms: C_6  and  C_7
REMARK    2  A    between atoms: C_13  and  C_14
REMARK                            x       y       z     vdW  Elec       q    Type
REMARK                         _______ _______ _______ _____ _____    ______ ____
ROOT
ATOM      1  C   UNL     1       1.978   5.813  19.777  0.00  0.00    +0.000 A 
ATOM      2  C   UNL     1       1.338   4.823  20.643  0.00  0.00    +0.000 A 
ATOM      3  C   UNL     1       1.537   3.503  20.483  0.00  0.00    +0.000 A 
ATOM      4  C   UNL     1       2.388   3.038  19.446  0.00  0.00    +0.000 A 
ATOM      5  N   UNL     1       2.675   1.816  19.065  0.00  0.00    +0.000 NA
ATOM      6  C   UNL     1       3.539   1.970  18.019  0.00  0.00    +0.000 A 
ATOM      7  C   UNL     1       3.878   3.296  17.813  0.00  0.00    +0.000 A 
ATOM      8  N   UNL     1       3.035   3.995  18.664  0.00  0.00    +0.000 N 
ATOM      9  C   UNL     1       2.822   5.370  18.821  0.00  0.00    +0.000 A 
ENDROOT
BRANCH   1  15
ATOM     10  N   UNL     1       1.035  12.786  18.377  0.00  0.00    +0.000 N 
ATOM     11  C   UNL     1       1.201  11.523  18.776  0.00  0.00    +0.000 A 
ATOM     12  N   UNL     1       1.711  10.519  18.104  0.00  0.00    +0.000 NA
ATOM     13  C   UNL     1       1.623   9.470  18.982  0.00  0.00    +0.000 A 
ATOM     14  C   UNL     1       1.971   8.119  18.846  0.00  0.00    +0.000 A 
ATOM     15  C   UNL     1       1.727   7.255  19.930  0.00  0.00    +0.000 A 
ATOM     16  C   UNL     1       1.159   7.743  21.121  0.00  0.00    +0.000 A 
ATOM     17  C   UNL     1       0.818   9.094  21.274  0.00  0.00    +0.000 A 
ATOM     18  C   UNL     1       1.063   9.903  20.173  0.00  0.00    +0.000 A 
ATOM     19  O   UNL     1       0.800  11.235  20.046  0.00  0.00    +0.000 OA
ATOM     20  H   UNL     1       1.575  13.075  17.570  0.00  0.00    +0.000 HD
ATOM     21  H   UNL     1       0.927  13.491  19.093  0.00  0.00    +0.000 HD
ENDBRANCH   1  15
BRANCH   7  22
ATOM     22  C   UNL     1       4.833   3.889  16.906  0.00  0.00    +0.000 C 
ATOM     23  O   UNL     1       4.584   3.996  15.708  0.00  0.00    +0.000 OA
ATOM     24  N   UNL     1       6.030   4.379  17.429  0.00  0.00    +0.000 N 
ATOM     25  C   UNL     1       6.417   4.453  18.847  0.00  0.00    +0.000 C 
ATOM     26  C   UNL     1       6.866   5.866  19.231  0.00  0.00    +0.000 C 
ATOM     27  O   UNL     1       7.882   6.354  18.348  0.00  0.00    +0.000 OA
ATOM     28  C   UNL     1       7.405   6.375  16.994  0.00  0.00    +0.000 C 
ATOM     29  C   UNL     1       7.027   4.965  16.528  0.00  0.00    +0.000 C 
ENDBRANCH   7  22
TORSDOF 2
ENDMDL
MODEL 4
REMARK VINA RESULT:      -8.4      1.040      1.719
REMARK  Name = 
REMARK  2 active torsions:
REMARK  status: ('A' for Active; 'I' for Inactive)
REMARK    1  A    between atoms: C_6  and  C_7
REMARK    2  A    between atoms: C_13  and  C_14
REMARK                            x       y       z     vdW  Elec       q    Type
REMARK                         _______ _______ _______ _____ _____    ______ ____
ROOT
ATOM      1  C   UNL     1       2.086   6.271  19.765  0.00  0.00    +0.000 A 
ATOM      2  C   UNL     1       1.623   5.471  20.899  0.00  0.00    +0.000 A 
ATOM      3  C   UNL     1       1.907   4.162  21.009  0.00  0.00    +0.000 A 
ATOM      4  C   UNL     1       2.675   3.519  20.003  0.00  0.00    +0.000 A 
ATOM      5  N   UNL     1       3.015   2.258  19.866  0.00  0.00    +0.000 NA
ATOM      6  C   UNL     1       3.746   2.216  18.714  0.00  0.00    +0.000 A 
ATOM      7  C   UNL     1       3.954   3.477  18.182  0.00  0.00    +0.000 A 
ATOM      8  N   UNL     1       3.157   4.306  18.956  0.00  0.00    +0.000 N 
ATOM      9  C   UNL     1       2.854   5.668  18.833  0.00  0.00    +0.000 A 
ENDROOT
BRANCH   1  15
ATOM     10  N   UNL     1       0.445  13.093  21.259  0.00  0.00    +0.000 N 
ATOM     11  C   UNL     1       0.727  11.856  20.844  0.00  0.00    +0.000 A 
ATOM     12  N   UNL     1       0.737  10.747  21.542  0.00  0.00    +0.000 NA
ATOM     13  C   UNL     1       1.106   9.796  20.626  0.00  0.00    +0.000 A 
ATOM     14  C   UNL     1       1.326   8.419  20.762  0.00  0.00    +0.000 A 
ATOM     15  C   UNL     1       1.740   7.695  19.628  0.00  0.00    +0.000 A 
ATOM     16  C   UNL     1       1.914   8.340  18.389  0.00  0.00    +0.000 A 
ATOM     17  C   UNL     1       1.684   9.715  18.238  0.00  0.00    +0.000 A 
ATOM     18  C   UNL     1       1.293  10.388  19.388  0.00  0.00    +0.000 A 
ATOM     19  O   UNL     1       1.037  11.720  19.524  0.00  0.00    +0.000 OA
ATOM     20  H   UNL     1      -0.053  13.167  22.138  0.00  0.00    +0.000 HD
ATOM     21  H   UNL     1       0.177  13.770  20.558  0.00  0.00    +0.000 HD
ENDBRANCH   1  15
BRANCH   7  22
ATOM     22  C   UNL     1       4.756   3.898  17.057  0.00  0.00    +0.000 C 
ATOM     23  O   UNL     1       4.327   3.815  15.909  0.00  0.00    +0.000 OA
ATOM     24  N   UNL     1       6.016   4.444  17.306  0.00  0.00    +0.000 N 
ATOM     25  C   UNL     1       6.615   4.740  18.618  0.00  0.00    +0.000 C 
ATOM     26  C   UNL     1       7.107   6.187  18.695  0.00  0.00    +0.000 C 
ATOM     27  O   UNL     1       7.974   6.508  17.601  0.00  0.00    +0.000 OA
ATOM     28  C   UNL     1       7.295   6.319  16.349  0.00  0.00    +0.000 C 
ATOM     29  C   UNL     1       6.860   4.859  16.181  0.00  0.00    +0.000 C 
ENDBRANCH   7  22
TORSDOF 2
ENDMDL
MODEL 5
REMARK VINA RESULT:      -8.1      1.330      2.082
REMARK  Name = 
REMARK  2 active torsions:
REMARK  status: ('A' for Active; 'I' for Inactive)
REMARK    1  A    between atoms: C_6  and  C_7
REMARK    2  A    between atoms: C_13  and  C_14
REMARK                            x       y       z     vdW  Elec       q    Type
REMARK                         _______ _______ _______ _____ _____    ______ ____
ROOT
ATOM      1  C   UNL     1       1.874   5.611  19.896  0.00  0.00    +0.000 A 
ATOM      2  C   UNL     1       1.374   4.537  20.754  0.00  0.00    +0.000 A 
ATOM      3  C   UNL     1       1.722   3.253  20.564  0.00  0.00    +0.000 A 
ATOM      4  C   UNL     1       2.599   2.909  19.501  0.00  0.00    +0.000 A 
ATOM      5  N   UNL     1       3.018   1.736  19.088  0.00  0.00    +0.000 NA
ATOM      6  C   UNL     1       3.835   2.009  18.029  0.00  0.00    +0.000 A 
ATOM      7  C   UNL     1       4.011   3.370  17.843  0.00  0.00    +0.000 A 
ATOM      8  N   UNL     1       3.112   3.949  18.725  0.00  0.00    +0.000 N 
ATOM      9  C   UNL     1       2.743   5.287  18.914  0.00  0.00    +0.000 A 
ENDROOT
BRANCH   1  15
ATOM     10  N   UNL     1      -0.713  11.661  22.753  0.00  0.00    +0.000 N 
ATOM     11  C   UNL     1      -0.217  10.609  22.099  0.00  0.00    +0.000 A 
ATOM     12  N   UNL     1      -0.311   9.339  22.413  0.00  0.00    +0.000 NA
ATOM     13  C   UNL     1       0.386   8.711  21.414  0.00  0.00    +0.000 A 
ATOM     14  C   UNL     1       0.677   7.356  21.201  0.00  0.00    +0.000 A 
ATOM     15  C   UNL     1       1.459   7.011  20.083  0.00  0.00    +0.000 A 
ATOM     16  C   UNL     1       1.924   8.001  19.199  0.00  0.00    +0.000 A 
ATOM     17  C   UNL     1       1.629   9.358  19.394  0.00  0.00    +0.000 A 
ATOM     18  C   UNL     1       0.868   9.651  20.518  0.00  0.00    +0.000 A 
ATOM     19  O   UNL     1       0.469  10.879  20.954  0.00  0.00    +0.000 OA
ATOM     20  H   UNL     1      -1.446  11.466  23.424  0.00  0.00    +0.000 HD
ATOM     21  H   UNL     1      -0.826  12.521  22.235  0.00  0.00    +0.000 HD
ENDBRANCH   1  15
BRANCH   7  22
ATOM     22  C   UNL     1       4.870   4.087  16.929  0.00  0.00    +0.000 C 
ATOM     23  O   UNL     1       4.520   4.303  15.772  0.00  0.00    +0.000 OA
ATOM     24  N   UNL     1       6.089   4.568  17.405  0.00  0.00    +0.000 N 
ATOM     25  C   UNL     1       6.590   4.516  18.788  0.00  0.00    +0.000 C 
ATOM     26  C   UNL     1       7.024   5.900  19.278  0.00  0.00    +0.000 C 
ATOM     27  O   UNL     1       7.949   6.513  18.373  0.00  0.00    +0.000 OA
ATOM     28  C   UNL     1       7.362   6.651  17.069  0.00  0.00    +0.000 C 
ATOM     29  C   UNL     1       6.990   5.280  16.493  0.00  0.00    +0.000 C 
ENDBRANCH   7  22
TORSDOF 2
ENDMDL
MODEL 6
REMARK VINA RESULT:      -8.1      1.449      2.435
REMARK  Name = 
REMARK  2 active torsions:
REMARK  status: ('A' for Active; 'I' for Inactive)
REMARK    1  A    between atoms: C_6  and  C_7
REMARK    2  A    between atoms: C_13  and  C_14
REMARK                            x       y       z     vdW  Elec       q    Type
REMARK                         _______ _______ _______ _____ _____    ______ ____
ROOT
ATOM      1  C   UNL     1       1.841   6.481  19.931  0.00  0.00    +0.000 A 
ATOM      2  C   UNL     1       1.170   5.306  20.487  0.00  0.00    +0.000 A 
ATOM      3  C   UNL     1       1.405   4.066  20.025  0.00  0.00    +0.000 A 
ATOM      4  C   UNL     1       2.327   3.872  18.962  0.00  0.00    +0.000 A 
ATOM      5  N   UNL     1       2.661   2.781  18.314  0.00  0.00    +0.000 NA
ATOM      6  C   UNL     1       3.585   3.190  17.395  0.00  0.00    +0.000 A 
ATOM      7  C   UNL     1       3.908   4.528  17.540  0.00  0.00    +0.000 A 
ATOM      8  N   UNL     1       3.001   4.994  18.479  0.00  0.00    +0.000 N 
ATOM      9  C   UNL     1       2.751   6.288  18.952  0.00  0.00    +0.000 A 
ENDROOT
BRANCH   1  15
ATOM     10  N   UNL     1       0.141  13.446  20.167  0.00  0.00    +0.000 N 
ATOM     11  C   UNL     1       0.483  12.159  20.263  0.00  0.00    +0.000 A 
ATOM     12  N   UNL     1       0.858  11.345  19.307  0.00  0.00    +0.000 NA
ATOM     13  C   UNL     1       1.068  10.159  19.963  0.00  0.00    +0.000 A 
ATOM     14  C   UNL     1       1.450   8.896  19.489  0.00  0.00    +0.000 A 
ATOM     15  C   UNL     1       1.552   7.841  20.414  0.00  0.00    +0.000 A 
ATOM     16  C   UNL     1       1.289   8.055  21.780  0.00  0.00    +0.000 A 
ATOM     17  C   UNL     1       0.919   9.317  22.267  0.00  0.00    +0.000 A 
ATOM     18  C   UNL     1       0.816  10.322  21.315  0.00  0.00    +0.000 A 
ATOM     19  O   UNL     1       0.448  11.619  21.514  0.00  0.00    +0.000 OA
ATOM     20  H   UNL     1       0.430  13.924  19.321  0.00  0.00    +0.000 HD
ATOM     21  H   UNL     1       0.183  14.004  21.008  0.00  0.00    +0.000 HD
ENDBRANCH   1  15
BRANCH   7  22
ATOM     22  C   UNL     1       4.905   5.329  16.868  0.00  0.00    +0.000 C 
ATOM     23  O   UNL     1       4.628   5.956  15.848  0.00  0.00    +0.000 OA
ATOM     24  N   UNL     1       6.179   5.410  17.429  0.00  0.00    +0.000 N 
ATOM     25  C   UNL     1       6.628   4.839  18.709  0.00  0.00    +0.000 C 
ATOM     26  C   UNL     1       7.293   5.897  19.592  0.00  0.00    +0.000 C 
ATOM     27  O   UNL     1       8.336   6.587  18.893  0.00  0.00    +0.000 OA
ATOM     28  C   UNL     1       7.815   7.229  17.718  0.00  0.00    +0.000 C 
ATOM     29  C   UNL     1       7.216   6.198  16.755  0.00  0.00    +0.000 C 
ENDBRANCH   7  22
TORSDOF 2
ENDMDL
MODEL 7
REMARK VINA RESULT:      -7.9      2.159      3.967
REMARK  Name = 
REMARK  2 active torsions:
REMARK  status: ('A' for Active; 'I' for Inactive)
REMARK    1  A    between atoms: C_6  and  C_7
REMARK    2  A    between atoms: C_13  and  C_14
REMARK                            x       y       z     vdW  Elec       q    Type
REMARK                         _______ _______ _______ _____ _____    ______ ____
ROOT
ATOM      1  C   UNL     1       3.243   7.385  17.930  0.00  0.00    +0.000 A 
ATOM      2  C   UNL     1       3.912   7.880  16.727  0.00  0.00    +0.000 A 
ATOM      3  C   UNL     1       4.875   7.176  16.107  0.00  0.00    +0.000 A 
ATOM      4  C   UNL     1       5.270   5.914  16.625  0.00  0.00    +0.000 A 
ATOM      5  N   UNL     1       6.216   5.092  16.234  0.00  0.00    +0.000 NA
ATOM      6  C   UNL     1       6.144   4.040  17.101  0.00  0.00    +0.000 A 
ATOM      7  C   UNL     1       5.076   4.155  17.974  0.00  0.00    +0.000 A 
ATOM      8  N   UNL     1       4.585   5.430  17.740  0.00  0.00    +0.000 N 
ATOM      9  C   UNL     1       3.588   6.165  18.393  0.00  0.00    +0.000 A 
ENDROOT
BRANCH   1  15
ATOM     10  N   UNL     1      -0.856  10.292  23.050  0.00  0.00    +0.000 N 
ATOM     11  C   UNL     1      -0.179   9.816  22.003  0.00  0.00    +0.000 A 
ATOM     12  N   UNL     1       0.639   8.792  21.962  0.00  0.00    +0.000 NA
ATOM     13  C   UNL     1       1.055   8.769  20.655  0.00  0.00    +0.000 A 
ATOM     14  C   UNL     1       1.959   7.930  19.989  0.00  0.00    +0.000 A 
ATOM     15  C   UNL     1       2.216   8.177  18.627  0.00  0.00    +0.000 A 
ATOM     16  C   UNL     1       1.570   9.230  17.954  0.00  0.00    +0.000 A 
ATOM     17  C   UNL     1       0.654  10.067  18.607  0.00  0.00    +0.000 A 
ATOM     18  C   UNL     1       0.446   9.795  19.953  0.00  0.00    +0.000 A 
ATOM     19  O   UNL     1      -0.363  10.467  20.820  0.00  0.00    +0.000 OA
ATOM     20  H   UNL     1      -0.954   9.667  23.841  0.00  0.00    +0.000 HD
ATOM     21  H   UNL     1      -1.663  10.870  22.860  0.00  0.00    +0.000 HD
ENDBRANCH   1  15
BRANCH   7  22
ATOM     22  C   UNL     1       4.569   3.229  18.961  0.00  0.00    +0.000 C 
ATOM     23  O   UNL     1       5.231   2.939  19.954  0.00  0.00    +0.000 OA
ATOM     24  N   UNL     1       3.289   2.705  18.782  0.00  0.00    +0.000 N 
ATOM     25  C   UNL     1       2.321   3.055  17.729  0.00  0.00    +0.000 C 
ATOM     26  C   UNL     1       0.964   3.440  18.323  0.00  0.00    +0.000 C 
ATOM     27  O   UNL     1       0.476   2.434  19.217  0.00  0.00    +0.000 OA
ATOM     28  C   UNL     1       1.404   2.222  20.293  0.00  0.00    +0.000 C 
ATOM     29  C   UNL     1       2.758   1.746  19.756  0.00  0.00    +0.000 C 
ENDBRANCH   7  22
TORSDOF 2
ENDMDL
MODEL 8
REMARK VINA RESULT:      -7.9      2.333      8.516
REMARK  Name = 
REMARK  2 active torsions:
REMARK  status: ('A' for Active; 'I' for Inactive)
REMARK    1  A    between atoms: C_6  and  C_7
REMARK    2  A    between atoms: C_13  and  C_14
REMARK                            x       y       z     vdW  Elec       q    Type
REMARK                         _______ _______ _______ _____ _____    ______ ____
ROOT
ATOM      1  C   UNL     1       1.033   8.885  20.713  0.00  0.00    +0.000 A 
ATOM      2  C   UNL     1       0.371   8.402  21.925  0.00  0.00    +0.000 A 
ATOM      3  C   UNL     1      -0.326   9.222  22.731  0.00  0.00    +0.000 A 
ATOM      4  C   UNL     1      -0.430  10.602  22.413  0.00  0.00    +0.000 A 
ATOM      5  N   UNL     1      -0.991  11.587  23.074  0.00  0.00    +0.000 NA
ATOM      6  C   UNL     1      -0.780  12.692  22.300  0.00  0.00    +0.000 A 
ATOM      7  C   UNL     1      -0.173  12.377  21.096  0.00  0.00    +0.000 A 
ATOM      8  N   UNL     1       0.160  11.038  21.227  0.00  0.00    +0.000 N 
ATOM      9  C   UNL     1       0.895  10.188  20.390  0.00  0.00    +0.000 A 
ENDROOT
BRANCH   1  15
ATOM     10  N   UNL     1       4.260   3.079  18.004  0.00  0.00    +0.000 N 
ATOM     11  C   UNL     1       3.726   4.234  18.406  0.00  0.00    +0.000 A 
ATOM     12  N   UNL     1       3.190   4.520  19.568  0.00  0.00    +0.000 NA
ATOM     13  C   UNL     1       2.797   5.826  19.425  0.00  0.00    +0.000 A 
ATOM     14  C   UNL     1       2.133   6.692  20.304  0.00  0.00    +0.000 A 
ATOM     15  C   UNL     1       1.827   7.991  19.855  0.00  0.00    +0.000 A 
ATOM     16  C   UNL     1       2.193   8.407  18.562  0.00  0.00    +0.000 A 
ATOM     17  C   UNL     1       2.869   7.554  17.679  0.00  0.00    +0.000 A 
ATOM     18  C   UNL     1       3.134   6.279  18.161  0.00  0.00    +0.000 A 
ATOM     19  O   UNL     1       3.746   5.254  17.503  0.00  0.00    +0.000 OA
ATOM     20  H   UNL     1       4.507   2.421  18.734  0.00  0.00    +0.000 HD
ATOM     21  H   UNL     1       4.897   3.107  17.221  0.00  0.00    +0.000 HD
ENDBRANCH   1  15
BRANCH   7  22
ATOM     22  C   UNL     1       0.123  13.207  19.951  0.00  0.00    +0.000 C 
ATOM     23  O   UNL     1      -0.740  13.457  19.113  0.00  0.00    +0.000 OA
ATOM     24  N   UNL     1       1.400  13.756  19.842  0.00  0.00    +0.000 N 
ATOM     25  C   UNL     1       2.494  13.669  20.823  0.00  0.00    +0.000 C 
ATOM     26  C   UNL     1       3.048  15.053  21.168  0.00  0.00    +0.000 C 
ATOM     27  O   UNL     1       3.410  15.784  19.992  0.00  0.00    +0.000 OA
ATOM     28  C   UNL     1       2.274  15.946  19.128  0.00  0.00    +0.000 C 
ATOM     29  C   UNL     1       1.735  14.584  18.679  0.00  0.00    +0.000 C 
ENDBRANCH   7  22
TORSDOF 2
ENDMDL
MODEL 9
REMARK VINA RESULT:      -7.8      7.438     11.793
REMARK  Name = 
REMARK  2 active torsions:
REMARK  status: ('A' for Active; 'I' for Inactive)
REMARK    1  A    between atoms: C_6  and  C_7
REMARK    2  A    between atoms: C_13  and  C_14
REMARK                            x       y       z     vdW  Elec       q    Type
REMARK                         _______ _______ _______ _____ _____    ______ ____
ROOT
ATOM      1  C   UNL     1      -1.528  12.315  20.621  0.00  0.00    +0.000 A 
ATOM      2  C   UNL     1      -0.234  12.938  20.902  0.00  0.00    +0.000 A 
ATOM      3  C   UNL     1      -0.022  13.669  22.010  0.00  0.00    +0.000 A 
ATOM      4  C   UNL     1      -1.074  13.856  22.944  0.00  0.00    +0.000 A 
ATOM      5  N   UNL     1      -1.119  14.572  24.043  0.00  0.00    +0.000 NA
ATOM      6  C   UNL     1      -2.380  14.384  24.531  0.00  0.00    +0.000 A 
ATOM      7  C   UNL     1      -3.095  13.460  23.788  0.00  0.00    +0.000 A 
ATOM      8  N   UNL     1      -2.285  13.212  22.691  0.00  0.00    +0.000 N 
ATOM      9  C   UNL     1      -2.513  12.458  21.533  0.00  0.00    +0.000 A 
ENDROOT
BRANCH   1  15
ATOM     10  N   UNL     1      -4.173  10.132  14.320  0.00  0.00    +0.000 N 
ATOM     11  C   UNL     1      -3.602  10.419  15.492  0.00  0.00    +0.000 A 
ATOM     12  N   UNL     1      -4.016  11.254  16.414  0.00  0.00    +0.000 NA
ATOM     13  C   UNL     1      -3.051  11.163  17.383  0.00  0.00    +0.000 A 
ATOM     14  C   UNL     1      -2.903  11.832  18.606  0.00  0.00    +0.000 A 
ATOM     15  C   UNL     1      -1.767  11.548  19.387  0.00  0.00    +0.000 A 
ATOM     16  C   UNL     1      -0.815  10.607  18.954  0.00  0.00    +0.000 A 
ATOM     17  C   UNL     1      -0.959   9.921  17.740  0.00  0.00    +0.000 A 
ATOM     18  C   UNL     1      -2.086  10.247  16.997  0.00  0.00    +0.000 A 
ATOM     19  O   UNL     1      -2.447   9.755  15.778  0.00  0.00    +0.000 OA
ATOM     20  H   UNL     1      -5.148  10.390  14.221  0.00  0.00    +0.000 HD
ATOM     21  H   UNL     1      -3.913   9.263  13.875  0.00  0.00    +0.000 HD
ENDBRANCH   1  15
BRANCH   7  22
ATOM     22  C   UNL     1      -4.402  12.886  24.013  0.00  0.00    +0.000 C 
ATOM     23  O   UNL     1      -4.535  11.861  24.677  0.00  0.00    +0.000 OA
ATOM     24  N   UNL     1      -5.515  13.547  23.496  0.00  0.00    +0.000 N 
ATOM     25  C   UNL     1      -5.538  14.847  22.804  0.00  0.00    +0.000 C 
ATOM     26  C   UNL     1      -6.551  15.802  23.442  0.00  0.00    +0.000 C 
ATOM     27  O   UNL     1      -7.847  15.202  23.547  0.00  0.00    +0.000 OA
ATOM     28  C   UNL     1      -7.785  14.004  24.336  0.00  0.00    +0.000 C 
ATOM     29  C   UNL     1      -6.851  12.975  23.690  0.00  0.00    +0.000 C 
ENDBRANCH   7  22
TORSDOF 2
ENDMDL
