MODEL 1
REMARK VINA RESULT:      -8.1      0.000      0.000
REMARK  Name = 
REMARK  12 active torsions:
REMARK  status: ('A' for Active; 'I' for Inactive)
REMARK    1  A    between atoms: C_1  and  C_2
REMARK    2  A    between atoms: C_2  and  C_3
REMARK    3  A    between atoms: C_2  and  C_4
REMARK    4  A    between atoms: C_7  and  C_8
REMARK    5  A    between atoms: C_16  and  C_17
REMARK    6  A    between atoms: C_17  and  O_18
REMARK    7  A    between atoms: O_18  and  C_19
REMARK    8  A    between atoms: C_22  and  C_23
REMARK    9  A    between atoms: C_23  and  O_24
REMARK   10  A    between atoms: O_24  and  C_25
REMARK   11  A    between atoms: C_28  and  C_29
REMARK   12  A    between atoms: C_29  and  O_30
REMARK                            x       y       z     vdW  Elec       q    Type
REMARK                         _______ _______ _______ _____ _____    ______ ____
ROOT
ATOM      1  O   UNL     1       3.879   6.472  18.604  0.00  0.00    +0.000 OA
ENDROOT
BRANCH   1   2
ATOM      2  C   UNL     1       2.906   7.401  18.858  0.00  0.00    +0.000 A 
ATOM      3  C   UNL     1       2.620   8.289  17.825  0.00  0.00    +0.000 A 
ATOM      4  C   UNL     1       1.656   9.283  18.005  0.00  0.00    +0.000 A 
ATOM      5  C   UNL     1       0.971   9.397  19.221  0.00  0.00    +0.000 A 
ATOM      6  C   UNL     1       1.227   8.473  20.236  0.00  0.00    +0.000 A 
ATOM      7  C   UNL     1       2.183   7.484  20.043  0.00  0.00    +0.000 A 
BRANCH   5   8
ATOM      8  C   UNL     1      -0.090  10.440  19.431  0.00  0.00    +0.000 C 
BRANCH   8   9
ATOM      9  O   UNL     1      -0.802  10.557  18.205  0.00  0.00    +0.000 OA
BRANCH   9  10
ATOM     10  C   UNL     1      -2.126  10.874  18.318  0.00  0.00    +0.000 A 
ATOM     11  C   UNL     1      -2.987  10.005  17.641  0.00  0.00    +0.000 A 
ATOM     12  C   UNL     1      -4.367  10.198  17.688  0.00  0.00    +0.000 A 
ATOM     13  C   UNL     1      -4.908  11.254  18.433  0.00  0.00    +0.000 A 
ATOM     14  C   UNL     1      -4.032  12.124  19.104  0.00  0.00    +0.000 A 
ATOM     15  C   UNL     1      -2.647  11.928  19.058  0.00  0.00    +0.000 A 
BRANCH  13  16
ATOM     16  C   UNL     1      -6.405  11.479  18.449  0.00  0.00    +0.000 C 
BRANCH  16  17
ATOM     17  O   UNL     1      -7.114  10.254  18.546  0.00  0.00    +0.000 OA
ATOM     18  H   UNL     1      -6.453   9.543  18.490  0.00  0.00    +0.000 HD
ENDBRANCH  16  17
ENDBRANCH  13  16
ENDBRANCH   9  10
ENDBRANCH   8   9
ENDBRANCH   5   8
ENDBRANCH   1   2
BRANCH   1  19
ATOM     19  C   UNL     1       4.000   6.080  17.233  0.00  0.00    +0.000 C 
BRANCH  19  24
ATOM     20  C   UNL     1       5.214   4.123  16.132  0.00  0.00    +0.000 A 
ATOM     21  O   UNL     1       5.253   2.776  16.247  0.00  0.00    +0.000 OA
ATOM     22  N   UNL     1       4.389   2.371  17.232  0.00  0.00    +0.000 NA
ATOM     23  C   UNL     1       3.858   3.475  17.787  0.00  0.00    +0.000 A 
ATOM     24  C   UNL     1       4.324   4.635  17.063  0.00  0.00    +0.000 A 
BRANCH  23  25
ATOM     25  C   UNL     1       2.964   3.339  18.960  0.00  0.00    +0.000 A 
ATOM     26  C   UNL     1       1.656   3.892  18.949  0.00  0.00    +0.000 A 
ATOM     27 CL   UNL     1       0.952   4.691  17.577  0.00  0.00    +0.000 Cl
ATOM     28  C   UNL     1       0.814   3.817  20.075  0.00  0.00    +0.000 A 
ATOM     29  C   UNL     1       1.214   3.134  21.214  0.00  0.00    +0.000 A 
ATOM     30  C   UNL     1       2.479   2.569  21.246  0.00  0.00    +0.000 A 
ATOM     31  C   UNL     1       3.362   2.715  20.161  0.00  0.00    +0.000 A 
ATOM     32 CL   UNL     1       4.984   2.216  20.503  0.00  0.00    +0.000 Cl
ENDBRANCH  23  25
BRANCH  20  34
ATOM     33  C   UNL     1       7.519   4.977  15.589  0.00  0.00    +0.000 C 
ATOM     34  C   UNL     1       6.093   4.737  15.084  0.00  0.00    +0.000 C 
ATOM     35  C   UNL     1       6.108   3.900  13.809  0.00  0.00    +0.000 C 
ENDBRANCH  20  34
ENDBRANCH  19  24
ENDBRANCH   1  19
TORSDOF 10
ENDMDL
MODEL 2
REMARK VINA RESULT:      -8.1      1.953      2.879
REMARK  Name = 
REMARK  12 active torsions:
REMARK  status: ('A' for Active; 'I' for Inactive)
REMARK    1  A    between atoms: C_1  and  C_2
REMARK    2  A    between atoms: C_2  and  C_3
REMARK    3  A    between atoms: C_2  and  C_4
REMARK    4  A    between atoms: C_7  and  C_8
REMARK    5  A    between atoms: C_16  and  C_17
REMARK    6  A    between atoms: C_17  and  O_18
REMARK    7  A    between atoms: O_18  and  C_19
REMARK    8  A    between atoms: C_22  and  C_23
REMARK    9  A    between atoms: C_23  and  O_24
REMARK   10  A    between atoms: O_24  and  C_25
REMARK   11  A    between atoms: C_28  and  C_29
REMARK   12  A    between atoms: C_29  and  O_30
REMARK                            x       y       z     vdW  Elec       q    Type
REMARK                         _______ _______ _______ _____ _____    ______ ____
ROOT
ATOM      1  O   UNL     1       3.430   6.502  19.105  0.00  0.00    +0.000 OA
ENDROOT
BRANCH   1   2
ATOM      2  C   UNL     1       2.494   7.500  19.160  0.00  0.00    +0.000 A 
ATOM      3  C   UNL     1       2.276   8.205  17.980  0.00  0.00    +0.000 A 
ATOM      4  C   UNL     1       1.354   9.254  17.952  0.00  0.00    +0.000 A 
ATOM      5  C   UNL     1       0.645   9.606  19.106  0.00  0.00    +0.000 A 
ATOM      6  C   UNL     1       0.832   8.864  20.275  0.00  0.00    +0.000 A 
ATOM      7  C   UNL     1       1.746   7.818  20.289  0.00  0.00    +0.000 A 
BRANCH   5   8
ATOM      8  C   UNL     1      -0.373  10.712  19.096  0.00  0.00    +0.000 C 
BRANCH   8   9
ATOM      9  O   UNL     1       0.014  11.637  20.107  0.00  0.00    +0.000 OA
BRANCH   9  10
ATOM     10  C   UNL     1      -0.891  11.824  21.113  0.00  0.00    +0.000 A 
ATOM     11  C   UNL     1      -2.039  12.526  20.734  0.00  0.00    +0.000 A 
ATOM     12  C   UNL     1      -3.054  12.771  21.657  0.00  0.00    +0.000 A 
ATOM     13  C   UNL     1      -2.945  12.298  22.971  0.00  0.00    +0.000 A 
ATOM     14  C   UNL     1      -1.784  11.600  23.341  0.00  0.00    +0.000 A 
ATOM     15  C   UNL     1      -0.766  11.352  22.414  0.00  0.00    +0.000 A 
BRANCH  13  16
ATOM     16  C   UNL     1      -4.036  12.599  23.977  0.00  0.00    +0.000 C 
BRANCH  16  17
ATOM     17  O   UNL     1      -5.325  12.486  23.396  0.00  0.00    +0.000 OA
ATOM     18  H   UNL     1      -5.214  11.998  22.562  0.00  0.00    +0.000 HD
ENDBRANCH  16  17
ENDBRANCH  13  16
ENDBRANCH   9  10
ENDBRANCH   8   9
ENDBRANCH   5   8
ENDBRANCH   1   2
BRANCH   1  19
ATOM     19  C   UNL     1       4.117   6.386  17.855  0.00  0.00    +0.000 C 
BRANCH  19  24
ATOM     20  C   UNL     1       5.300   4.580  16.493  0.00  0.00    +0.000 A 
ATOM     21  O   UNL     1       5.292   3.230  16.398  0.00  0.00    +0.000 OA
ATOM     22  N   UNL     1       4.384   2.711  17.284  0.00  0.00    +0.000 NA
ATOM     23  C   UNL     1       3.873   3.735  17.991  0.00  0.00    +0.000 A 
ATOM     24  C   UNL     1       4.399   4.975  17.470  0.00  0.00    +0.000 A 
BRANCH  23  25
ATOM     25  C   UNL     1       2.938   3.451  19.105  0.00  0.00    +0.000 A 
ATOM     26  C   UNL     1       3.358   2.705  20.237  0.00  0.00    +0.000 A 
ATOM     27 CL   UNL     1       4.980   2.130  20.475  0.00  0.00    +0.000 Cl
ATOM     28  C   UNL     1       2.468   2.381  21.279  0.00  0.00    +0.000 A 
ATOM     29  C   UNL     1       1.162   2.845  21.263  0.00  0.00    +0.000 A 
ATOM     30  C   UNL     1       0.729   3.592  20.178  0.00  0.00    +0.000 A 
ATOM     31  C   UNL     1       1.584   3.844  19.090  0.00  0.00    +0.000 A 
ATOM     32 CL   UNL     1       0.784   4.516  17.710  0.00  0.00    +0.000 Cl
ENDBRANCH  23  25
BRANCH  20  34
ATOM     33  C   UNL     1       7.384   5.985  16.333  0.00  0.00    +0.000 C 
ATOM     34  C   UNL     1       6.231   5.316  15.577  0.00  0.00    +0.000 C 
ATOM     35  C   UNL     1       6.768   4.404  14.478  0.00  0.00    +0.000 C 
ENDBRANCH  20  34
ENDBRANCH  19  24
ENDBRANCH   1  19
TORSDOF 10
ENDMDL
MODEL 3
REMARK VINA RESULT:      -8.1      2.131      3.096
REMARK  Name = 
REMARK  12 active torsions:
REMARK  status: ('A' for Active; 'I' for Inactive)
REMARK    1  A    between atoms: C_1  and  C_2
REMARK    2  A    between atoms: C_2  and  C_3
REMARK    3  A    between atoms: C_2  and  C_4
REMARK    4  A    between atoms: C_7  and  C_8
REMARK    5  A    between atoms: C_16  and  C_17
REMARK    6  A    between atoms: C_17  and  O_18
REMARK    7  A    between atoms: O_18  and  C_19
REMARK    8  A    between atoms: C_22  and  C_23
REMARK    9  A    between atoms: C_23  and  O_24
REMARK   10  A    between atoms: O_24  and  C_25
REMARK   11  A    between atoms: C_28  and  C_29
REMARK   12  A    between atoms: C_29  and  O_30
REMARK                            x       y       z     vdW  Elec       q    Type
REMARK                         _______ _______ _______ _____ _____    ______ ____
ROOT
ATOM      1  O   UNL     1       3.677   6.546  18.658  0.00  0.00    +0.000 OA
ENDROOT
BRANCH   1   2
ATOM      2  C   UNL     1       2.736   7.537  18.755  0.00  0.00    +0.000 A 
ATOM      3  C   UNL     1       2.101   7.663  19.987  0.00  0.00    +0.000 A 
ATOM      4  C   UNL     1       1.113   8.633  20.168  0.00  0.00    +0.000 A 
ATOM      5  C   UNL     1       0.752   9.483  19.117  0.00  0.00    +0.000 A 
ATOM      6  C   UNL     1       1.425   9.384  17.898  0.00  0.00    +0.000 A 
ATOM      7  C   UNL     1       2.412   8.420  17.731  0.00  0.00    +0.000 A 
BRANCH   5   8
ATOM      8  C   UNL     1      -0.289  10.553  19.293  0.00  0.00    +0.000 C 
BRANCH   8   9
ATOM      9  O   UNL     1      -0.012  11.198  20.530  0.00  0.00    +0.000 OA
BRANCH   9  10
ATOM     10  C   UNL     1      -1.103  11.640  21.224  0.00  0.00    +0.000 A 
ATOM     11  C   UNL     1      -1.129  11.252  22.567  0.00  0.00    +0.000 A 
ATOM     12  C   UNL     1      -2.174  11.651  23.398  0.00  0.00    +0.000 A 
ATOM     13  C   UNL     1      -3.202  12.464  22.901  0.00  0.00    +0.000 A 
ATOM     14  C   UNL     1      -3.167  12.842  21.549  0.00  0.00    +0.000 A 
ATOM     15  C   UNL     1      -2.116  12.443  20.716  0.00  0.00    +0.000 A 
BRANCH  13  16
ATOM     16  C   UNL     1      -4.352  12.862  23.800  0.00  0.00    +0.000 C 
BRANCH  16  17
ATOM     17  O   UNL     1      -3.892  13.345  25.052  0.00  0.00    +0.000 OA
ATOM     18  H   UNL     1      -4.471  14.087  25.297  0.00  0.00    +0.000 HD
ENDBRANCH  16  17
ENDBRANCH  13  16
ENDBRANCH   9  10
ENDBRANCH   8   9
ENDBRANCH   5   8
ENDBRANCH   1   2
BRANCH   1  19
ATOM     19  C   UNL     1       4.067   6.212  17.323  0.00  0.00    +0.000 C 
BRANCH  19  24
ATOM     20  C   UNL     1       5.229   4.231  16.207  0.00  0.00    +0.000 A 
ATOM     21  O   UNL     1       5.232   2.882  16.312  0.00  0.00    +0.000 OA
ATOM     22  N   UNL     1       4.356   2.494  17.293  0.00  0.00    +0.000 NA
ATOM     23  C   UNL     1       3.855   3.608  17.856  0.00  0.00    +0.000 A 
ATOM     24  C   UNL     1       4.353   4.760  17.142  0.00  0.00    +0.000 A 
BRANCH  23  25
ATOM     25  C   UNL     1       2.957   3.486  19.028  0.00  0.00    +0.000 A 
ATOM     26  C   UNL     1       3.365   2.781  20.190  0.00  0.00    +0.000 A 
ATOM     27 CL   UNL     1       4.940   2.075  20.395  0.00  0.00    +0.000 Cl
ATOM     28  C   UNL     1       2.504   2.610  21.291  0.00  0.00    +0.000 A 
ATOM     29  C   UNL     1       1.245   3.191  21.301  0.00  0.00    +0.000 A 
ATOM     30  C   UNL     1       0.826   3.901  20.186  0.00  0.00    +0.000 A 
ATOM     31  C   UNL     1       1.644   4.001  19.046  0.00  0.00    +0.000 A 
ATOM     32 CL   UNL     1       0.838   4.652  17.659  0.00  0.00    +0.000 Cl
ENDBRANCH  23  25
BRANCH  20  34
ATOM     33  C   UNL     1       7.550   5.055  15.681  0.00  0.00    +0.000 C 
ATOM     34  C   UNL     1       6.125   4.830  15.164  0.00  0.00    +0.000 C 
ATOM     35  C   UNL     1       6.142   3.986  13.893  0.00  0.00    +0.000 C 
ENDBRANCH  20  34
ENDBRANCH  19  24
ENDBRANCH   1  19
TORSDOF 10
ENDMDL
MODEL 4
REMARK VINA RESULT:      -8.1      1.578      2.604
REMARK  Name = 
REMARK  12 active torsions:
REMARK  status: ('A' for Active; 'I' for Inactive)
REMARK    1  A    between atoms: C_1  and  C_2
REMARK    2  A    between atoms: C_2  and  C_3
REMARK    3  A    between atoms: C_2  and  C_4
REMARK    4  A    between atoms: C_7  and  C_8
REMARK    5  A    between atoms: C_16  and  C_17
REMARK    6  A    between atoms: C_17  and  O_18
REMARK    7  A    between atoms: O_18  and  C_19
REMARK    8  A    between atoms: C_22  and  C_23
REMARK    9  A    between atoms: C_23  and  O_24
REMARK   10  A    between atoms: O_24  and  C_25
REMARK   11  A    between atoms: C_28  and  C_29
REMARK   12  A    between atoms: C_29  and  O_30
REMARK                            x       y       z     vdW  Elec       q    Type
REMARK                         _______ _______ _______ _____ _____    ______ ____
ROOT
ATOM      1  O   UNL     1       3.073   6.562  18.968  0.00  0.00    +0.000 OA
ENDROOT
BRANCH   1   2
ATOM      2  C   UNL     1       2.367   7.732  19.048  0.00  0.00    +0.000 A 
ATOM      3  C   UNL     1       1.729   7.984  20.259  0.00  0.00    +0.000 A 
ATOM      4  C   UNL     1       0.969   9.144  20.421  0.00  0.00    +0.000 A 
ATOM      5  C   UNL     1       0.839  10.060  19.371  0.00  0.00    +0.000 A 
ATOM      6  C   UNL     1       1.519   9.826  18.174  0.00  0.00    +0.000 A 
ATOM      7  C   UNL     1       2.279   8.672  18.027  0.00  0.00    +0.000 A 
BRANCH   5   8
ATOM      8  C   UNL     1       0.049  11.329  19.528  0.00  0.00    +0.000 C 
BRANCH   8   9
ATOM      9  O   UNL     1      -1.318  10.952  19.650  0.00  0.00    +0.000 OA
BRANCH   9  10
ATOM     10  C   UNL     1      -1.964  10.685  18.476  0.00  0.00    +0.000 A 
ATOM     11  C   UNL     1      -1.770  11.645  17.479  0.00  0.00    +0.000 A 
ATOM     12  C   UNL     1      -2.355  11.489  16.224  0.00  0.00    +0.000 A 
ATOM     13  C   UNL     1      -3.128  10.356  15.940  0.00  0.00    +0.000 A 
ATOM     14  C   UNL     1      -3.321   9.401  16.952  0.00  0.00    +0.000 A 
ATOM     15  C   UNL     1      -2.731   9.557  18.212  0.00  0.00    +0.000 A 
BRANCH  13  16
ATOM     16  C   UNL     1      -3.790  10.211  14.586  0.00  0.00    +0.000 C 
BRANCH  16  17
ATOM     17  O   UNL     1      -2.841  10.263  13.534  0.00  0.00    +0.000 OA
ATOM     18  H   UNL     1      -2.497  11.173  13.512  0.00  0.00    +0.000 HD
ENDBRANCH  16  17
ENDBRANCH  13  16
ENDBRANCH   9  10
ENDBRANCH   8   9
ENDBRANCH   5   8
ENDBRANCH   1   2
BRANCH   1  19
ATOM     19  C   UNL     1       3.995   6.485  17.876  0.00  0.00    +0.000 C 
BRANCH  19  24
ATOM     20  C   UNL     1       5.320   4.729  16.580  0.00  0.00    +0.000 A 
ATOM     21  O   UNL     1       5.381   3.380  16.496  0.00  0.00    +0.000 OA
ATOM     22  N   UNL     1       4.463   2.823  17.348  0.00  0.00    +0.000 NA
ATOM     23  C   UNL     1       3.873   3.825  18.025  0.00  0.00    +0.000 A 
ATOM     24  C   UNL     1       4.361   5.086  17.515  0.00  0.00    +0.000 A 
BRANCH  23  25
ATOM     25  C   UNL     1       2.907   3.504  19.101  0.00  0.00    +0.000 A 
ATOM     26  C   UNL     1       3.314   2.784  20.255  0.00  0.00    +0.000 A 
ATOM     27 CL   UNL     1       4.950   2.289  20.564  0.00  0.00    +0.000 Cl
ATOM     28  C   UNL     1       2.397   2.425  21.262  0.00  0.00    +0.000 A 
ATOM     29  C   UNL     1       1.072   2.826  21.188  0.00  0.00    +0.000 A 
ATOM     30  C   UNL     1       0.650   3.545  20.080  0.00  0.00    +0.000 A 
ATOM     31  C   UNL     1       1.538   3.832  19.026  0.00  0.00    +0.000 A 
ATOM     32 CL   UNL     1       0.765   4.458  17.610  0.00  0.00    +0.000 Cl
ENDBRANCH  23  25
BRANCH  20  34
ATOM     33  C   UNL     1       7.341   6.229  16.496  0.00  0.00    +0.000 C 
ATOM     34  C   UNL     1       6.253   5.504  15.698  0.00  0.00    +0.000 C 
ATOM     35  C   UNL     1       6.876   4.613  14.628  0.00  0.00    +0.000 C 
ENDBRANCH  20  34
ENDBRANCH  19  24
ENDBRANCH   1  19
TORSDOF 10
ENDMDL
MODEL 5
REMARK VINA RESULT:      -8.0      2.174      4.574
REMARK  Name = 
REMARK  12 active torsions:
REMARK  status: ('A' for Active; 'I' for Inactive)
REMARK    1  A    between atoms: C_1  and  C_2
REMARK    2  A    between atoms: C_2  and  C_3
REMARK    3  A    between atoms: C_2  and  C_4
REMARK    4  A    between atoms: C_7  and  C_8
REMARK    5  A    between atoms: C_16  and  C_17
REMARK    6  A    between atoms: C_17  and  O_18
REMARK    7  A    between atoms: O_18  and  C_19
REMARK    8  A    between atoms: C_22  and  C_23
REMARK    9  A    between atoms: C_23  and  O_24
REMARK   10  A    between atoms: O_24  and  C_25
REMARK   11  A    between atoms: C_28  and  C_29
REMARK   12  A    between atoms: C_29  and  O_30
REMARK                            x       y       z     vdW  Elec       q    Type
REMARK                         _______ _______ _______ _____ _____    ______ ____
ROOT
ATOM      1  O   UNL     1       2.546   6.947  19.977  0.00  0.00    +0.000 OA
ENDROOT
BRANCH   1   2
ATOM      2  C   UNL     1       1.787   8.055  19.714  0.00  0.00    +0.000 A 
ATOM      3  C   UNL     1       0.923   8.463  20.725  0.00  0.00    +0.000 A 
ATOM      4  C   UNL     1       0.096   9.573  20.534  0.00  0.00    +0.000 A 
ATOM      5  C   UNL     1       0.126  10.281  19.326  0.00  0.00    +0.000 A 
ATOM      6  C   UNL     1       1.030   9.896  18.333  0.00  0.00    +0.000 A 
ATOM      7  C   UNL     1       1.853   8.796  18.538  0.00  0.00    +0.000 A 
BRANCH   5   8
ATOM      8  C   UNL     1      -0.733  11.493  19.105  0.00  0.00    +0.000 C 
BRANCH   8   9
ATOM      9  O   UNL     1      -2.076  11.034  19.004  0.00  0.00    +0.000 OA
BRANCH   9  10
ATOM     10  C   UNL     1      -2.505  10.731  17.743  0.00  0.00    +0.000 A 
ATOM     11  C   UNL     1      -3.631  11.449  17.328  0.00  0.00    +0.000 A 
ATOM     12  C   UNL     1      -4.163  11.254  16.055  0.00  0.00    +0.000 A 
ATOM     13  C   UNL     1      -3.562  10.352  15.167  0.00  0.00    +0.000 A 
ATOM     14  C   UNL     1      -2.435   9.633  15.598  0.00  0.00    +0.000 A 
ATOM     15  C   UNL     1      -1.900   9.830  16.876  0.00  0.00    +0.000 A 
BRANCH  13  16
ATOM     16  C   UNL     1      -4.168  10.120  13.800  0.00  0.00    +0.000 C 
BRANCH  16  17
ATOM     17  O   UNL     1      -3.174   9.816  12.835  0.00  0.00    +0.000 OA
ATOM     18  H   UNL     1      -3.011  10.633  12.333  0.00  0.00    +0.000 HD
ENDBRANCH  16  17
ENDBRANCH  13  16
ENDBRANCH   9  10
ENDBRANCH   8   9
ENDBRANCH   5   8
ENDBRANCH   1   2
BRANCH   1  19
ATOM     19  C   UNL     1       2.521   5.941  18.959  0.00  0.00    +0.000 C 
BRANCH  19  24
ATOM     20  C   UNL     1       2.867   3.734  20.195  0.00  0.00    +0.000 A 
ATOM     21  O   UNL     1       3.825   2.785  20.301  0.00  0.00    +0.000 OA
ATOM     22  N   UNL     1       4.903   3.128  19.525  0.00  0.00    +0.000 NA
ATOM     23  C   UNL     1       4.590   4.261  18.871  0.00  0.00    +0.000 A 
ATOM     24  C   UNL     1       3.297   4.721  19.322  0.00  0.00    +0.000 A 
BRANCH  23  25
ATOM     25  C   UNL     1       5.536   4.806  17.871  0.00  0.00    +0.000 A 
ATOM     26  C   UNL     1       5.332   4.593  16.482  0.00  0.00    +0.000 A 
ATOM     27 CL   UNL     1       3.954   3.770  15.818  0.00  0.00    +0.000 Cl
ATOM     28  C   UNL     1       6.251   5.058  15.521  0.00  0.00    +0.000 A 
ATOM     29  C   UNL     1       7.356   5.804  15.902  0.00  0.00    +0.000 A 
ATOM     30  C   UNL     1       7.571   6.042  17.251  0.00  0.00    +0.000 A 
ATOM     31  C   UNL     1       6.709   5.506  18.224  0.00  0.00    +0.000 A 
ATOM     32 CL   UNL     1       7.304   5.646  19.843  0.00  0.00    +0.000 Cl
ENDBRANCH  23  25
BRANCH  20  34
ATOM     33  C   UNL     1       0.400   3.237  20.110  0.00  0.00    +0.000 C 
ATOM     34  C   UNL     1       1.617   3.524  20.996  0.00  0.00    +0.000 C 
ATOM     35  C   UNL     1       1.798   2.420  22.033  0.00  0.00    +0.000 C 
ENDBRANCH  20  34
ENDBRANCH  19  24
ENDBRANCH   1  19
TORSDOF 10
ENDMDL
MODEL 6
REMARK VINA RESULT:      -8.0      0.820      1.099
REMARK  Name = 
REMARK  12 active torsions:
REMARK  status: ('A' for Active; 'I' for Inactive)
REMARK    1  A    between atoms: C_1  and  C_2
REMARK    2  A    between atoms: C_2  and  C_3
REMARK    3  A    between atoms: C_2  and  C_4
REMARK    4  A    between atoms: C_7  and  C_8
REMARK    5  A    between atoms: C_16  and  C_17
REMARK    6  A    between atoms: C_17  and  O_18
REMARK    7  A    between atoms: O_18  and  C_19
REMARK    8  A    between atoms: C_22  and  C_23
REMARK    9  A    between atoms: C_23  and  O_24
REMARK   10  A    between atoms: O_24  and  C_25
REMARK   11  A    between atoms: C_28  and  C_29
REMARK   12  A    between atoms: C_29  and  O_30
REMARK                            x       y       z     vdW  Elec       q    Type
REMARK                         _______ _______ _______ _____ _____    ______ ____
ROOT
ATOM      1  O   UNL     1       3.709   6.322  18.877  0.00  0.00    +0.000 OA
ENDROOT
BRANCH   1   2
ATOM      2  C   UNL     1       2.757   7.300  18.972  0.00  0.00    +0.000 A 
ATOM      3  C   UNL     1       2.499   8.022  17.810  0.00  0.00    +0.000 A 
ATOM      4  C   UNL     1       1.557   9.054  17.823  0.00  0.00    +0.000 A 
ATOM      5  C   UNL     1       0.869   9.373  18.999  0.00  0.00    +0.000 A 
ATOM      6  C   UNL     1       1.097   8.614  20.149  0.00  0.00    +0.000 A 
ATOM      7  C   UNL     1       2.030   7.585  20.123  0.00  0.00    +0.000 A 
BRANCH   5   8
ATOM      8  C   UNL     1      -0.168  10.460  19.033  0.00  0.00    +0.000 C 
BRANCH   8   9
ATOM      9  O   UNL     1      -0.769  10.498  17.743  0.00  0.00    +0.000 OA
BRANCH   9  10
ATOM     10  C   UNL     1      -2.064  10.928  17.707  0.00  0.00    +0.000 A 
ATOM     11  C   UNL     1      -2.522  11.482  18.906  0.00  0.00    +0.000 A 
ATOM     12  C   UNL     1      -3.820  11.981  19.004  0.00  0.00    +0.000 A 
ATOM     13  C   UNL     1      -4.675  11.952  17.894  0.00  0.00    +0.000 A 
ATOM     14  C   UNL     1      -4.205  11.388  16.697  0.00  0.00    +0.000 A 
ATOM     15  C   UNL     1      -2.901  10.890  16.598  0.00  0.00    +0.000 A 
BRANCH  13  16
ATOM     16  C   UNL     1      -6.094  12.463  18.020  0.00  0.00    +0.000 C 
BRANCH  16  17
ATOM     17  O   UNL     1      -6.165  13.863  17.804  0.00  0.00    +0.000 OA
ATOM     18  H   UNL     1      -6.745  14.224  18.497  0.00  0.00    +0.000 HD
ENDBRANCH  16  17
ENDBRANCH  13  16
ENDBRANCH   9  10
ENDBRANCH   8   9
ENDBRANCH   5   8
ENDBRANCH   1   2
BRANCH   1  19
ATOM     19  C   UNL     1       4.202   6.083  17.554  0.00  0.00    +0.000 C 
BRANCH  19  24
ATOM     20  C   UNL     1       5.179   4.124  16.241  0.00  0.00    +0.000 A 
ATOM     21  O   UNL     1       5.078   2.775  16.232  0.00  0.00    +0.000 OA
ATOM     22  N   UNL     1       4.197   2.371  17.201  0.00  0.00    +0.000 NA
ATOM     23  C   UNL     1       3.798   3.467  17.871  0.00  0.00    +0.000 A 
ATOM     24  C   UNL     1       4.368   4.636  17.243  0.00  0.00    +0.000 A 
BRANCH  23  25
ATOM     25  C   UNL     1       2.920   3.313  19.054  0.00  0.00    +0.000 A 
ATOM     26  C   UNL     1       1.606   3.852  19.063  0.00  0.00    +0.000 A 
ATOM     27 CL   UNL     1       0.877   4.653  17.705  0.00  0.00    +0.000 Cl
ATOM     28  C   UNL     1       0.778   3.761  20.198  0.00  0.00    +0.000 A 
ATOM     29  C   UNL     1       1.199   3.076  21.327  0.00  0.00    +0.000 A 
ATOM     30  C   UNL     1       2.471   2.523  21.341  0.00  0.00    +0.000 A 
ATOM     31  C   UNL     1       3.339   2.686  20.246  0.00  0.00    +0.000 A 
ATOM     32 CL   UNL     1       4.970   2.202  20.566  0.00  0.00    +0.000 Cl
ENDBRANCH  23  25
BRANCH  20  34
ATOM     33  C   UNL     1       7.512   4.949  15.773  0.00  0.00    +0.000 C 
ATOM     34  C   UNL     1       6.096   4.741  15.227  0.00  0.00    +0.000 C 
ATOM     35  C   UNL     1       6.131   3.924  13.939  0.00  0.00    +0.000 C 
ENDBRANCH  20  34
ENDBRANCH  19  24
ENDBRANCH   1  19
TORSDOF 10
ENDMDL
MODEL 7
REMARK VINA RESULT:      -8.0      1.630      4.299
REMARK  Name = 
REMARK  12 active torsions:
REMARK  status: ('A' for Active; 'I' for Inactive)
REMARK    1  A    between atoms: C_1  and  C_2
REMARK    2  A    between atoms: C_2  and  C_3
REMARK    3  A    between atoms: C_2  and  C_4
REMARK    4  A    between atoms: C_7  and  C_8
REMARK    5  A    between atoms: C_16  and  C_17
REMARK    6  A    between atoms: C_17  and  O_18
REMARK    7  A    between atoms: O_18  and  C_19
REMARK    8  A    between atoms: C_22  and  C_23
REMARK    9  A    between atoms: C_23  and  O_24
REMARK   10  A    between atoms: O_24  and  C_25
REMARK   11  A    between atoms: C_28  and  C_29
REMARK   12  A    between atoms: C_29  and  O_30
REMARK                            x       y       z     vdW  Elec       q    Type
REMARK                         _______ _______ _______ _____ _____    ______ ____
ROOT
ATOM      1  O   UNL     1       3.061   6.900  18.797  0.00  0.00    +0.000 OA
ENDROOT
BRANCH   1   2
ATOM      2  C   UNL     1       2.203   7.889  19.198  0.00  0.00    +0.000 A 
ATOM      3  C   UNL     1       1.858   8.832  18.234  0.00  0.00    +0.000 A 
ATOM      4  C   UNL     1       1.004   9.888  18.562  0.00  0.00    +0.000 A 
ATOM      5  C   UNL     1       0.492  10.009  19.859  0.00  0.00    +0.000 A 
ATOM      6  C   UNL     1       0.803   9.034  20.809  0.00  0.00    +0.000 A 
ATOM      7  C   UNL     1       1.646   7.984  20.469  0.00  0.00    +0.000 A 
BRANCH   5   8
ATOM      8  C   UNL     1      -0.449  11.120  20.232  0.00  0.00    +0.000 C 
BRANCH   8   9
ATOM      9  O   UNL     1      -0.888  11.714  19.016  0.00  0.00    +0.000 OA
BRANCH   9  10
ATOM     10  C   UNL     1      -2.205  11.525  18.707  0.00  0.00    +0.000 A 
ATOM     11  C   UNL     1      -3.094  12.263  19.494  0.00  0.00    +0.000 A 
ATOM     12  C   UNL     1      -4.468  12.182  19.274  0.00  0.00    +0.000 A 
ATOM     13  C   UNL     1      -4.973  11.376  18.246  0.00  0.00    +0.000 A 
ATOM     14  C   UNL     1      -4.070  10.635  17.466  0.00  0.00    +0.000 A 
ATOM     15  C   UNL     1      -2.691  10.719  17.685  0.00  0.00    +0.000 A 
BRANCH  13  16
ATOM     16  C   UNL     1      -6.468  11.265  18.037  0.00  0.00    +0.000 C 
BRANCH  16  17
ATOM     17  O   UNL     1      -6.934  12.217  17.094  0.00  0.00    +0.000 OA
ATOM     18  H   UNL     1      -6.306  12.205  16.351  0.00  0.00    +0.000 HD
ENDBRANCH  16  17
ENDBRANCH  13  16
ENDBRANCH   9  10
ENDBRANCH   8   9
ENDBRANCH   5   8
ENDBRANCH   1   2
BRANCH   1  19
ATOM     19  C   UNL     1       2.450   5.626  18.566  0.00  0.00    +0.000 C 
BRANCH  19  24
ATOM     20  C   UNL     1       2.831   3.631  20.113  0.00  0.00    +0.000 A 
ATOM     21  O   UNL     1       3.806   2.728  20.361  0.00  0.00    +0.000 OA
ATOM     22  N   UNL     1       4.882   2.975  19.548  0.00  0.00    +0.000 NA
ATOM     23  C   UNL     1       4.552   3.994  18.734  0.00  0.00    +0.000 A 
ATOM     24  C   UNL     1       3.247   4.489  19.106  0.00  0.00    +0.000 A 
BRANCH  23  25
ATOM     25  C   UNL     1       5.495   4.405  17.669  0.00  0.00    +0.000 A 
ATOM     26  C   UNL     1       6.656   5.163  17.975  0.00  0.00    +0.000 A 
ATOM     27 CL   UNL     1       7.129   5.607  19.586  0.00  0.00    +0.000 Cl
ATOM     28  C   UNL     1       7.535   5.607  16.968  0.00  0.00    +0.000 A 
ATOM     29  C   UNL     1       7.327   5.256  15.643  0.00  0.00    +0.000 A 
ATOM     30  C   UNL     1       6.210   4.501  15.316  0.00  0.00    +0.000 A 
ATOM     31  C   UNL     1       5.279   4.129  16.302  0.00  0.00    +0.000 A 
ATOM     32 CL   UNL     1       3.811   3.467  15.667  0.00  0.00    +0.000 Cl
ENDBRANCH  23  25
BRANCH  20  34
ATOM     33  C   UNL     1       0.356   3.166  20.077  0.00  0.00    +0.000 C 
ATOM     34  C   UNL     1       1.579   3.516  20.931  0.00  0.00    +0.000 C 
ATOM     35  C   UNL     1       1.746   2.510  22.066  0.00  0.00    +0.000 C 
ENDBRANCH  20  34
ENDBRANCH  19  24
ENDBRANCH   1  19
TORSDOF 10
ENDMDL
MODEL 8
REMARK VINA RESULT:      -8.0      3.792      9.997
REMARK  Name = 
REMARK  12 active torsions:
REMARK  status: ('A' for Active; 'I' for Inactive)
REMARK    1  A    between atoms: C_1  and  C_2
REMARK    2  A    between atoms: C_2  and  C_3
REMARK    3  A    between atoms: C_2  and  C_4
REMARK    4  A    between atoms: C_7  and  C_8
REMARK    5  A    between atoms: C_16  and  C_17
REMARK    6  A    between atoms: C_17  and  O_18
REMARK    7  A    between atoms: O_18  and  C_19
REMARK    8  A    between atoms: C_22  and  C_23
REMARK    9  A    between atoms: C_23  and  O_24
REMARK   10  A    between atoms: O_24  and  C_25
REMARK   11  A    between atoms: C_28  and  C_29
REMARK   12  A    between atoms: C_29  and  O_30
REMARK                            x       y       z     vdW  Elec       q    Type
REMARK                         _______ _______ _______ _____ _____    ______ ____
ROOT
ATOM      1  O   UNL     1       1.059   9.800  20.129  0.00  0.00    +0.000 OA
ENDROOT
BRANCH   1   2
ATOM      2  C   UNL     1       1.515   8.528  19.907  0.00  0.00    +0.000 A 
ATOM      3  C   UNL     1       2.098   8.292  18.666  0.00  0.00    +0.000 A 
ATOM      4  C   UNL     1       2.571   7.017  18.347  0.00  0.00    +0.000 A 
ATOM      5  C   UNL     1       2.462   5.969  19.268  0.00  0.00    +0.000 A 
ATOM      6  C   UNL     1       1.921   6.223  20.529  0.00  0.00    +0.000 A 
ATOM      7  C   UNL     1       1.460   7.496  20.839  0.00  0.00    +0.000 A 
BRANCH   5   8
ATOM      8  C   UNL     1       2.988   4.595  18.960  0.00  0.00    +0.000 C 
BRANCH   8   9
ATOM      9  O   UNL     1       4.401   4.649  19.113  0.00  0.00    +0.000 OA
BRANCH   9  10
ATOM     10  C   UNL     1       5.118   4.749  17.955  0.00  0.00    +0.000 A 
ATOM     11  C   UNL     1       4.591   4.020  16.885  0.00  0.00    +0.000 A 
ATOM     12  C   UNL     1       5.211   4.048  15.637  0.00  0.00    +0.000 A 
ATOM     13  C   UNL     1       6.358   4.826  15.434  0.00  0.00    +0.000 A 
ATOM     14  C   UNL     1       6.881   5.550  16.518  0.00  0.00    +0.000 A 
ATOM     15  C   UNL     1       6.257   5.523  17.770  0.00  0.00    +0.000 A 
BRANCH  13  16
ATOM     16  C   UNL     1       7.045   4.822  14.085  0.00  0.00    +0.000 C 
BRANCH  16  17
ATOM     17  O   UNL     1       8.179   5.675  14.077  0.00  0.00    +0.000 OA
ATOM     18  H   UNL     1       8.499   5.706  13.159  0.00  0.00    +0.000 HD
ENDBRANCH  16  17
ENDBRANCH  13  16
ENDBRANCH   9  10
ENDBRANCH   8   9
ENDBRANCH   5   8
ENDBRANCH   1   2
BRANCH   1  19
ATOM     19  C   UNL     1      -0.357   9.965  20.006  0.00  0.00    +0.000 C 
BRANCH  19  24
ATOM     20  C   UNL     1      -1.714  11.024  18.120  0.00  0.00    +0.000 A 
ATOM     21  O   UNL     1      -1.788  12.217  17.488  0.00  0.00    +0.000 OA
ATOM     22  N   UNL     1      -0.867  13.081  18.022  0.00  0.00    +0.000 NA
ATOM     23  C   UNL     1      -0.261  12.449  19.043  0.00  0.00    +0.000 A 
ATOM     24  C   UNL     1      -0.741  11.089  19.105  0.00  0.00    +0.000 A 
BRANCH  23  25
ATOM     25  C   UNL     1       0.713  13.191  19.878  0.00  0.00    +0.000 A 
ATOM     26  C   UNL     1       2.094  13.206  19.548  0.00  0.00    +0.000 A 
ATOM     27 CL   UNL     1       2.763  12.452  18.133  0.00  0.00    +0.000 Cl
ATOM     28  C   UNL     1       3.040  13.861  20.360  0.00  0.00    +0.000 A 
ATOM     29  C   UNL     1       2.638  14.575  21.479  0.00  0.00    +0.000 A 
ATOM     30  C   UNL     1       1.293  14.592  21.815  0.00  0.00    +0.000 A 
ATOM     31  C   UNL     1       0.352  13.867  21.062  0.00  0.00    +0.000 A 
ATOM     32 CL   UNL     1      -1.208  13.758  21.804  0.00  0.00    +0.000 Cl
ENDBRANCH  23  25
BRANCH  20  34
ATOM     33  C   UNL     1      -4.114  10.284  17.940  0.00  0.00    +0.000 C 
ATOM     34  C   UNL     1      -2.647   9.950  17.648  0.00  0.00    +0.000 C 
ATOM     35  C   UNL     1      -2.449   9.651  16.165  0.00  0.00    +0.000 C 
ENDBRANCH  20  34
ENDBRANCH  19  24
ENDBRANCH   1  19
TORSDOF 10
ENDMDL
MODEL 9
REMARK VINA RESULT:      -8.0      3.832      9.981
REMARK  Name = 
REMARK  12 active torsions:
REMARK  status: ('A' for Active; 'I' for Inactive)
REMARK    1  A    between atoms: C_1  and  C_2
REMARK    2  A    between atoms: C_2  and  C_3
REMARK    3  A    between atoms: C_2  and  C_4
REMARK    4  A    between atoms: C_7  and  C_8
REMARK    5  A    between atoms: C_16  and  C_17
REMARK    6  A    between atoms: C_17  and  O_18
REMARK    7  A    between atoms: O_18  and  C_19
REMARK    8  A    between atoms: C_22  and  C_23
REMARK    9  A    between atoms: C_23  and  O_24
REMARK   10  A    between atoms: O_24  and  C_25
REMARK   11  A    between atoms: C_28  and  C_29
REMARK   12  A    between atoms: C_29  and  O_30
REMARK                            x       y       z     vdW  Elec       q    Type
REMARK                         _______ _______ _______ _____ _____    ______ ____
ROOT
ATOM      1  O   UNL     1       1.022   9.823  20.283  0.00  0.00    +0.000 OA
ENDROOT
BRANCH   1   2
ATOM      2  C   UNL     1       1.486   8.568  19.992  0.00  0.00    +0.000 A 
ATOM      3  C   UNL     1       2.031   8.393  18.723  0.00  0.00    +0.000 A 
ATOM      4  C   UNL     1       2.509   7.140  18.334  0.00  0.00    +0.000 A 
ATOM      5  C   UNL     1       2.444   6.051  19.212  0.00  0.00    +0.000 A 
ATOM      6  C   UNL     1       1.940   6.244  20.500  0.00  0.00    +0.000 A 
ATOM      7  C   UNL     1       1.474   7.496  20.879  0.00  0.00    +0.000 A 
BRANCH   5   8
ATOM      8  C   UNL     1       2.975   4.699  18.828  0.00  0.00    +0.000 C 
BRANCH   8   9
ATOM      9  O   UNL     1       4.388   4.750  18.991  0.00  0.00    +0.000 OA
BRANCH   9  10
ATOM     10  C   UNL     1       5.113   4.840  17.837  0.00  0.00    +0.000 A 
ATOM     11  C   UNL     1       4.647   4.030  16.797  0.00  0.00    +0.000 A 
ATOM     12  C   UNL     1       5.280   4.040  15.556  0.00  0.00    +0.000 A 
ATOM     13  C   UNL     1       6.380   4.877  15.329  0.00  0.00    +0.000 A 
ATOM     14  C   UNL     1       6.843   5.681  16.384  0.00  0.00    +0.000 A 
ATOM     15  C   UNL     1       6.205   5.674  17.629  0.00  0.00    +0.000 A 
BRANCH  13  16
ATOM     16  C   UNL     1       7.085   4.853  13.990  0.00  0.00    +0.000 C 
BRANCH  16  17
ATOM     17  O   UNL     1       8.230   5.691  13.990  0.00  0.00    +0.000 OA
ATOM     18  H   UNL     1       8.229   6.167  13.141  0.00  0.00    +0.000 HD
ENDBRANCH  16  17
ENDBRANCH  13  16
ENDBRANCH   9  10
ENDBRANCH   8   9
ENDBRANCH   5   8
ENDBRANCH   1   2
BRANCH   1  19
ATOM     19  C   UNL     1      -0.387  10.003  20.105  0.00  0.00    +0.000 C 
BRANCH  19  24
ATOM     20  C   UNL     1      -1.677  11.052  18.169  0.00  0.00    +0.000 A 
ATOM     21  O   UNL     1      -1.708  12.232  17.508  0.00  0.00    +0.000 OA
ATOM     22  N   UNL     1      -0.775  13.084  18.040  0.00  0.00    +0.000 NA
ATOM     23  C   UNL     1      -0.205  12.461  19.088  0.00  0.00    +0.000 A 
ATOM     24  C   UNL     1      -0.722  11.115  19.172  0.00  0.00    +0.000 A 
BRANCH  23  25
ATOM     25  C   UNL     1       0.772  13.195  19.925  0.00  0.00    +0.000 A 
ATOM     26  C   UNL     1       0.351  13.921  21.071  0.00  0.00    +0.000 A 
ATOM     27 CL   UNL     1      -1.287  13.960  21.648  0.00  0.00    +0.000 Cl
ATOM     28  C   UNL     1       1.259  14.668  21.846  0.00  0.00    +0.000 A 
ATOM     29  C   UNL     1       2.614  14.661  21.551  0.00  0.00    +0.000 A 
ATOM     30  C   UNL     1       3.056  13.947  20.447  0.00  0.00    +0.000 A 
ATOM     31  C   UNL     1       2.146  13.270  19.614  0.00  0.00    +0.000 A 
ATOM     32 CL   UNL     1       2.838  12.703  18.133  0.00  0.00    +0.000 Cl
ENDBRANCH  23  25
BRANCH  20  34
ATOM     33  C   UNL     1      -4.093  10.379  17.943  0.00  0.00    +0.000 C 
ATOM     34  C   UNL     1      -2.630   9.992  17.703  0.00  0.00    +0.000 C 
ATOM     35  C   UNL     1      -2.401   9.643  16.236  0.00  0.00    +0.000 C 
ENDBRANCH  20  34
ENDBRANCH  19  24
ENDBRANCH   1  19
TORSDOF 10
ENDMDL
