MODEL 1
REMARK VINA RESULT:      -8.1      0.000      0.000
REMARK  Name = 
REMARK  12 active torsions:
REMARK  status: ('A' for Active; 'I' for Inactive)
REMARK    1  A    between atoms: C_1  and  C_2
REMARK    2  A    between atoms: C_4  and  C_5
REMARK    3  A    between atoms: C_5  and  N_6
REMARK    4  A    between atoms: N_6  and  S_7
REMARK    5  A    between atoms: S_7  and  C_10
REMARK    6  A    between atoms: C_13  and  C_14
REMARK    7  A    between atoms: C_15  and  C_16
REMARK    8  A    between atoms: C_16  and  C_17
REMARK    9  A    between atoms: C_17  and  C_18
REMARK   10  A    between atoms: C_25  and  O_26
REMARK   11  A    between atoms: C_27  and  O_28
REMARK   12  A    between atoms: C_29  and  O_30
REMARK                            x       y       z     vdW  Elec       q    Type
REMARK                         _______ _______ _______ _____ _____    ______ ____
ROOT
ATOM      1  S   UNL     1       5.708   5.789  15.866  0.00  0.00    +0.000 S 
ATOM      2  O   UNL     1       6.406   4.713  15.193  0.00  0.00    +0.000 OA
ATOM      3  O   UNL     1       5.254   6.974  15.180  0.00  0.00    +0.000 OA
ENDROOT
BRANCH   1   4
ATOM      4  C   UNL     1       6.845   6.362  17.098  0.00  0.00    +0.000 A 
ATOM      5  C   UNL     1       7.573   5.737  18.092  0.00  0.00    +0.000 A 
ATOM      6  C   UNL     1       8.343   6.665  18.851  0.00  0.00    +0.000 A 
ATOM      7  C   UNL     1       8.158   7.956  18.409  0.00  0.00    +0.000 A 
ATOM      8  S   UNL     1       7.060   8.055  17.117  0.00  0.00    +0.000 S 
BRANCH   7   9
ATOM      9  C   UNL     1       8.780   9.114  18.931  0.00  0.00    +0.000 C 
ATOM     10  C   UNL     1       9.297  10.196  19.443  0.00  0.00    +0.000 C 
BRANCH  10  11
ATOM     11  C   UNL     1       9.901  11.457  20.041  0.00  0.00    +0.000 C 
BRANCH  11  12
ATOM     12  C   UNL     1      11.321  11.653  19.508  0.00  0.00    +0.000 C 
BRANCH  12  13
ATOM     13  C   UNL     1      11.468  12.975  18.802  0.00  0.00    +0.000 A 
ATOM     14  C   UNL     1      11.384  13.048  17.405  0.00  0.00    +0.000 A 
ATOM     15  C   UNL     1      11.562  14.265  16.750  0.00  0.00    +0.000 A 
ATOM     16  C   UNL     1      11.826  15.422  17.482  0.00  0.00    +0.000 A 
ATOM     17  C   UNL     1      11.906  15.361  18.875  0.00  0.00    +0.000 A 
ATOM     18  C   UNL     1      11.730  14.146  19.530  0.00  0.00    +0.000 A 
ENDBRANCH  12  13
ENDBRANCH  11  12
ENDBRANCH  10  11
ENDBRANCH   7   9
ENDBRANCH   1   4
BRANCH   1  19
ATOM     19  N   UNL     1       4.407   5.151  16.735  0.00  0.00    +0.000 NA
ATOM     20  H   UNL     1       3.560   5.152  16.161  0.00  0.00    +0.000 HD
BRANCH  19  21
ATOM     21  C   UNL     1       4.180   5.762  18.064  0.00  0.00    +0.000 C 
BRANCH  21  25
ATOM     22  C   UNL     1       0.559   3.594  20.293  0.00  0.00    +0.000 C 
ATOM     23  C   UNL     1       2.081   3.599  20.237  0.00  0.00    +0.000 C 
ATOM     24  O   UNL     1       2.457   4.480  19.163  0.00  0.00    +0.000 OA
ATOM     25  C   UNL     1       3.882   4.679  19.105  0.00  0.00    +0.000 C 
ATOM     26  C   UNL     1       4.610   3.359  18.803  0.00  0.00    +0.000 C 
ATOM     27  C   UNL     1       4.212   2.316  19.866  0.00  0.00    +0.000 C 
ATOM     28  C   UNL     1       2.682   2.205  19.986  0.00  0.00    +0.000 C 
BRANCH  26  29
ATOM     29  O   UNL     1       6.023   3.574  18.769  0.00  0.00    +0.000 OA
ATOM     30  H   UNL     1       6.477   2.716  18.725  0.00  0.00    +0.000 HD
ENDBRANCH  26  29
BRANCH  27  31
ATOM     31  O   UNL     1       4.775   1.042  19.543  0.00  0.00    +0.000 OA
ATOM     32  H   UNL     1       4.430   0.414  20.210  0.00  0.00    +0.000 HD
ENDBRANCH  27  31
BRANCH  28  33
ATOM     33  O   UNL     1       2.169   1.628  18.773  0.00  0.00    +0.000 OA
ATOM     34  H   UNL     1       1.287   1.260  18.972  0.00  0.00    +0.000 HD
ENDBRANCH  28  33
ENDBRANCH  21  25
ENDBRANCH  19  21
ENDBRANCH   1  19
TORSDOF 11
ENDMDL
MODEL 2
REMARK VINA RESULT:      -8.0      7.565     11.143
REMARK  Name = 
REMARK  12 active torsions:
REMARK  status: ('A' for Active; 'I' for Inactive)
REMARK    1  A    between atoms: C_1  and  C_2
REMARK    2  A    between atoms: C_4  and  C_5
REMARK    3  A    between atoms: C_5  and  N_6
REMARK    4  A    between atoms: N_6  and  S_7
REMARK    5  A    between atoms: S_7  and  C_10
REMARK    6  A    between atoms: C_13  and  C_14
REMARK    7  A    between atoms: C_15  and  C_16
REMARK    8  A    between atoms: C_16  and  C_17
REMARK    9  A    between atoms: C_17  and  C_18
REMARK   10  A    between atoms: C_25  and  O_26
REMARK   11  A    between atoms: C_27  and  O_28
REMARK   12  A    between atoms: C_29  and  O_30
REMARK                            x       y       z     vdW  Elec       q    Type
REMARK                         _______ _______ _______ _____ _____    ______ ____
ROOT
ATOM      1  S   UNL     1       0.335  11.135  21.088  0.00  0.00    +0.000 S 
ATOM      2  O   UNL     1       0.746  12.514  20.923  0.00  0.00    +0.000 OA
ATOM      3  O   UNL     1       0.630  10.369  22.274  0.00  0.00    +0.000 OA
ENDROOT
BRANCH   1   4
ATOM      4  C   UNL     1       1.119  10.268  19.758  0.00  0.00    +0.000 A 
ATOM      5  C   UNL     1       1.477  10.616  18.470  0.00  0.00    +0.000 A 
ATOM      6  C   UNL     1       2.078   9.527  17.772  0.00  0.00    +0.000 A 
ATOM      7  C   UNL     1       2.138   8.396  18.556  0.00  0.00    +0.000 A 
ATOM      8  S   UNL     1       1.466   8.631  20.098  0.00  0.00    +0.000 S 
BRANCH   7   9
ATOM      9  C   UNL     1       2.684   7.147  18.178  0.00  0.00    +0.000 C 
ATOM     10  C   UNL     1       3.242   6.029  17.809  0.00  0.00    +0.000 C 
BRANCH  10  11
ATOM     11  C   UNL     1       3.893   4.723  17.379  0.00  0.00    +0.000 C 
BRANCH  11  12
ATOM     12  C   UNL     1       2.877   3.584  17.473  0.00  0.00    +0.000 C 
BRANCH  12  13
ATOM     13  C   UNL     1       2.470   3.325  18.900  0.00  0.00    +0.000 A 
ATOM     14  C   UNL     1       3.413   2.879  19.837  0.00  0.00    +0.000 A 
ATOM     15  C   UNL     1       3.027   2.599  21.146  0.00  0.00    +0.000 A 
ATOM     16  C   UNL     1       1.698   2.759  21.534  0.00  0.00    +0.000 A 
ATOM     17  C   UNL     1       0.751   3.208  20.610  0.00  0.00    +0.000 A 
ATOM     18  C   UNL     1       1.136   3.487  19.301  0.00  0.00    +0.000 A 
ENDBRANCH  12  13
ENDBRANCH  11  12
ENDBRANCH  10  11
ENDBRANCH   7   9
ENDBRANCH   1   4
BRANCH   1  19
ATOM     19  N   UNL     1      -1.321  11.007  20.777  0.00  0.00    +0.000 NA
ATOM     20  H   UNL     1      -1.557  10.056  20.483  0.00  0.00    +0.000 HD
BRANCH  19  21
ATOM     21  C   UNL     1      -1.866  12.027  19.851  0.00  0.00    +0.000 C 
BRANCH  21  25
ATOM     22  C   UNL     1      -6.567  11.715  19.088  0.00  0.00    +0.000 C 
ATOM     23  C   UNL     1      -5.242  11.219  18.525  0.00  0.00    +0.000 C 
ATOM     24  O   UNL     1      -4.200  11.892  19.254  0.00  0.00    +0.000 OA
ATOM     25  C   UNL     1      -2.894  11.394  18.908  0.00  0.00    +0.000 C 
ATOM     26  C   UNL     1      -2.577  11.665  17.428  0.00  0.00    +0.000 C 
ATOM     27  C   UNL     1      -3.685  11.041  16.559  0.00  0.00    +0.000 C 
ATOM     28  C   UNL     1      -5.078  11.502  17.022  0.00  0.00    +0.000 C 
BRANCH  26  29
ATOM     29  O   UNL     1      -1.285  11.147  17.100  0.00  0.00    +0.000 OA
ATOM     30  H   UNL     1      -1.358  10.195  16.917  0.00  0.00    +0.000 HD
ENDBRANCH  26  29
BRANCH  27  31
ATOM     31  O   UNL     1      -3.486  11.380  15.184  0.00  0.00    +0.000 OA
ATOM     32  H   UNL     1      -3.594  10.550  14.678  0.00  0.00    +0.000 HD
ENDBRANCH  27  31
BRANCH  28  33
ATOM     33  O   UNL     1      -5.211  12.906  16.741  0.00  0.00    +0.000 OA
ATOM     34  H   UNL     1      -6.124  13.166  16.967  0.00  0.00    +0.000 HD
ENDBRANCH  28  33
ENDBRANCH  21  25
ENDBRANCH  19  21
ENDBRANCH   1  19
TORSDOF 11
ENDMDL
MODEL 3
REMARK VINA RESULT:      -7.9      7.654     11.533
REMARK  Name = 
REMARK  12 active torsions:
REMARK  status: ('A' for Active; 'I' for Inactive)
REMARK    1  A    between atoms: C_1  and  C_2
REMARK    2  A    between atoms: C_4  and  C_5
REMARK    3  A    between atoms: C_5  and  N_6
REMARK    4  A    between atoms: N_6  and  S_7
REMARK    5  A    between atoms: S_7  and  C_10
REMARK    6  A    between atoms: C_13  and  C_14
REMARK    7  A    between atoms: C_15  and  C_16
REMARK    8  A    between atoms: C_16  and  C_17
REMARK    9  A    between atoms: C_17  and  C_18
REMARK   10  A    between atoms: C_25  and  O_26
REMARK   11  A    between atoms: C_27  and  O_28
REMARK   12  A    between atoms: C_29  and  O_30
REMARK                            x       y       z     vdW  Elec       q    Type
REMARK                         _______ _______ _______ _____ _____    ______ ____
ROOT
ATOM      1  S   UNL     1       0.391  10.515  21.372  0.00  0.00    +0.000 S 
ATOM      2  O   UNL     1       1.193  11.704  21.571  0.00  0.00    +0.000 OA
ATOM      3  O   UNL     1       0.297   9.463  22.355  0.00  0.00    +0.000 OA
ENDROOT
BRANCH   1   4
ATOM      4  C   UNL     1       1.068   9.750  19.925  0.00  0.00    +0.000 A 
ATOM      5  C   UNL     1       1.172  10.133  18.601  0.00  0.00    +0.000 A 
ATOM      6  C   UNL     1       1.797   9.129  17.805  0.00  0.00    +0.000 A 
ATOM      7  C   UNL     1       2.129   8.023  18.556  0.00  0.00    +0.000 A 
ATOM      8  S   UNL     1       1.680   8.178  20.186  0.00  0.00    +0.000 S 
BRANCH   7   9
ATOM      9  C   UNL     1       2.773   6.856  18.082  0.00  0.00    +0.000 C 
ATOM     10  C   UNL     1       3.381   5.765  17.709  0.00  0.00    +0.000 C 
BRANCH  10  11
ATOM     11  C   UNL     1       4.090   4.493  17.272  0.00  0.00    +0.000 C 
BRANCH  11  12
ATOM     12  C   UNL     1       3.125   3.309  17.357  0.00  0.00    +0.000 C 
BRANCH  12  13
ATOM     13  C   UNL     1       2.566   3.152  18.746  0.00  0.00    +0.000 A 
ATOM     14  C   UNL     1       1.216   3.424  19.003  0.00  0.00    +0.000 A 
ATOM     15  C   UNL     1       0.709   3.319  20.297  0.00  0.00    +0.000 A 
ATOM     16  C   UNL     1       1.545   2.944  21.348  0.00  0.00    +0.000 A 
ATOM     17  C   UNL     1       2.891   2.666  21.102  0.00  0.00    +0.000 A 
ATOM     18  C   UNL     1       3.399   2.771  19.810  0.00  0.00    +0.000 A 
ENDBRANCH  12  13
ENDBRANCH  11  12
ENDBRANCH  10  11
ENDBRANCH   7   9
ENDBRANCH   1   4
BRANCH   1  19
ATOM     19  N   UNL     1      -1.177  10.968  20.934  0.00  0.00    +0.000 NA
ATOM     20  H   UNL     1      -1.556  10.319  20.239  0.00  0.00    +0.000 HD
BRANCH  19  21
ATOM     21  C   UNL     1      -1.329  12.381  20.516  0.00  0.00    +0.000 C 
BRANCH  21  25
ATOM     22  C   UNL     1      -5.715  14.157  19.894  0.00  0.00    +0.000 C 
ATOM     23  C   UNL     1      -4.667  13.947  20.978  0.00  0.00    +0.000 C 
ATOM     24  O   UNL     1      -3.601  13.181  20.387  0.00  0.00    +0.000 OA
ATOM     25  C   UNL     1      -2.480  13.042  21.280  0.00  0.00    +0.000 C 
ATOM     26  C   UNL     1      -2.875  12.257  22.541  0.00  0.00    +0.000 C 
ATOM     27  C   UNL     1      -4.068  12.962  23.214  0.00  0.00    +0.000 C 
ATOM     28  C   UNL     1      -5.210  13.199  22.208  0.00  0.00    +0.000 C 
BRANCH  26  29
ATOM     29  O   UNL     1      -1.755  12.146  23.422  0.00  0.00    +0.000 OA
ATOM     30  H   UNL     1      -0.977  12.551  23.004  0.00  0.00    +0.000 HD
ENDBRANCH  26  29
BRANCH  27  31
ATOM     31  O   UNL     1      -4.540  12.189  24.320  0.00  0.00    +0.000 OA
ATOM     32  H   UNL     1      -3.745  11.830  24.763  0.00  0.00    +0.000 HD
ENDBRANCH  27  31
BRANCH  28  33
ATOM     33  O   UNL     1      -5.765  11.925  21.839  0.00  0.00    +0.000 OA
ATOM     34  H   UNL     1      -5.073  11.251  21.979  0.00  0.00    +0.000 HD
ENDBRANCH  28  33
ENDBRANCH  21  25
ENDBRANCH  19  21
ENDBRANCH   1  19
TORSDOF 11
ENDMDL
MODEL 4
REMARK VINA RESULT:      -7.9      8.291     11.309
REMARK  Name = 
REMARK  12 active torsions:
REMARK  status: ('A' for Active; 'I' for Inactive)
REMARK    1  A    between atoms: C_1  and  C_2
REMARK    2  A    between atoms: C_4  and  C_5
REMARK    3  A    between atoms: C_5  and  N_6
REMARK    4  A    between atoms: N_6  and  S_7
REMARK    5  A    between atoms: S_7  and  C_10
REMARK    6  A    between atoms: C_13  and  C_14
REMARK    7  A    between atoms: C_15  and  C_16
REMARK    8  A    between atoms: C_16  and  C_17
REMARK    9  A    between atoms: C_17  and  C_18
REMARK   10  A    between atoms: C_25  and  O_26
REMARK   11  A    between atoms: C_27  and  O_28
REMARK   12  A    between atoms: C_29  and  O_30
REMARK                            x       y       z     vdW  Elec       q    Type
REMARK                         _______ _______ _______ _____ _____    ______ ____
ROOT
ATOM      1  S   UNL     1      -0.960  12.178  22.156  0.00  0.00    +0.000 S 
ATOM      2  O   UNL     1      -0.102  12.983  23.002  0.00  0.00    +0.000 OA
ATOM      3  O   UNL     1      -2.317  11.845  22.512  0.00  0.00    +0.000 OA
ENDROOT
BRANCH   1   4
ATOM      4  C   UNL     1      -0.117  10.627  22.006  0.00  0.00    +0.000 A 
ATOM      5  C   UNL     1       0.204   9.624  22.899  0.00  0.00    +0.000 A 
ATOM      6  C   UNL     1       0.924   8.564  22.273  0.00  0.00    +0.000 A 
ATOM      7  C   UNL     1       1.129   8.816  20.934  0.00  0.00    +0.000 A 
ATOM      8  S   UNL     1       0.486  10.308  20.441  0.00  0.00    +0.000 S 
BRANCH   7   9
ATOM      9  C   UNL     1       1.794   7.967  20.018  0.00  0.00    +0.000 C 
ATOM     10  C   UNL     1       2.357   7.195  19.131  0.00  0.00    +0.000 C 
BRANCH  10  11
ATOM     11  C   UNL     1       3.015   6.296  18.097  0.00  0.00    +0.000 C 
BRANCH  11  12
ATOM     12  C   UNL     1       2.198   5.014  17.932  0.00  0.00    +0.000 C 
BRANCH  12  13
ATOM     13  C   UNL     1       2.253   4.162  19.173  0.00  0.00    +0.000 A 
ATOM     14  C   UNL     1       3.440   3.510  19.534  0.00  0.00    +0.000 A 
ATOM     15  C   UNL     1       3.479   2.689  20.659  0.00  0.00    +0.000 A 
ATOM     16  C   UNL     1       2.334   2.508  21.434  0.00  0.00    +0.000 A 
ATOM     17  C   UNL     1       1.148   3.158  21.086  0.00  0.00    +0.000 A 
ATOM     18  C   UNL     1       1.108   3.978  19.962  0.00  0.00    +0.000 A 
ENDBRANCH  12  13
ENDBRANCH  11  12
ENDBRANCH  10  11
ENDBRANCH   7   9
ENDBRANCH   1   4
BRANCH   1  19
ATOM     19  N   UNL     1      -0.967  12.825  20.596  0.00  0.00    +0.000 NA
ATOM     20  H   UNL     1      -0.352  13.642  20.544  0.00  0.00    +0.000 HD
BRANCH  19  21
ATOM     21  C   UNL     1      -2.310  13.104  20.038  0.00  0.00    +0.000 C 
BRANCH  21  25
ATOM     22  C   UNL     1      -6.239  10.904  18.456  0.00  0.00    +0.000 C 
ATOM     23  C   UNL     1      -4.722  10.832  18.356  0.00  0.00    +0.000 C 
ATOM     24  O   UNL     1      -4.202  11.984  19.044  0.00  0.00    +0.000 OA
ATOM     25  C   UNL     1      -2.766  11.949  19.140  0.00  0.00    +0.000 C 
ATOM     26  C   UNL     1      -2.118  11.998  17.747  0.00  0.00    +0.000 C 
ATOM     27  C   UNL     1      -2.671  10.836  16.900  0.00  0.00    +0.000 C 
ATOM     28  C   UNL     1      -4.211  10.831  16.905  0.00  0.00    +0.000 C 
BRANCH  26  29
ATOM     29  O   UNL     1      -0.695  11.944  17.864  0.00  0.00    +0.000 OA
ATOM     30  H   UNL     1      -0.304  12.689  17.378  0.00  0.00    +0.000 HD
ENDBRANCH  26  29
BRANCH  27  31
ATOM     31  O   UNL     1      -2.184  10.926  15.558  0.00  0.00    +0.000 OA
ATOM     32  H   UNL     1      -2.570  10.168  15.075  0.00  0.00    +0.000 HD
ENDBRANCH  27  31
BRANCH  28  33
ATOM     33  O   UNL     1      -4.674  11.989  16.190  0.00  0.00    +0.000 OA
ATOM     34  H   UNL     1      -4.974  12.642  16.851  0.00  0.00    +0.000 HD
ENDBRANCH  28  33
ENDBRANCH  21  25
ENDBRANCH  19  21
ENDBRANCH   1  19
TORSDOF 11
ENDMDL
MODEL 5
REMARK VINA RESULT:      -7.9      1.734      2.482
REMARK  Name = 
REMARK  12 active torsions:
REMARK  status: ('A' for Active; 'I' for Inactive)
REMARK    1  A    between atoms: C_1  and  C_2
REMARK    2  A    between atoms: C_4  and  C_5
REMARK    3  A    between atoms: C_5  and  N_6
REMARK    4  A    between atoms: N_6  and  S_7
REMARK    5  A    between atoms: S_7  and  C_10
REMARK    6  A    between atoms: C_13  and  C_14
REMARK    7  A    between atoms: C_15  and  C_16
REMARK    8  A    between atoms: C_16  and  C_17
REMARK    9  A    between atoms: C_17  and  C_18
REMARK   10  A    between atoms: C_25  and  O_26
REMARK   11  A    between atoms: C_27  and  O_28
REMARK   12  A    between atoms: C_29  and  O_30
REMARK                            x       y       z     vdW  Elec       q    Type
REMARK                         _______ _______ _______ _____ _____    ______ ____
ROOT
ATOM      1  S   UNL     1       5.705   5.041  15.943  0.00  0.00    +0.000 S 
ATOM      2  O   UNL     1       6.346   3.790  15.593  0.00  0.00    +0.000 OA
ATOM      3  O   UNL     1       5.445   6.081  14.978  0.00  0.00    +0.000 OA
ENDROOT
BRANCH   1   4
ATOM      4  C   UNL     1       6.775   5.773  17.150  0.00  0.00    +0.000 A 
ATOM      5  C   UNL     1       7.430   5.290  18.266  0.00  0.00    +0.000 A 
ATOM      6  C   UNL     1       8.169   6.310  18.933  0.00  0.00    +0.000 A 
ATOM      7  C   UNL     1       8.034   7.526  18.302  0.00  0.00    +0.000 A 
ATOM      8  S   UNL     1       7.019   7.450  16.942  0.00  0.00    +0.000 S 
BRANCH   7   9
ATOM      9  C   UNL     1       8.644   8.741  18.692  0.00  0.00    +0.000 C 
ATOM     10  C   UNL     1       9.215   9.835  19.113  0.00  0.00    +0.000 C 
BRANCH  10  11
ATOM     11  C   UNL     1       9.881  11.112  19.603  0.00  0.00    +0.000 C 
BRANCH  11  12
ATOM     12  C   UNL     1       9.341  11.478  20.986  0.00  0.00    +0.000 C 
BRANCH  12  13
ATOM     13  C   UNL     1       9.630  12.916  21.326  0.00  0.00    +0.000 A 
ATOM     14  C   UNL     1      10.549  13.655  20.569  0.00  0.00    +0.000 A 
ATOM     15  C   UNL     1      10.847  14.973  20.911  0.00  0.00    +0.000 A 
ATOM     16  C   UNL     1      10.231  15.567  22.012  0.00  0.00    +0.000 A 
ATOM     17  C   UNL     1       9.310  14.841  22.770  0.00  0.00    +0.000 A 
ATOM     18  C   UNL     1       9.013  13.524  22.430  0.00  0.00    +0.000 A 
ENDBRANCH  12  13
ENDBRANCH  11  12
ENDBRANCH  10  11
ENDBRANCH   7   9
ENDBRANCH   1   4
BRANCH   1  19
ATOM     19  N   UNL     1       4.269   4.718  16.771  0.00  0.00    +0.000 NA
ATOM     20  H   UNL     1       3.936   5.558  17.251  0.00  0.00    +0.000 HD
BRANCH  19  21
ATOM     21  C   UNL     1       4.313   3.543  17.672  0.00  0.00    +0.000 C 
BRANCH  21  25
ATOM     22  C   UNL     1       1.822   6.858  20.034  0.00  0.00    +0.000 C 
ATOM     23  C   UNL     1       2.640   5.597  20.277  0.00  0.00    +0.000 C 
ATOM     24  O   UNL     1       2.971   5.058  18.984  0.00  0.00    +0.000 OA
ATOM     25  C   UNL     1       3.870   3.937  19.084  0.00  0.00    +0.000 C 
ATOM     26  C   UNL     1       3.214   2.771  19.841  0.00  0.00    +0.000 C 
ATOM     27  C   UNL     1       2.753   3.270  21.223  0.00  0.00    +0.000 C 
ATOM     28  C   UNL     1       1.886   4.535  21.095  0.00  0.00    +0.000 C 
BRANCH  26  29
ATOM     29  O   UNL     1       4.128   1.677  19.944  0.00  0.00    +0.000 OA
ATOM     30  H   UNL     1       5.026   2.021  20.081  0.00  0.00    +0.000 HD
ENDBRANCH  26  29
BRANCH  27  31
ATOM     31  O   UNL     1       2.028   2.243  21.904  0.00  0.00    +0.000 OA
ATOM     32  H   UNL     1       2.698   1.628  22.265  0.00  0.00    +0.000 HD
ENDBRANCH  27  31
BRANCH  28  33
ATOM     33  O   UNL     1       0.646   4.175  20.462  0.00  0.00    +0.000 OA
ATOM     34  H   UNL     1       0.026   3.900  21.164  0.00  0.00    +0.000 HD
ENDBRANCH  28  33
ENDBRANCH  21  25
ENDBRANCH  19  21
ENDBRANCH   1  19
TORSDOF 11
ENDMDL
MODEL 6
REMARK VINA RESULT:      -7.9      4.698      6.909
REMARK  Name = 
REMARK  12 active torsions:
REMARK  status: ('A' for Active; 'I' for Inactive)
REMARK    1  A    between atoms: C_1  and  C_2
REMARK    2  A    between atoms: C_4  and  C_5
REMARK    3  A    between atoms: C_5  and  N_6
REMARK    4  A    between atoms: N_6  and  S_7
REMARK    5  A    between atoms: S_7  and  C_10
REMARK    6  A    between atoms: C_13  and  C_14
REMARK    7  A    between atoms: C_15  and  C_16
REMARK    8  A    between atoms: C_16  and  C_17
REMARK    9  A    between atoms: C_17  and  C_18
REMARK   10  A    between atoms: C_25  and  O_26
REMARK   11  A    between atoms: C_27  and  O_28
REMARK   12  A    between atoms: C_29  and  O_30
REMARK                            x       y       z     vdW  Elec       q    Type
REMARK                         _______ _______ _______ _____ _____    ______ ____
ROOT
ATOM      1  S   UNL     1       2.490   2.754  18.613  0.00  0.00    +0.000 S 
ATOM      2  O   UNL     1       2.054   2.769  17.232  0.00  0.00    +0.000 OA
ATOM      3  O   UNL     1       1.862   1.935  19.621  0.00  0.00    +0.000 OA
ENDROOT
BRANCH   1   4
ATOM      4  C   UNL     1       2.286   4.424  19.168  0.00  0.00    +0.000 A 
ATOM      5  C   UNL     1       2.020   4.997  20.397  0.00  0.00    +0.000 A 
ATOM      6  C   UNL     1       1.928   6.417  20.313  0.00  0.00    +0.000 A 
ATOM      7  C   UNL     1       2.115   6.860  19.022  0.00  0.00    +0.000 A 
ATOM      8  S   UNL     1       2.377   5.590  17.925  0.00  0.00    +0.000 S 
BRANCH   7   9
ATOM      9  C   UNL     1       2.102   8.207  18.593  0.00  0.00    +0.000 C 
ATOM     10  C   UNL     1       2.064   9.466  18.256  0.00  0.00    +0.000 C 
BRANCH  10  11
ATOM     11  C   UNL     1       2.021  10.934  17.862  0.00  0.00    +0.000 C 
BRANCH  11  12
ATOM     12  C   UNL     1       1.588  11.778  19.062  0.00  0.00    +0.000 C 
BRANCH  12  13
ATOM     13  C   UNL     1       1.861  13.242  18.833  0.00  0.00    +0.000 A 
ATOM     14  C   UNL     1       0.858  14.195  19.060  0.00  0.00    +0.000 A 
ATOM     15  C   UNL     1       1.099  15.544  18.807  0.00  0.00    +0.000 A 
ATOM     16  C   UNL     1       2.340  15.956  18.326  0.00  0.00    +0.000 A 
ATOM     17  C   UNL     1       3.348  15.015  18.101  0.00  0.00    +0.000 A 
ATOM     18  C   UNL     1       3.108  13.667  18.352  0.00  0.00    +0.000 A 
ENDBRANCH  12  13
ENDBRANCH  11  12
ENDBRANCH  10  11
ENDBRANCH   7   9
ENDBRANCH   1   4
BRANCH   1  19
ATOM     19  N   UNL     1       4.155   2.475  18.668  0.00  0.00    +0.000 NA
ATOM     20  H   UNL     1       4.350   1.557  19.076  0.00  0.00    +0.000 HD
BRANCH  19  21
ATOM     21  C   UNL     1       4.951   3.548  19.307  0.00  0.00    +0.000 C 
BRANCH  21  25
ATOM     22  C   UNL     1       5.681   4.280  14.647  0.00  0.00    +0.000 C 
ATOM     23  C   UNL     1       6.367   4.459  15.994  0.00  0.00    +0.000 C 
ATOM     24  O   UNL     1       5.404   4.110  17.005  0.00  0.00    +0.000 OA
ATOM     25  C   UNL     1       5.985   4.103  18.322  0.00  0.00    +0.000 C 
ATOM     26  C   UNL     1       6.477   5.506  18.715  0.00  0.00    +0.000 C 
ATOM     27  C   UNL     1       7.468   6.004  17.646  0.00  0.00    +0.000 C 
ATOM     28  C   UNL     1       6.861   5.896  16.235  0.00  0.00    +0.000 C 
BRANCH  26  29
ATOM     29  O   UNL     1       7.066   5.473  20.016  0.00  0.00    +0.000 OA
ATOM     30  H   UNL     1       8.015   5.671  19.944  0.00  0.00    +0.000 HD
ENDBRANCH  26  29
BRANCH  27  31
ATOM     31  O   UNL     1       7.849   7.355  17.916  0.00  0.00    +0.000 OA
ATOM     32  H   UNL     1       8.813   7.405  17.756  0.00  0.00    +0.000 HD
ENDBRANCH  27  31
BRANCH  28  33
ATOM     33  O   UNL     1       5.783   6.841  16.128  0.00  0.00    +0.000 OA
ATOM     34  H   UNL     1       5.163   6.505  15.453  0.00  0.00    +0.000 HD
ENDBRANCH  28  33
ENDBRANCH  21  25
ENDBRANCH  19  21
ENDBRANCH   1  19
TORSDOF 11
ENDMDL
MODEL 7
REMARK VINA RESULT:      -7.8      7.815     11.761
REMARK  Name = 
REMARK  12 active torsions:
REMARK  status: ('A' for Active; 'I' for Inactive)
REMARK    1  A    between atoms: C_1  and  C_2
REMARK    2  A    between atoms: C_4  and  C_5
REMARK    3  A    between atoms: C_5  and  N_6
REMARK    4  A    between atoms: N_6  and  S_7
REMARK    5  A    between atoms: S_7  and  C_10
REMARK    6  A    between atoms: C_13  and  C_14
REMARK    7  A    between atoms: C_15  and  C_16
REMARK    8  A    between atoms: C_16  and  C_17
REMARK    9  A    between atoms: C_17  and  C_18
REMARK   10  A    between atoms: C_25  and  O_26
REMARK   11  A    between atoms: C_27  and  O_28
REMARK   12  A    between atoms: C_29  and  O_30
REMARK                            x       y       z     vdW  Elec       q    Type
REMARK                         _______ _______ _______ _____ _____    ______ ____
ROOT
ATOM      1  S   UNL     1      -0.081  11.036  21.388  0.00  0.00    +0.000 S 
ATOM      2  O   UNL     1       0.720  12.202  21.702  0.00  0.00    +0.000 OA
ATOM      3  O   UNL     1      -0.318   9.975  22.336  0.00  0.00    +0.000 OA
ENDROOT
BRANCH   1   4
ATOM      4  C   UNL     1       0.750  10.272  20.023  0.00  0.00    +0.000 A 
ATOM      5  C   UNL     1       1.021  10.668  18.727  0.00  0.00    +0.000 A 
ATOM      6  C   UNL     1       1.715   9.659  17.997  0.00  0.00    +0.000 A 
ATOM      7  C   UNL     1       1.929   8.536  18.766  0.00  0.00    +0.000 A 
ATOM      8  S   UNL     1       1.289   8.683  20.332  0.00  0.00    +0.000 S 
BRANCH   7   9
ATOM      9  C   UNL     1       2.599   7.359  18.356  0.00  0.00    +0.000 C 
ATOM     10  C   UNL     1       3.225   6.303  17.919  0.00  0.00    +0.000 C 
BRANCH  10  11
ATOM     11  C   UNL     1       3.956   5.071  17.410  0.00  0.00    +0.000 C 
BRANCH  11  12
ATOM     12  C   UNL     1       3.010   3.870  17.414  0.00  0.00    +0.000 C 
BRANCH  12  13
ATOM     13  C   UNL     1       2.544   3.542  18.809  0.00  0.00    +0.000 A 
ATOM     14  C   UNL     1       3.451   3.074  19.769  0.00  0.00    +0.000 A 
ATOM     15  C   UNL     1       3.011   2.731  21.046  0.00  0.00    +0.000 A 
ATOM     16  C   UNL     1       1.662   2.849  21.377  0.00  0.00    +0.000 A 
ATOM     17  C   UNL     1       0.751   3.319  20.429  0.00  0.00    +0.000 A 
ATOM     18  C   UNL     1       1.189   3.661  19.153  0.00  0.00    +0.000 A 
ENDBRANCH  12  13
ENDBRANCH  11  12
ENDBRANCH  10  11
ENDBRANCH   7   9
ENDBRANCH   1   4
BRANCH   1  19
ATOM     19  N   UNL     1      -1.572  11.535  20.770  0.00  0.00    +0.000 NA
ATOM     20  H   UNL     1      -1.778  11.045  19.895  0.00  0.00    +0.000 HD
BRANCH  19  21
ATOM     21  C   UNL     1      -1.739  13.000  20.640  0.00  0.00    +0.000 C 
BRANCH  21  25
ATOM     22  C   UNL     1      -6.276  14.026  19.571  0.00  0.00    +0.000 C 
ATOM     23  C   UNL     1      -5.323  13.975  20.757  0.00  0.00    +0.000 C 
ATOM     24  O   UNL     1      -4.089  13.410  20.279  0.00  0.00    +0.000 OA
ATOM     25  C   UNL     1      -3.057  13.445  21.282  0.00  0.00    +0.000 C 
ATOM     26  C   UNL     1      -3.439  12.583  22.496  0.00  0.00    +0.000 C 
ATOM     27  C   UNL     1      -4.797  13.066  23.042  0.00  0.00    +0.000 C 
ATOM     28  C   UNL     1      -5.854  13.126  21.925  0.00  0.00    +0.000 C 
BRANCH  26  29
ATOM     29  O   UNL     1      -2.411  12.646  23.487  0.00  0.00    +0.000 OA
ATOM     30  H   UNL     1      -1.638  12.146  23.179  0.00  0.00    +0.000 HD
ENDBRANCH  26  29
BRANCH  27  31
ATOM     31  O   UNL     1      -5.241  12.205  24.094  0.00  0.00    +0.000 OA
ATOM     32  H   UNL     1      -4.691  11.398  24.039  0.00  0.00    +0.000 HD
ENDBRANCH  27  31
BRANCH  28  33
ATOM     33  O   UNL     1      -6.145  11.783  21.500  0.00  0.00    +0.000 OA
ATOM     34  H   UNL     1      -5.304  11.289  21.489  0.00  0.00    +0.000 HD
ENDBRANCH  28  33
ENDBRANCH  21  25
ENDBRANCH  19  21
ENDBRANCH   1  19
TORSDOF 11
ENDMDL
MODEL 8
REMARK VINA RESULT:      -7.8      5.098      8.406
REMARK  Name = 
REMARK  12 active torsions:
REMARK  status: ('A' for Active; 'I' for Inactive)
REMARK    1  A    between atoms: C_1  and  C_2
REMARK    2  A    between atoms: C_4  and  C_5
REMARK    3  A    between atoms: C_5  and  N_6
REMARK    4  A    between atoms: N_6  and  S_7
REMARK    5  A    between atoms: S_7  and  C_10
REMARK    6  A    between atoms: C_13  and  C_14
REMARK    7  A    between atoms: C_15  and  C_16
REMARK    8  A    between atoms: C_16  and  C_17
REMARK    9  A    between atoms: C_17  and  C_18
REMARK   10  A    between atoms: C_25  and  O_26
REMARK   11  A    between atoms: C_27  and  O_28
REMARK   12  A    between atoms: C_29  and  O_30
REMARK                            x       y       z     vdW  Elec       q    Type
REMARK                         _______ _______ _______ _____ _____    ______ ____
ROOT
ATOM      1  S   UNL     1       2.796   2.931  19.107  0.00  0.00    +0.000 S 
ATOM      2  O   UNL     1       1.935   2.404  18.068  0.00  0.00    +0.000 OA
ATOM      3  O   UNL     1       2.657   2.565  20.495  0.00  0.00    +0.000 OA
ENDROOT
BRANCH   1   4
ATOM      4  C   UNL     1       2.547   4.684  19.053  0.00  0.00    +0.000 A 
ATOM      5  C   UNL     1       2.787   5.654  18.100  0.00  0.00    +0.000 A 
ATOM      6  C   UNL     1       2.423   6.954  18.560  0.00  0.00    +0.000 A 
ATOM      7  C   UNL     1       1.935   6.915  19.847  0.00  0.00    +0.000 A 
ATOM      8  S   UNL     1       1.933   5.348  20.501  0.00  0.00    +0.000 S 
BRANCH   7   9
ATOM      9  C   UNL     1       1.473   8.021  20.598  0.00  0.00    +0.000 C 
ATOM     10  C   UNL     1       0.993   9.042  21.251  0.00  0.00    +0.000 C 
BRANCH  10  11
ATOM     11  C   UNL     1       0.432  10.233  22.013  0.00  0.00    +0.000 C 
BRANCH  11  12
ATOM     12  C   UNL     1       0.446  11.472  21.118  0.00  0.00    +0.000 C 
BRANCH  12  13
ATOM     13  C   UNL     1      -0.719  11.475  20.164  0.00  0.00    +0.000 A 
ATOM     14  C   UNL     1      -0.636  10.796  18.940  0.00  0.00    +0.000 A 
ATOM     15  C   UNL     1      -1.699  10.834  18.039  0.00  0.00    +0.000 A 
ATOM     16  C   UNL     1      -2.855  11.550  18.349  0.00  0.00    +0.000 A 
ATOM     17  C   UNL     1      -2.950  12.225  19.568  0.00  0.00    +0.000 A 
ATOM     18  C   UNL     1      -1.888  12.189  20.468  0.00  0.00    +0.000 A 
ENDBRANCH  12  13
ENDBRANCH  11  12
ENDBRANCH  10  11
ENDBRANCH   7   9
ENDBRANCH   1   4
BRANCH   1  19
ATOM     19  N   UNL     1       4.410   2.704  18.660  0.00  0.00    +0.000 NA
ATOM     20  H   UNL     1       4.709   1.749  18.874  0.00  0.00    +0.000 HD
BRANCH  19  21
ATOM     21  C   UNL     1       5.355   3.714  19.189  0.00  0.00    +0.000 C 
BRANCH  21  25
ATOM     22  C   UNL     1       5.605   3.977  14.430  0.00  0.00    +0.000 C 
ATOM     23  C   UNL     1       6.364   4.402  15.679  0.00  0.00    +0.000 C 
ATOM     24  O   UNL     1       5.541   4.054  16.807  0.00  0.00    +0.000 OA
ATOM     25  C   UNL     1       6.221   4.278  18.057  0.00  0.00    +0.000 C 
ATOM     26  C   UNL     1       6.542   5.768  18.250  0.00  0.00    +0.000 C 
ATOM     27  C   UNL     1       7.367   6.260  17.045  0.00  0.00    +0.000 C 
ATOM     28  C   UNL     1       6.671   5.909  15.718  0.00  0.00    +0.000 C 
BRANCH  26  29
ATOM     29  O   UNL     1       7.232   5.966  19.486  0.00  0.00    +0.000 OA
ATOM     30  H   UNL     1       6.925   5.310  20.133  0.00  0.00    +0.000 HD
ENDBRANCH  26  29
BRANCH  27  31
ATOM     31  O   UNL     1       7.576   7.672  17.132  0.00  0.00    +0.000 OA
ATOM     32  H   UNL     1       6.939   8.003  17.796  0.00  0.00    +0.000 HD
ENDBRANCH  27  31
BRANCH  28  33
ATOM     33  O   UNL     1       5.467   6.687  15.613  0.00  0.00    +0.000 OA
ATOM     34  H   UNL     1       4.717   6.100  15.826  0.00  0.00    +0.000 HD
ENDBRANCH  28  33
ENDBRANCH  21  25
ENDBRANCH  19  21
ENDBRANCH   1  19
TORSDOF 11
ENDMDL
MODEL 9
REMARK VINA RESULT:      -7.8      5.037      8.271
REMARK  Name = 
REMARK  12 active torsions:
REMARK  status: ('A' for Active; 'I' for Inactive)
REMARK    1  A    between atoms: C_1  and  C_2
REMARK    2  A    between atoms: C_4  and  C_5
REMARK    3  A    between atoms: C_5  and  N_6
REMARK    4  A    between atoms: N_6  and  S_7
REMARK    5  A    between atoms: S_7  and  C_10
REMARK    6  A    between atoms: C_13  and  C_14
REMARK    7  A    between atoms: C_15  and  C_16
REMARK    8  A    between atoms: C_16  and  C_17
REMARK    9  A    between atoms: C_17  and  C_18
REMARK   10  A    between atoms: C_25  and  O_26
REMARK   11  A    between atoms: C_27  and  O_28
REMARK   12  A    between atoms: C_29  and  O_30
REMARK                            x       y       z     vdW  Elec       q    Type
REMARK                         _______ _______ _______ _____ _____    ______ ____
ROOT
ATOM      1  S   UNL     1       2.545   2.690  18.436  0.00  0.00    +0.000 S 
ATOM      2  O   UNL     1       2.241   2.945  17.043  0.00  0.00    +0.000 OA
ATOM      3  O   UNL     1       1.848   1.697  19.217  0.00  0.00    +0.000 OA
ENDROOT
BRANCH   1   4
ATOM      4  C   UNL     1       2.241   4.232  19.253  0.00  0.00    +0.000 A 
ATOM      5  C   UNL     1       1.982   4.585  20.564  0.00  0.00    +0.000 A 
ATOM      6  C   UNL     1       1.783   5.989  20.708  0.00  0.00    +0.000 A 
ATOM      7  C   UNL     1       1.887   6.640  19.499  0.00  0.00    +0.000 A 
ATOM      8  S   UNL     1       2.198   5.581  18.209  0.00  0.00    +0.000 S 
BRANCH   7   9
ATOM      9  C   UNL     1       1.759   8.033  19.288  0.00  0.00    +0.000 C 
ATOM     10  C   UNL     1       1.575   9.308  19.089  0.00  0.00    +0.000 C 
BRANCH  10  11
ATOM     11  C   UNL     1       1.361  10.796  18.859  0.00  0.00    +0.000 C 
BRANCH  11  12
ATOM     12  C   UNL     1      -0.128  11.079  18.660  0.00  0.00    +0.000 C 
BRANCH  12  13
ATOM     13  C   UNL     1      -0.775  11.549  19.936  0.00  0.00    +0.000 A 
ATOM     14  C   UNL     1      -2.032  12.169  19.909  0.00  0.00    +0.000 A 
ATOM     15  C   UNL     1      -2.610  12.641  21.086  0.00  0.00    +0.000 A 
ATOM     16  C   UNL     1      -1.941  12.502  22.301  0.00  0.00    +0.000 A 
ATOM     17  C   UNL     1      -0.690  11.881  22.339  0.00  0.00    +0.000 A 
ATOM     18  C   UNL     1      -0.111  11.410  21.165  0.00  0.00    +0.000 A 
ENDBRANCH  12  13
ENDBRANCH  11  12
ENDBRANCH  10  11
ENDBRANCH   7   9
ENDBRANCH   1   4
BRANCH   1  19
ATOM     19  N   UNL     1       4.205   2.425  18.605  0.00  0.00    +0.000 NA
ATOM     20  H   UNL     1       4.378   1.525  19.061  0.00  0.00    +0.000 HD
BRANCH  19  21
ATOM     21  C   UNL     1       4.955   3.528  19.247  0.00  0.00    +0.000 C 
BRANCH  21  25
ATOM     22  C   UNL     1       5.680   4.357  14.603  0.00  0.00    +0.000 C 
ATOM     23  C   UNL     1       6.364   4.515  15.954  0.00  0.00    +0.000 C 
ATOM     24  O   UNL     1       5.403   4.139  16.957  0.00  0.00    +0.000 OA
ATOM     25  C   UNL     1       5.985   4.111  18.274  0.00  0.00    +0.000 C 
ATOM     26  C   UNL     1       6.465   5.509  18.694  0.00  0.00    +0.000 C 
ATOM     27  C   UNL     1       7.452   6.036  17.636  0.00  0.00    +0.000 C 
ATOM     28  C   UNL     1       6.847   5.951  16.223  0.00  0.00    +0.000 C 
BRANCH  26  29
ATOM     29  O   UNL     1       7.055   5.455  19.995  0.00  0.00    +0.000 OA
ATOM     30  H   UNL     1       8.003   5.259  19.910  0.00  0.00    +0.000 HD
ENDBRANCH  26  29
BRANCH  27  31
ATOM     31  O   UNL     1       7.823   7.385  17.932  0.00  0.00    +0.000 OA
ATOM     32  H   UNL     1       7.753   7.879  17.091  0.00  0.00    +0.000 HD
ENDBRANCH  27  31
BRANCH  28  33
ATOM     33  O   UNL     1       5.762   6.890  16.135  0.00  0.00    +0.000 OA
ATOM     34  H   UNL     1       4.933   6.376  16.078  0.00  0.00    +0.000 HD
ENDBRANCH  28  33
ENDBRANCH  21  25
ENDBRANCH  19  21
ENDBRANCH   1  19
TORSDOF 11
ENDMDL
