MODEL 1
REMARK VINA RESULT:      -7.4      0.000      0.000
REMARK  Name = 
REMARK  2 active torsions:
REMARK  status: ('A' for Active; 'I' for Inactive)
REMARK    1  A    between atoms: O_1  and  C_2
REMARK    2  A    between atoms: C_15  and  O_16
REMARK                            x       y       z     vdW  Elec       q    Type
REMARK                         _______ _______ _______ _____ _____    ______ ____
ROOT
ATOM      1  C   UNL     1       6.722   6.075  16.875  0.00  0.00    +0.000 A 
ATOM      2  N   UNL     1       5.856   6.302  17.872  0.00  0.00    +0.000 NA
ATOM      3  C   UNL     1       4.857   5.412  17.995  0.00  0.00    +0.000 A 
ATOM      4  N   UNL     1       3.972   5.599  18.978  0.00  0.00    +0.000 NA
ATOM      5  C   UNL     1       2.969   4.709  19.103  0.00  0.00    +0.000 A 
ATOM      6  C   UNL     1       2.026   4.866  20.114  0.00  0.00    +0.000 A 
ATOM      7  C   UNL     1       0.972   3.963  20.273  0.00  0.00    +0.000 A 
ATOM      8  C   UNL     1       0.859   2.886  19.406  0.00  0.00    +0.000 A 
ATOM      9  C   UNL     1       1.800   2.720  18.390  0.00  0.00    +0.000 A 
ATOM     10  C   UNL     1       2.853   3.612  18.223  0.00  0.00    +0.000 A 
ATOM     11  N   UNL     1       3.742   3.418  17.234  0.00  0.00    +0.000 NA
ATOM     12  C   UNL     1       4.741   4.297  17.104  0.00  0.00    +0.000 A 
ATOM     13  N   UNL     1       5.623   4.093  16.114  0.00  0.00    +0.000 NA
ATOM     14  C   UNL     1       6.609   4.996  16.017  0.00  0.00    +0.000 A 
ENDROOT
BRANCH   1  15
ATOM     15  O   UNL     1       7.717   6.993  16.777  0.00  0.00    +0.000 OA
ATOM     16  H   UNL     1       8.508   6.427  16.800  0.00  0.00    +0.000 HD
ENDBRANCH   1  15
BRANCH  14  17
ATOM     17  O   UNL     1       7.482   4.761  15.007  0.00  0.00    +0.000 OA
ATOM     18  H   UNL     1       6.882   4.695  14.243  0.00  0.00    +0.000 HD
ENDBRANCH  14  17
TORSDOF 2
ENDMDL
MODEL 2
REMARK VINA RESULT:      -7.4      0.195      2.225
REMARK  Name = 
REMARK  2 active torsions:
REMARK  status: ('A' for Active; 'I' for Inactive)
REMARK    1  A    between atoms: O_1  and  C_2
REMARK    2  A    between atoms: C_15  and  O_16
REMARK                            x       y       z     vdW  Elec       q    Type
REMARK                         _______ _______ _______ _____ _____    ______ ____
ROOT
ATOM      1  C   UNL     1       6.579   5.241  15.914  0.00  0.00    +0.000 A 
ATOM      2  N   UNL     1       5.577   4.351  15.953  0.00  0.00    +0.000 NA
ATOM      3  C   UNL     1       4.736   4.461  16.995  0.00  0.00    +0.000 A 
ATOM      4  N   UNL     1       3.722   3.596  17.072  0.00  0.00    +0.000 NA
ATOM      5  C   UNL     1       2.877   3.703  18.115  0.00  0.00    +0.000 A 
ATOM      6  C   UNL     1       1.807   2.822  18.233  0.00  0.00    +0.000 A 
ATOM      7  C   UNL     1       0.911   2.903  19.302  0.00  0.00    +0.000 A 
ATOM      8  C   UNL     1       1.090   3.881  20.270  0.00  0.00    +0.000 A 
ATOM      9  C   UNL     1       2.160   4.769  20.159  0.00  0.00    +0.000 A 
ATOM     10  C   UNL     1       3.056   4.698  19.099  0.00  0.00    +0.000 A 
ATOM     11  N   UNL     1       4.073   5.573  19.026  0.00  0.00    +0.000 NA
ATOM     12  C   UNL     1       4.915   5.473  17.992  0.00  0.00    +0.000 A 
ATOM     13  N   UNL     1       5.926   6.352  17.928  0.00  0.00    +0.000 NA
ATOM     14  C   UNL     1       6.749   6.218  16.877  0.00  0.00    +0.000 A 
ENDROOT
BRANCH   1  15
ATOM     15  O   UNL     1       7.411   5.101  14.851  0.00  0.00    +0.000 OA
ATOM     16  H   UNL     1       7.290   5.952  14.395  0.00  0.00    +0.000 HD
ENDBRANCH   1  15
BRANCH  14  17
ATOM     17  O   UNL     1       7.759   7.122  16.843  0.00  0.00    +0.000 OA
ATOM     18  H   UNL     1       7.281   7.954  17.004  0.00  0.00    +0.000 HD
ENDBRANCH  14  17
TORSDOF 2
ENDMDL
MODEL 3
REMARK VINA RESULT:      -7.3      1.695      2.294
REMARK  Name = 
REMARK  2 active torsions:
REMARK  status: ('A' for Active; 'I' for Inactive)
REMARK    1  A    between atoms: O_1  and  C_2
REMARK    2  A    between atoms: C_15  and  O_16
REMARK                            x       y       z     vdW  Elec       q    Type
REMARK                         _______ _______ _______ _____ _____    ______ ____
ROOT
ATOM      1  C   UNL     1       6.844   6.731  17.672  0.00  0.00    +0.000 A 
ATOM      2  N   UNL     1       5.635   6.389  17.203  0.00  0.00    +0.000 NA
ATOM      3  C   UNL     1       4.977   5.453  17.907  0.00  0.00    +0.000 A 
ATOM      4  N   UNL     1       3.768   5.084  17.476  0.00  0.00    +0.000 NA
ATOM      5  C   UNL     1       3.106   4.145  18.178  0.00  0.00    +0.000 A 
ATOM      6  C   UNL     1       1.843   3.733  17.765  0.00  0.00    +0.000 A 
ATOM      7  C   UNL     1       1.128   2.760  18.468  0.00  0.00    +0.000 A 
ATOM      8  C   UNL     1       1.686   2.190  19.604  0.00  0.00    +0.000 A 
ATOM      9  C   UNL     1       2.951   2.598  20.026  0.00  0.00    +0.000 A 
ATOM     10  C   UNL     1       3.671   3.565  19.334  0.00  0.00    +0.000 A 
ATOM     11  N   UNL     1       4.886   3.934  19.773  0.00  0.00    +0.000 NA
ATOM     12  C   UNL     1       5.549   4.866  19.082  0.00  0.00    +0.000 A 
ATOM     13  N   UNL     1       6.760   5.228  19.529  0.00  0.00    +0.000 NA
ATOM     14  C   UNL     1       7.392   6.165  18.808  0.00  0.00    +0.000 A 
ENDROOT
BRANCH   1  15
ATOM     15  O   UNL     1       7.482   7.677  16.938  0.00  0.00    +0.000 OA
ATOM     16  H   UNL     1       8.409   7.531  17.196  0.00  0.00    +0.000 HD
ENDBRANCH   1  15
BRANCH  14  17
ATOM     17  O   UNL     1       8.614   6.507  19.287  0.00  0.00    +0.000 OA
ATOM     18  H   UNL     1       8.376   7.133  19.994  0.00  0.00    +0.000 HD
ENDBRANCH  14  17
TORSDOF 2
ENDMDL
MODEL 4
REMARK VINA RESULT:      -7.3      1.667      2.016
REMARK  Name = 
REMARK  2 active torsions:
REMARK  status: ('A' for Active; 'I' for Inactive)
REMARK    1  A    between atoms: O_1  and  C_2
REMARK    2  A    between atoms: C_15  and  O_16
REMARK                            x       y       z     vdW  Elec       q    Type
REMARK                         _______ _______ _______ _____ _____    ______ ____
ROOT
ATOM      1  C   UNL     1       7.394   6.119  18.805  0.00  0.00    +0.000 A 
ATOM      2  N   UNL     1       6.754   5.199  19.540  0.00  0.00    +0.000 NA
ATOM      3  C   UNL     1       5.543   4.831  19.092  0.00  0.00    +0.000 A 
ATOM      4  N   UNL     1       4.869   3.914  19.793  0.00  0.00    +0.000 NA
ATOM      5  C   UNL     1       3.655   3.543  19.347  0.00  0.00    +0.000 A 
ATOM      6  C   UNL     1       2.921   2.591  20.047  0.00  0.00    +0.000 A 
ATOM      7  C   UNL     1       1.657   2.182  19.614  0.00  0.00    +0.000 A 
ATOM      8  C   UNL     1       1.117   2.737  18.462  0.00  0.00    +0.000 A 
ATOM      9  C   UNL     1       1.847   3.692  17.753  0.00  0.00    +0.000 A 
ATOM     10  C   UNL     1       3.105   4.105  18.175  0.00  0.00    +0.000 A 
ATOM     11  N   UNL     1       3.778   5.025  17.464  0.00  0.00    +0.000 NA
ATOM     12  C   UNL     1       4.986   5.398  17.901  0.00  0.00    +0.000 A 
ATOM     13  N   UNL     1       5.649   6.317  17.183  0.00  0.00    +0.000 NA
ATOM     14  C   UNL     1       6.856   6.664  17.654  0.00  0.00    +0.000 A 
ENDROOT
BRANCH   1  15
ATOM     15  O   UNL     1       8.614   6.471  19.286  0.00  0.00    +0.000 OA
ATOM     16  H   UNL     1       8.374   7.118  19.971  0.00  0.00    +0.000 HD
ENDBRANCH   1  15
BRANCH  14  17
ATOM     17  O   UNL     1       7.499   7.594  16.906  0.00  0.00    +0.000 OA
ATOM     18  H   UNL     1       6.769   8.194  16.673  0.00  0.00    +0.000 HD
ENDBRANCH  14  17
TORSDOF 2
ENDMDL
MODEL 5
REMARK VINA RESULT:      -7.2      1.648      1.955
REMARK  Name = 
REMARK  2 active torsions:
REMARK  status: ('A' for Active; 'I' for Inactive)
REMARK    1  A    between atoms: O_1  and  C_2
REMARK    2  A    between atoms: C_15  and  O_16
REMARK                            x       y       z     vdW  Elec       q    Type
REMARK                         _______ _______ _______ _____ _____    ______ ____
ROOT
ATOM      1  C   UNL     1       5.818   5.109  16.247  0.00  0.00    +0.000 A 
ATOM      2  N   UNL     1       4.501   5.080  16.498  0.00  0.00    +0.000 NA
ATOM      3  C   UNL     1       4.138   4.491  17.649  0.00  0.00    +0.000 A 
ATOM      4  N   UNL     1       2.835   4.441  17.941  0.00  0.00    +0.000 NA
ATOM      5  C   UNL     1       2.468   3.850  19.093  0.00  0.00    +0.000 A 
ATOM      6  C   UNL     1       1.121   3.778  19.436  0.00  0.00    +0.000 A 
ATOM      7  C   UNL     1       0.703   3.172  20.623  0.00  0.00    +0.000 A 
ATOM      8  C   UNL     1       1.647   2.627  21.481  0.00  0.00    +0.000 A 
ATOM      9  C   UNL     1       3.000   2.695  21.146  0.00  0.00    +0.000 A 
ATOM     10  C   UNL     1       3.426   3.298  19.968  0.00  0.00    +0.000 A 
ATOM     11  N   UNL     1       4.738   3.346  19.681  0.00  0.00    +0.000 NA
ATOM     12  C   UNL     1       5.111   3.932  18.539  0.00  0.00    +0.000 A 
ATOM     13  N   UNL     1       6.423   3.976  18.263  0.00  0.00    +0.000 NA
ATOM     14  C   UNL     1       6.756   4.571  17.108  0.00  0.00    +0.000 A 
ENDROOT
BRANCH   1  15
ATOM     15  O   UNL     1       6.151   5.709  15.076  0.00  0.00    +0.000 OA
ATOM     16  H   UNL     1       7.112   5.563  15.048  0.00  0.00    +0.000 HD
ENDBRANCH   1  15
BRANCH  14  17
ATOM     17  O   UNL     1       8.089   4.598  16.859  0.00  0.00    +0.000 OA
ATOM     18  H   UNL     1       8.455   4.477  17.753  0.00  0.00    +0.000 HD
ENDBRANCH  14  17
TORSDOF 2
ENDMDL
MODEL 6
REMARK VINA RESULT:      -7.2      1.677      1.831
REMARK  Name = 
REMARK  2 active torsions:
REMARK  status: ('A' for Active; 'I' for Inactive)
REMARK    1  A    between atoms: O_1  and  C_2
REMARK    2  A    between atoms: C_15  and  O_16
REMARK                            x       y       z     vdW  Elec       q    Type
REMARK                         _______ _______ _______ _____ _____    ______ ____
ROOT
ATOM      1  C   UNL     1       6.724   4.697  17.056  0.00  0.00    +0.000 A 
ATOM      2  N   UNL     1       6.422   4.020  18.173  0.00  0.00    +0.000 NA
ATOM      3  C   UNL     1       5.124   4.009  18.519  0.00  0.00    +0.000 A 
ATOM      4  N   UNL     1       4.778   3.344  19.625  0.00  0.00    +0.000 NA
ATOM      5  C   UNL     1       3.479   3.332  19.975  0.00  0.00    +0.000 A 
ATOM      6  C   UNL     1       3.076   2.650  21.119  0.00  0.00    +0.000 A 
ATOM      7  C   UNL     1       1.736   2.616  21.513  0.00  0.00    +0.000 A 
ATOM      8  C   UNL     1       0.783   3.277  20.751  0.00  0.00    +0.000 A 
ATOM      9  C   UNL     1       1.178   3.963  19.602  0.00  0.00    +0.000 A 
ATOM     10  C   UNL     1       2.508   4.001  19.200  0.00  0.00    +0.000 A 
ATOM     11  N   UNL     1       2.849   4.670  18.086  0.00  0.00    +0.000 NA
ATOM     12  C   UNL     1       4.138   4.686  17.731  0.00  0.00    +0.000 A 
ATOM     13  N   UNL     1       4.468   5.356  16.617  0.00  0.00    +0.000 NA
ATOM     14  C   UNL     1       5.770   5.348  16.296  0.00  0.00    +0.000 A 
ENDROOT
BRANCH   1  15
ATOM     15  O   UNL     1       8.042   4.691  16.736  0.00  0.00    +0.000 OA
ATOM     16  H   UNL     1       8.330   5.555  17.076  0.00  0.00    +0.000 HD
ENDBRANCH   1  15
BRANCH  14  17
ATOM     17  O   UNL     1       6.069   6.034  15.165  0.00  0.00    +0.000 OA
ATOM     18  H   UNL     1       5.470   6.798  15.238  0.00  0.00    +0.000 HD
ENDBRANCH  14  17
TORSDOF 2
ENDMDL
MODEL 7
REMARK VINA RESULT:      -7.1      3.531      5.794
REMARK  Name = 
REMARK  2 active torsions:
REMARK  status: ('A' for Active; 'I' for Inactive)
REMARK    1  A    between atoms: O_1  and  C_2
REMARK    2  A    between atoms: C_15  and  O_16
REMARK                            x       y       z     vdW  Elec       q    Type
REMARK                         _______ _______ _______ _____ _____    ______ ____
ROOT
ATOM      1  C   UNL     1       1.271   2.846  19.605  0.00  0.00    +0.000 A 
ATOM      2  N   UNL     1       1.683   3.125  18.360  0.00  0.00    +0.000 NA
ATOM      3  C   UNL     1       2.975   3.468  18.234  0.00  0.00    +0.000 A 
ATOM      4  N   UNL     1       3.430   3.752  17.011  0.00  0.00    +0.000 NA
ATOM      5  C   UNL     1       4.724   4.097  16.881  0.00  0.00    +0.000 A 
ATOM      6  C   UNL     1       5.238   4.400  15.623  0.00  0.00    +0.000 A 
ATOM      7  C   UNL     1       6.576   4.762  15.451  0.00  0.00    +0.000 A 
ATOM      8  C   UNL     1       7.415   4.823  16.555  0.00  0.00    +0.000 A 
ATOM      9  C   UNL     1       6.908   4.520  17.820  0.00  0.00    +0.000 A 
ATOM     10  C   UNL     1       5.579   4.158  18.002  0.00  0.00    +0.000 A 
ATOM     11  N   UNL     1       5.128   3.871  19.234  0.00  0.00    +0.000 NA
ATOM     12  C   UNL     1       3.844   3.527  19.371  0.00  0.00    +0.000 A 
ATOM     13  N   UNL     1       3.405   3.241  20.606  0.00  0.00    +0.000 NA
ATOM     14  C   UNL     1       2.112   2.902  20.701  0.00  0.00    +0.000 A 
ENDROOT
BRANCH   1  15
ATOM     15  O   UNL     1      -0.040   2.506  19.698  0.00  0.00    +0.000 OA
ATOM     16  H   UNL     1      -0.066   2.067  20.566  0.00  0.00    +0.000 HD
ENDBRANCH   1  15
BRANCH  14  17
ATOM     17  O   UNL     1       1.701   2.620  21.962  0.00  0.00    +0.000 OA
ATOM     18  H   UNL     1       2.487   2.177  22.327  0.00  0.00    +0.000 HD
ENDBRANCH  14  17
TORSDOF 2
ENDMDL
MODEL 8
REMARK VINA RESULT:      -7.1      3.533      5.547
REMARK  Name = 
REMARK  2 active torsions:
REMARK  status: ('A' for Active; 'I' for Inactive)
REMARK    1  A    between atoms: O_1  and  C_2
REMARK    2  A    between atoms: C_15  and  O_16
REMARK                            x       y       z     vdW  Elec       q    Type
REMARK                         _______ _______ _______ _____ _____    ______ ____
ROOT
ATOM      1  C   UNL     1       2.114   2.910  20.696  0.00  0.00    +0.000 A 
ATOM      2  N   UNL     1       3.415   3.222  20.609  0.00  0.00    +0.000 NA
ATOM      3  C   UNL     1       3.866   3.509  19.376  0.00  0.00    +0.000 A 
ATOM      4  N   UNL     1       5.156   3.828  19.243  0.00  0.00    +0.000 NA
ATOM      5  C   UNL     1       5.613   4.115  18.009  0.00  0.00    +0.000 A 
ATOM      6  C   UNL     1       6.950   4.453  17.827  0.00  0.00    +0.000 A 
ATOM      7  C   UNL     1       7.458   4.756  16.561  0.00  0.00    +0.000 A 
ATOM      8  C   UNL     1       6.615   4.719  15.459  0.00  0.00    +0.000 A 
ATOM      9  C   UNL     1       5.272   4.381  15.634  0.00  0.00    +0.000 A 
ATOM     10  C   UNL     1       4.756   4.079  16.889  0.00  0.00    +0.000 A 
ATOM     11  N   UNL     1       3.457   3.761  17.017  0.00  0.00    +0.000 NA
ATOM     12  C   UNL     1       2.997   3.476  18.239  0.00  0.00    +0.000 A 
ATOM     13  N   UNL     1       1.698   3.161  18.355  0.00  0.00    +0.000 NA
ATOM     14  C   UNL     1       1.276   2.880  19.597  0.00  0.00    +0.000 A 
ENDROOT
BRANCH   1  15
ATOM     15  O   UNL     1       1.690   2.624  21.953  0.00  0.00    +0.000 OA
ATOM     16  H   UNL     1       1.957   1.692  22.043  0.00  0.00    +0.000 HD
ENDBRANCH   1  15
BRANCH  14  17
ATOM     17  O   UNL     1      -0.041   2.566  19.680  0.00  0.00    +0.000 OA
ATOM     18  H   UNL     1      -0.000   1.610  19.861  0.00  0.00    +0.000 HD
ENDBRANCH  14  17
TORSDOF 2
ENDMDL
MODEL 9
REMARK VINA RESULT:      -7.1      3.313      5.393
REMARK  Name = 
REMARK  2 active torsions:
REMARK  status: ('A' for Active; 'I' for Inactive)
REMARK    1  A    between atoms: O_1  and  C_2
REMARK    2  A    between atoms: C_15  and  O_16
REMARK                            x       y       z     vdW  Elec       q    Type
REMARK                         _______ _______ _______ _____ _____    ______ ____
ROOT
ATOM      1  C   UNL     1       1.536   3.124  19.930  0.00  0.00    +0.000 A 
ATOM      2  N   UNL     1       2.610   3.884  20.187  0.00  0.00    +0.000 NA
ATOM      3  C   UNL     1       3.432   4.108  19.149  0.00  0.00    +0.000 A 
ATOM      4  N   UNL     1       4.514   4.863  19.360  0.00  0.00    +0.000 NA
ATOM      5  C   UNL     1       5.341   5.088  18.322  0.00  0.00    +0.000 A 
ATOM      6  C   UNL     1       6.478   5.870  18.500  0.00  0.00    +0.000 A 
ATOM      7  C   UNL     1       7.359   6.124  17.445  0.00  0.00    +0.000 A 
ATOM      8  C   UNL     1       7.098   5.586  16.193  0.00  0.00    +0.000 A 
ATOM      9  C   UNL     1       5.959   4.802  16.006  0.00  0.00    +0.000 A 
ATOM     10  C   UNL     1       5.076   4.544  17.048  0.00  0.00    +0.000 A 
ATOM     11  N   UNL     1       3.989   3.785  16.828  0.00  0.00    +0.000 NA
ATOM     12  C   UNL     1       3.163   3.558  17.854  0.00  0.00    +0.000 A 
ATOM     13  N   UNL     1       2.080   2.801  17.624  0.00  0.00    +0.000 NA
ATOM     14  C   UNL     1       1.277   2.596  18.678  0.00  0.00    +0.000 A 
ENDROOT
BRANCH   1  15
ATOM     15  O   UNL     1       0.728   2.916  20.999  0.00  0.00    +0.000 OA
ATOM     16  H   UNL     1       0.532   3.827  21.277  0.00  0.00    +0.000 HD
ENDBRANCH   1  15
BRANCH  14  17
ATOM     17  O   UNL     1       0.192   1.827  18.411  0.00  0.00    +0.000 OA
ATOM     18  H   UNL     1      -0.044   1.511  19.301  0.00  0.00    +0.000 HD
ENDBRANCH  14  17
TORSDOF 2
ENDMDL
