MODEL 1
REMARK VINA RESULT:      -8.5      0.000      0.000
REMARK  Name = 
REMARK  7 active torsions:
REMARK  status: ('A' for Active; 'I' for Inactive)
REMARK    1  A    between atoms: C_1  and  C_2
REMARK    2  A    between atoms: C_6  and  C_7
REMARK    3  A    between atoms: C_9  and  C_10
REMARK    4  A    between atoms: C_10  and  N_11
REMARK    5  A    between atoms: C_15  and  C_16
REMARK    6  A    between atoms: N_18  and  C_19
REMARK    7  A    between atoms: C_26  and  C_27
REMARK                            x       y       z     vdW  Elec       q    Type
REMARK                         _______ _______ _______ _____ _____    ______ ____
ROOT
ATOM      1  N   UNL     1       3.693   4.095  19.229  0.00  0.00    +0.000 NA
ATOM      2  C   UNL     1       2.973   3.570  20.384  0.00  0.00    +0.000 C 
ATOM      3  C   UNL     1       1.492   3.927  20.358  0.00  0.00    +0.000 C 
ATOM      4  C   UNL     1       1.310   5.435  20.341  0.00  0.00    +0.000 C 
ATOM      5  C   UNL     1       2.063   6.080  19.169  0.00  0.00    +0.000 C 
ATOM      6  C   UNL     1       3.483   5.521  18.944  0.00  0.00    +0.000 C 
ENDROOT
BRANCH   5   7
ATOM      7  C   UNL     1       2.172   7.589  19.386  0.00  0.00    +0.000 C 
ATOM      8  O   UNL     1       2.565   8.356  18.510  0.00  0.00    +0.000 OA
ATOM      9  N   UNL     1       1.777   7.996  20.643  0.00  0.00    +0.000 N 
ATOM     10  H   UNL     1       1.637   7.271  21.336  0.00  0.00    +0.000 HD
BRANCH   9  11
ATOM     11  C   UNL     1       1.811   9.361  21.150  0.00  0.00    +0.000 C 
ATOM     12  C   UNL     1       1.021  10.339  20.270  0.00  0.00    +0.000 C 
ATOM     13  C   UNL     1      -0.471  10.010  20.248  0.00  0.00    +0.000 C 
ATOM     14  C   UNL     1      -1.060   9.945  21.655  0.00  0.00    +0.000 C 
ATOM     15  C   UNL     1      -0.262   9.034  22.585  0.00  0.00    +0.000 C 
ATOM     16  C   UNL     1       1.232   9.374  22.575  0.00  0.00    +0.000 C 
ENDBRANCH   9  11
ENDBRANCH   5   7
BRANCH   1  17
ATOM     17  C   UNL     1       5.137   3.748  19.245  0.00  0.00    +0.000 C 
BRANCH  17  20
ATOM     18  C   UNL     1       6.507   4.436  16.004  0.00  0.00    +0.000 A 
ATOM     19  N   UNL     1       5.617   3.829  16.767  0.00  0.00    +0.000 NA
ATOM     20  C   UNL     1       5.917   4.249  18.058  0.00  0.00    +0.000 A 
ATOM     21  C   UNL     1       6.994   5.114  18.003  0.00  0.00    +0.000 A 
ATOM     22  C   UNL     1       7.780   5.904  18.962  0.00  0.00    +0.000 C 
ATOM     23  O   UNL     1       7.369   5.239  16.699  0.00  0.00    +0.000 OA
BRANCH  18  29
ATOM     24  C   UNL     1       5.197   2.635  11.525  0.00  0.00    +0.000 C 
ATOM     25  C   UNL     1       6.061   3.536  12.360  0.00  0.00    +0.000 A 
ATOM     26  C   UNL     1       7.010   4.370  11.761  0.00  0.00    +0.000 A 
ATOM     27  C   UNL     1       7.804   5.208  12.540  0.00  0.00    +0.000 A 
ATOM     28  C   UNL     1       7.645   5.227  13.927  0.00  0.00    +0.000 A 
ATOM     29  C   UNL     1       6.695   4.403  14.555  0.00  0.00    +0.000 A 
ATOM     30  C   UNL     1       5.912   3.557  13.757  0.00  0.00    +0.000 A 
ENDBRANCH  18  29
ENDBRANCH  17  20
ENDBRANCH   1  17
TORSDOF 5
ENDMDL
MODEL 2
REMARK VINA RESULT:      -8.5      1.218      1.391
REMARK  Name = 
REMARK  7 active torsions:
REMARK  status: ('A' for Active; 'I' for Inactive)
REMARK    1  A    between atoms: C_1  and  C_2
REMARK    2  A    between atoms: C_6  and  C_7
REMARK    3  A    between atoms: C_9  and  C_10
REMARK    4  A    between atoms: C_10  and  N_11
REMARK    5  A    between atoms: C_15  and  C_16
REMARK    6  A    between atoms: N_18  and  C_19
REMARK    7  A    between atoms: C_26  and  C_27
REMARK                            x       y       z     vdW  Elec       q    Type
REMARK                         _______ _______ _______ _____ _____    ______ ____
ROOT
ATOM      1  N   UNL     1       3.977   5.284  19.029  0.00  0.00    +0.000 NA
ATOM      2  C   UNL     1       3.354   5.090  20.334  0.00  0.00    +0.000 C 
ATOM      3  C   UNL     1       1.846   5.310  20.297  0.00  0.00    +0.000 C 
ATOM      4  C   UNL     1       1.526   6.719  19.832  0.00  0.00    +0.000 C 
ATOM      5  C   UNL     1       2.171   7.025  18.473  0.00  0.00    +0.000 C 
ATOM      6  C   UNL     1       3.625   6.531  18.337  0.00  0.00    +0.000 C 
ENDROOT
BRANCH   5   7
ATOM      7  C   UNL     1       2.148   8.530  18.211  0.00  0.00    +0.000 C 
ATOM      8  O   UNL     1       2.739   9.045  17.265  0.00  0.00    +0.000 OA
ATOM      9  N   UNL     1       1.398   9.239  19.126  0.00  0.00    +0.000 N 
ATOM     10  H   UNL     1       1.099   8.741  19.956  0.00  0.00    +0.000 HD
BRANCH   9  11
ATOM     11  C   UNL     1       1.228  10.685  19.155  0.00  0.00    +0.000 C 
ATOM     12  C   UNL     1      -0.106  11.138  18.548  0.00  0.00    +0.000 C 
ATOM     13  C   UNL     1      -1.302  10.628  19.351  0.00  0.00    +0.000 C 
ATOM     14  C   UNL     1      -1.210  11.027  20.821  0.00  0.00    +0.000 C 
ATOM     15  C   UNL     1       0.131  10.654  21.449  0.00  0.00    +0.000 C 
ATOM     16  C   UNL     1       1.313  11.162  20.615  0.00  0.00    +0.000 C 
ENDBRANCH   9  11
ENDBRANCH   5   7
BRANCH   1  17
ATOM     17  C   UNL     1       5.446   5.069  19.055  0.00  0.00    +0.000 C 
BRANCH  17  20
ATOM     18  C   UNL     1       6.673   5.141  15.688  0.00  0.00    +0.000 A 
ATOM     19  N   UNL     1       5.864   4.640  16.602  0.00  0.00    +0.000 NA
ATOM     20  C   UNL     1       6.147   5.363  17.755  0.00  0.00    +0.000 A 
ATOM     21  C   UNL     1       7.132   6.289  17.466  0.00  0.00    +0.000 A 
ATOM     22  C   UNL     1       7.857   7.341  18.194  0.00  0.00    +0.000 C 
ATOM     23  O   UNL     1       7.466   6.154  16.152  0.00  0.00    +0.000 OA
BRANCH  18  29
ATOM     24  C   UNL     1       5.310   2.410  11.724  0.00  0.00    +0.000 C 
ATOM     25  C   UNL     1       6.173   3.480  12.329  0.00  0.00    +0.000 A 
ATOM     26  C   UNL     1       7.094   4.182  11.544  0.00  0.00    +0.000 A 
ATOM     27  C   UNL     1       7.886   5.179  12.109  0.00  0.00    +0.000 A 
ATOM     28  C   UNL     1       7.754   5.490  13.463  0.00  0.00    +0.000 A 
ATOM     29  C   UNL     1       6.833   4.804  14.274  0.00  0.00    +0.000 A 
ATOM     30  C   UNL     1       6.051   3.796  13.693  0.00  0.00    +0.000 A 
ENDBRANCH  18  29
ENDBRANCH  17  20
ENDBRANCH   1  17
TORSDOF 5
ENDMDL
MODEL 3
REMARK VINA RESULT:      -8.2      1.166      1.558
REMARK  Name = 
REMARK  7 active torsions:
REMARK  status: ('A' for Active; 'I' for Inactive)
REMARK    1  A    between atoms: C_1  and  C_2
REMARK    2  A    between atoms: C_6  and  C_7
REMARK    3  A    between atoms: C_9  and  C_10
REMARK    4  A    between atoms: C_10  and  N_11
REMARK    5  A    between atoms: C_15  and  C_16
REMARK    6  A    between atoms: N_18  and  C_19
REMARK    7  A    between atoms: C_26  and  C_27
REMARK                            x       y       z     vdW  Elec       q    Type
REMARK                         _______ _______ _______ _____ _____    ______ ____
ROOT
ATOM      1  N   UNL     1       3.973   4.885  19.085  0.00  0.00    +0.000 NA
ATOM      2  C   UNL     1       3.332   3.778  19.787  0.00  0.00    +0.000 C 
ATOM      3  C   UNL     1       1.812   3.832  19.692  0.00  0.00    +0.000 C 
ATOM      4  C   UNL     1       1.289   5.128  20.287  0.00  0.00    +0.000 C 
ATOM      5  C   UNL     1       1.935   6.353  19.627  0.00  0.00    +0.000 C 
ATOM      6  C   UNL     1       3.455   6.223  19.403  0.00  0.00    +0.000 C 
ENDROOT
BRANCH   5   7
ATOM      7  C   UNL     1       1.680   7.599  20.475  0.00  0.00    +0.000 C 
ATOM      8  O   UNL     1       1.763   7.592  21.701  0.00  0.00    +0.000 OA
ATOM      9  N   UNL     1       1.363   8.716  19.732  0.00  0.00    +0.000 N 
ATOM     10  H   UNL     1       1.155   8.571  18.752  0.00  0.00    +0.000 HD
BRANCH   9  11
ATOM     11  C   UNL     1       1.029  10.030  20.265  0.00  0.00    +0.000 C 
ATOM     12  C   UNL     1       1.442  11.172  19.328  0.00  0.00    +0.000 C 
ATOM     13  C   UNL     1       0.683  11.128  18.003  0.00  0.00    +0.000 C 
ATOM     14  C   UNL     1      -0.829  11.118  18.215  0.00  0.00    +0.000 C 
ATOM     15  C   UNL     1      -1.278  10.037  19.196  0.00  0.00    +0.000 C 
ATOM     16  C   UNL     1      -0.488  10.093  20.509  0.00  0.00    +0.000 C 
ENDBRANCH   9  11
ENDBRANCH   5   7
BRANCH   1  17
ATOM     17  C   UNL     1       5.455   4.839  19.170  0.00  0.00    +0.000 C 
BRANCH  17  20
ATOM     18  C   UNL     1       6.691   5.030  15.811  0.00  0.00    +0.000 A 
ATOM     19  N   UNL     1       5.863   4.514  16.699  0.00  0.00    +0.000 NA
ATOM     20  C   UNL     1       6.169   5.170  17.886  0.00  0.00    +0.000 A 
ATOM     21  C   UNL     1       7.185   6.074  17.642  0.00  0.00    +0.000 A 
ATOM     22  C   UNL     1       7.944   7.065  18.420  0.00  0.00    +0.000 C 
ATOM     23  O   UNL     1       7.517   5.991  16.323  0.00  0.00    +0.000 OA
BRANCH  18  29
ATOM     24  C   UNL     1       5.325   2.453  11.746  0.00  0.00    +0.000 C 
ATOM     25  C   UNL     1       6.180   3.508  12.388  0.00  0.00    +0.000 A 
ATOM     26  C   UNL     1       7.085   4.254  11.626  0.00  0.00    +0.000 A 
ATOM     27  C   UNL     1       7.870   5.236  12.226  0.00  0.00    +0.000 A 
ATOM     28  C   UNL     1       7.747   5.487  13.594  0.00  0.00    +0.000 A 
ATOM     29  C   UNL     1       6.842   4.755  14.383  0.00  0.00    +0.000 A 
ATOM     30  C   UNL     1       6.067   3.763  13.765  0.00  0.00    +0.000 A 
ENDBRANCH  18  29
ENDBRANCH  17  20
ENDBRANCH   1  17
TORSDOF 5
ENDMDL
MODEL 4
REMARK VINA RESULT:      -8.1      4.143      7.104
REMARK  Name = 
REMARK  7 active torsions:
REMARK  status: ('A' for Active; 'I' for Inactive)
REMARK    1  A    between atoms: C_1  and  C_2
REMARK    2  A    between atoms: C_6  and  C_7
REMARK    3  A    between atoms: C_9  and  C_10
REMARK    4  A    between atoms: C_10  and  N_11
REMARK    5  A    between atoms: C_15  and  C_16
REMARK    6  A    between atoms: N_18  and  C_19
REMARK    7  A    between atoms: C_26  and  C_27
REMARK                            x       y       z     vdW  Elec       q    Type
REMARK                         _______ _______ _______ _____ _____    ______ ____
ROOT
ATOM      1  N   UNL     1       0.395  11.086  19.114  0.00  0.00    +0.000 NA
ATOM      2  C   UNL     1       0.549  12.500  19.441  0.00  0.00    +0.000 C 
ATOM      3  C   UNL     1      -0.621  13.040  20.253  0.00  0.00    +0.000 C 
ATOM      4  C   UNL     1      -1.921  12.877  19.484  0.00  0.00    +0.000 C 
ATOM      5  C   UNL     1      -2.152  11.418  19.069  0.00  0.00    +0.000 C 
ATOM      6  C   UNL     1      -0.896  10.708  18.524  0.00  0.00    +0.000 C 
ENDROOT
BRANCH   5   7
ATOM      7  C   UNL     1      -3.245  11.345  18.003  0.00  0.00    +0.000 C 
ATOM      8  O   UNL     1      -2.994  11.282  16.803  0.00  0.00    +0.000 OA
ATOM      9  N   UNL     1      -4.523  11.346  18.522  0.00  0.00    +0.000 N 
ATOM     10  H   UNL     1      -4.618  11.574  19.505  0.00  0.00    +0.000 HD
BRANCH   9  11
ATOM     11  C   UNL     1      -5.758  11.328  17.752  0.00  0.00    +0.000 C 
ATOM     12  C   UNL     1      -6.942  10.755  18.543  0.00  0.00    +0.000 C 
ATOM     13  C   UNL     1      -7.295  11.621  19.751  0.00  0.00    +0.000 C 
ATOM     14  C   UNL     1      -7.557  13.071  19.352  0.00  0.00    +0.000 C 
ATOM     15  C   UNL     1      -6.433  13.660  18.505  0.00  0.00    +0.000 C 
ATOM     16  C   UNL     1      -6.087  12.764  17.311  0.00  0.00    +0.000 C 
ENDBRANCH   9  11
ENDBRANCH   5   7
BRANCH   1  17
ATOM     17  C   UNL     1       1.533  10.551  18.325  0.00  0.00    +0.000 C 
BRANCH  17  20
ATOM     18  C   UNL     1       2.663   7.149  18.286  0.00  0.00    +0.000 A 
ATOM     19  N   UNL     1       2.541   8.323  17.695  0.00  0.00    +0.000 NA
ATOM     20  C   UNL     1       1.893   9.121  18.631  0.00  0.00    +0.000 A 
ATOM     21  C   UNL     1       1.658   8.369  19.767  0.00  0.00    +0.000 A 
ATOM     22  C   UNL     1       1.051   8.590  21.088  0.00  0.00    +0.000 C 
ATOM     23  O   UNL     1       2.150   7.116  19.553  0.00  0.00    +0.000 OA
BRANCH  18  29
ATOM     24  C   UNL     1       2.513   2.168  17.841  0.00  0.00    +0.000 C 
ATOM     25  C   UNL     1       3.208   3.474  17.584  0.00  0.00    +0.000 A 
ATOM     26  C   UNL     1       4.406   3.515  16.863  0.00  0.00    +0.000 A 
ATOM     27  C   UNL     1       5.042   4.731  16.622  0.00  0.00    +0.000 A 
ATOM     28  C   UNL     1       4.478   5.918  17.091  0.00  0.00    +0.000 A 
ATOM     29  C   UNL     1       3.272   5.907  17.814  0.00  0.00    +0.000 A 
ATOM     30  C   UNL     1       2.650   4.674  18.058  0.00  0.00    +0.000 A 
ENDBRANCH  18  29
ENDBRANCH  17  20
ENDBRANCH   1  17
TORSDOF 5
ENDMDL
MODEL 5
REMARK VINA RESULT:      -8.1      2.374      8.584
REMARK  Name = 
REMARK  7 active torsions:
REMARK  status: ('A' for Active; 'I' for Inactive)
REMARK    1  A    between atoms: C_1  and  C_2
REMARK    2  A    between atoms: C_6  and  C_7
REMARK    3  A    between atoms: C_9  and  C_10
REMARK    4  A    between atoms: C_10  and  N_11
REMARK    5  A    between atoms: C_15  and  C_16
REMARK    6  A    between atoms: N_18  and  C_19
REMARK    7  A    between atoms: C_26  and  C_27
REMARK                            x       y       z     vdW  Elec       q    Type
REMARK                         _______ _______ _______ _____ _____    ______ ____
ROOT
ATOM      1  N   UNL     1       2.392   4.456  20.229  0.00  0.00    +0.000 NA
ATOM      2  C   UNL     1       1.137   4.340  19.493  0.00  0.00    +0.000 C 
ATOM      3  C   UNL     1       1.107   3.118  18.584  0.00  0.00    +0.000 C 
ATOM      4  C   UNL     1       2.238   3.181  17.572  0.00  0.00    +0.000 C 
ATOM      5  C   UNL     1       3.602   3.336  18.259  0.00  0.00    +0.000 C 
ATOM      6  C   UNL     1       3.614   4.349  19.421  0.00  0.00    +0.000 C 
ENDROOT
BRANCH   5   7
ATOM      7  C   UNL     1       4.655   3.764  17.238  0.00  0.00    +0.000 C 
ATOM      8  O   UNL     1       4.416   3.845  16.036  0.00  0.00    +0.000 OA
ATOM      9  N   UNL     1       5.881   4.055  17.799  0.00  0.00    +0.000 N 
ATOM     10  H   UNL     1       6.015   3.791  18.768  0.00  0.00    +0.000 HD
BRANCH   9  11
ATOM     11  C   UNL     1       7.082   4.447  17.074  0.00  0.00    +0.000 C 
ATOM     12  C   UNL     1       6.911   5.768  16.314  0.00  0.00    +0.000 C 
ATOM     13  C   UNL     1       6.673   6.945  17.259  0.00  0.00    +0.000 C 
ATOM     14  C   UNL     1       7.774   7.060  18.311  0.00  0.00    +0.000 C 
ATOM     15  C   UNL     1       8.024   5.745  19.046  0.00  0.00    +0.000 C 
ATOM     16  C   UNL     1       8.242   4.580  18.075  0.00  0.00    +0.000 C 
ENDBRANCH   9  11
ENDBRANCH   5   7
BRANCH   1  17
ATOM     17  C   UNL     1       2.428   5.643  21.120  0.00  0.00    +0.000 C 
BRANCH  17  20
ATOM     18  C   UNL     1       0.830   8.737  20.267  0.00  0.00    +0.000 A 
ATOM     19  N   UNL     1       1.032   7.748  21.117  0.00  0.00    +0.000 NA
ATOM     20  C   UNL     1       1.953   6.923  20.482  0.00  0.00    +0.000 A 
ATOM     21  C   UNL     1       2.270   7.475  19.255  0.00  0.00    +0.000 A 
ATOM     22  C   UNL     1       3.156   7.141  18.129  0.00  0.00    +0.000 C 
ATOM     23  O   UNL     1       1.562   8.631  19.116  0.00  0.00    +0.000 OA
BRANCH  18  29
ATOM     24  C   UNL     1      -1.407  12.200  23.100  0.00  0.00    +0.000 C 
ATOM     25  C   UNL     1      -1.114  11.622  21.745  0.00  0.00    +0.000 A 
ATOM     26  C   UNL     1      -1.613  12.229  20.588  0.00  0.00    +0.000 A 
ATOM     27  C   UNL     1      -1.331  11.693  19.334  0.00  0.00    +0.000 A 
ATOM     28  C   UNL     1      -0.539  10.549  19.227  0.00  0.00    +0.000 A 
ATOM     29  C   UNL     1      -0.021   9.921  20.373  0.00  0.00    +0.000 A 
ATOM     30  C   UNL     1      -0.322  10.467  21.629  0.00  0.00    +0.000 A 
ENDBRANCH  18  29
ENDBRANCH  17  20
ENDBRANCH   1  17
TORSDOF 5
ENDMDL
MODEL 6
REMARK VINA RESULT:      -8.0      3.551      6.730
REMARK  Name = 
REMARK  7 active torsions:
REMARK  status: ('A' for Active; 'I' for Inactive)
REMARK    1  A    between atoms: C_1  and  C_2
REMARK    2  A    between atoms: C_6  and  C_7
REMARK    3  A    between atoms: C_9  and  C_10
REMARK    4  A    between atoms: C_10  and  N_11
REMARK    5  A    between atoms: C_15  and  C_16
REMARK    6  A    between atoms: N_18  and  C_19
REMARK    7  A    between atoms: C_26  and  C_27
REMARK                            x       y       z     vdW  Elec       q    Type
REMARK                         _______ _______ _______ _____ _____    ______ ____
ROOT
ATOM      1  N   UNL     1      -0.392  11.055  18.209  0.00  0.00    +0.000 NA
ATOM      2  C   UNL     1      -0.877   9.759  17.746  0.00  0.00    +0.000 C 
ATOM      3  C   UNL     1      -2.189   9.869  16.979  0.00  0.00    +0.000 C 
ATOM      4  C   UNL     1      -3.266  10.485  17.854  0.00  0.00    +0.000 C 
ATOM      5  C   UNL     1      -2.828  11.845  18.414  0.00  0.00    +0.000 C 
ATOM      6  C   UNL     1      -1.373  11.881  18.925  0.00  0.00    +0.000 C 
ENDROOT
BRANCH   5   7
ATOM      7  C   UNL     1      -3.749  12.259  19.561  0.00  0.00    +0.000 C 
ATOM      8  O   UNL     1      -4.973  12.224  19.471  0.00  0.00    +0.000 OA
ATOM      9  N   UNL     1      -3.073  12.659  20.695  0.00  0.00    +0.000 N 
ATOM     10  H   UNL     1      -2.076  12.812  20.603  0.00  0.00    +0.000 HD
BRANCH   9  11
ATOM     11  C   UNL     1      -3.681  13.146  21.926  0.00  0.00    +0.000 C 
ATOM     12  C   UNL     1      -3.248  12.342  23.159  0.00  0.00    +0.000 C 
ATOM     13  C   UNL     1      -1.750  12.474  23.431  0.00  0.00    +0.000 C 
ATOM     14  C   UNL     1      -1.323  13.935  23.556  0.00  0.00    +0.000 C 
ATOM     15  C   UNL     1      -1.793  14.787  22.379  0.00  0.00    +0.000 C 
ATOM     16  C   UNL     1      -3.294  14.622  22.117  0.00  0.00    +0.000 C 
ENDBRANCH   9  11
ENDBRANCH   5   7
BRANCH   1  17
ATOM     17  C   UNL     1       0.888  10.956  18.955  0.00  0.00    +0.000 C 
BRANCH  17  20
ATOM     18  C   UNL     1       2.347   7.700  18.607  0.00  0.00    +0.000 A 
ATOM     19  N   UNL     1       2.078   8.894  18.113  0.00  0.00    +0.000 NA
ATOM     20  C   UNL     1       1.404   9.553  19.135  0.00  0.00    +0.000 A 
ATOM     21  C   UNL     1       1.305   8.702  20.220  0.00  0.00    +0.000 A 
ATOM     22  C   UNL     1       0.750   8.764  21.580  0.00  0.00    +0.000 C 
ATOM     23  O   UNL     1       1.907   7.525  19.890  0.00  0.00    +0.000 OA
BRANCH  18  29
ATOM     24  C   UNL     1       2.542   2.810  17.572  0.00  0.00    +0.000 C 
ATOM     25  C   UNL     1       3.156   4.178  17.497  0.00  0.00    +0.000 A 
ATOM     26  C   UNL     1       4.369   4.380  16.831  0.00  0.00    +0.000 A 
ATOM     27  C   UNL     1       4.929   5.653  16.758  0.00  0.00    +0.000 A 
ATOM     28  C   UNL     1       4.274   6.738  17.343  0.00  0.00    +0.000 A 
ATOM     29  C   UNL     1       3.051   6.564  18.014  0.00  0.00    +0.000 A 
ATOM     30  C   UNL     1       2.505   5.275  18.088  0.00  0.00    +0.000 A 
ENDBRANCH  18  29
ENDBRANCH  17  20
ENDBRANCH   1  17
TORSDOF 5
ENDMDL
MODEL 7
REMARK VINA RESULT:      -8.0      2.355      8.381
REMARK  Name = 
REMARK  7 active torsions:
REMARK  status: ('A' for Active; 'I' for Inactive)
REMARK    1  A    between atoms: C_1  and  C_2
REMARK    2  A    between atoms: C_6  and  C_7
REMARK    3  A    between atoms: C_9  and  C_10
REMARK    4  A    between atoms: C_10  and  N_11
REMARK    5  A    between atoms: C_15  and  C_16
REMARK    6  A    between atoms: N_18  and  C_19
REMARK    7  A    between atoms: C_26  and  C_27
REMARK                            x       y       z     vdW  Elec       q    Type
REMARK                         _______ _______ _______ _____ _____    ______ ____
ROOT
ATOM      1  N   UNL     1       2.429   4.429  20.033  0.00  0.00    +0.000 NA
ATOM      2  C   UNL     1       1.198   4.407  19.249  0.00  0.00    +0.000 C 
ATOM      3  C   UNL     1       1.136   3.221  18.295  0.00  0.00    +0.000 C 
ATOM      4  C   UNL     1       2.305   3.257  17.327  0.00  0.00    +0.000 C 
ATOM      5  C   UNL     1       3.649   3.313  18.066  0.00  0.00    +0.000 C 
ATOM      6  C   UNL     1       3.673   4.283  19.265  0.00  0.00    +0.000 C 
ENDROOT
BRANCH   5   7
ATOM      7  C   UNL     1       4.761   3.717  17.099  0.00  0.00    +0.000 C 
ATOM      8  O   UNL     1       4.614   3.702  15.880  0.00  0.00    +0.000 OA
ATOM      9  N   UNL     1       5.925   4.105  17.729  0.00  0.00    +0.000 N 
ATOM     10  H   UNL     1       5.994   3.916  18.722  0.00  0.00    +0.000 HD
BRANCH   9  11
ATOM     11  C   UNL     1       7.162   4.501  17.070  0.00  0.00    +0.000 C 
ATOM     12  C   UNL     1       7.039   5.841  16.333  0.00  0.00    +0.000 C 
ATOM     13  C   UNL     1       6.767   6.998  17.294  0.00  0.00    +0.000 C 
ATOM     14  C   UNL     1       7.819   7.078  18.398  0.00  0.00    +0.000 C 
ATOM     15  C   UNL     1       8.022   5.745  19.113  0.00  0.00    +0.000 C 
ATOM     16  C   UNL     1       8.275   4.600  18.127  0.00  0.00    +0.000 C 
ENDBRANCH   9  11
ENDBRANCH   5   7
BRANCH   1  17
ATOM     17  C   UNL     1       2.495   5.581  20.967  0.00  0.00    +0.000 C 
BRANCH  17  20
ATOM     18  C   UNL     1       1.079   8.790  20.230  0.00  0.00    +0.000 A 
ATOM     19  N   UNL     1       1.249   7.775  21.056  0.00  0.00    +0.000 NA
ATOM     20  C   UNL     1       2.082   6.900  20.369  0.00  0.00    +0.000 A 
ATOM     21  C   UNL     1       2.383   7.450  19.137  0.00  0.00    +0.000 A 
ATOM     22  C   UNL     1       3.193   7.076  17.968  0.00  0.00    +0.000 C 
ATOM     23  O   UNL     1       1.751   8.654  19.046  0.00  0.00    +0.000 OA
BRANCH  18  29
ATOM     24  C   UNL     1      -0.651  13.071  18.305  0.00  0.00    +0.000 C 
ATOM     25  C   UNL     1      -0.539  12.119  19.460  0.00  0.00    +0.000 A 
ATOM     26  C   UNL     1      -1.190  12.385  20.669  0.00  0.00    +0.000 A 
ATOM     27  C   UNL     1      -1.089  11.494  21.735  0.00  0.00    +0.000 A 
ATOM     28  C   UNL     1      -0.343  10.323  21.596  0.00  0.00    +0.000 A 
ATOM     29  C   UNL     1       0.317  10.028  20.391  0.00  0.00    +0.000 A 
ATOM     30  C   UNL     1       0.214  10.940  19.331  0.00  0.00    +0.000 A 
ENDBRANCH  18  29
ENDBRANCH  17  20
ENDBRANCH   1  17
TORSDOF 5
ENDMDL
MODEL 8
REMARK VINA RESULT:      -7.9      2.666      4.834
REMARK  Name = 
REMARK  7 active torsions:
REMARK  status: ('A' for Active; 'I' for Inactive)
REMARK    1  A    between atoms: C_1  and  C_2
REMARK    2  A    between atoms: C_6  and  C_7
REMARK    3  A    between atoms: C_9  and  C_10
REMARK    4  A    between atoms: C_10  and  N_11
REMARK    5  A    between atoms: C_15  and  C_16
REMARK    6  A    between atoms: N_18  and  C_19
REMARK    7  A    between atoms: C_26  and  C_27
REMARK                            x       y       z     vdW  Elec       q    Type
REMARK                         _______ _______ _______ _____ _____    ______ ____
ROOT
ATOM      1  N   UNL     1       1.645   7.799  20.601  0.00  0.00    +0.000 NA
ATOM      2  C   UNL     1       1.193   8.204  19.274  0.00  0.00    +0.000 C 
ATOM      3  C   UNL     1       1.368   9.697  19.030  0.00  0.00    +0.000 C 
ATOM      4  C   UNL     1       0.585  10.498  20.054  0.00  0.00    +0.000 C 
ATOM      5  C   UNL     1       0.974  10.115  21.488  0.00  0.00    +0.000 C 
ATOM      6  C   UNL     1       1.126   8.598  21.719  0.00  0.00    +0.000 C 
ENDROOT
BRANCH   5   7
ATOM      7  C   UNL     1      -0.066  10.648  22.473  0.00  0.00    +0.000 C 
ATOM      8  O   UNL     1      -0.431  10.012  23.458  0.00  0.00    +0.000 OA
ATOM      9  N   UNL     1      -0.537  11.904  22.151  0.00  0.00    +0.000 N 
ATOM     10  H   UNL     1      -0.300  12.261  21.233  0.00  0.00    +0.000 HD
BRANCH   9  11
ATOM     11  C   UNL     1      -1.560  12.645  22.877  0.00  0.00    +0.000 C 
ATOM     12  C   UNL     1      -1.208  14.129  23.045  0.00  0.00    +0.000 C 
ATOM     13  C   UNL     1      -1.135  14.855  21.702  0.00  0.00    +0.000 C 
ATOM     14  C   UNL     1      -2.420  14.688  20.895  0.00  0.00    +0.000 C 
ATOM     15  C   UNL     1      -2.844  13.227  20.761  0.00  0.00    +0.000 C 
ATOM     16  C   UNL     1      -2.892  12.519  22.119  0.00  0.00    +0.000 C 
ENDBRANCH   9  11
ENDBRANCH   5   7
BRANCH   1  17
ATOM     17  C   UNL     1       1.479   6.344  20.845  0.00  0.00    +0.000 C 
BRANCH  17  20
ATOM     18  C   UNL     1       3.825   4.873  18.567  0.00  0.00    +0.000 A 
ATOM     19  N   UNL     1       3.455   5.874  19.344  0.00  0.00    +0.000 NA
ATOM     20  C   UNL     1       2.254   5.457  19.906  0.00  0.00    +0.000 A 
ATOM     21  C   UNL     1       1.960   4.192  19.432  0.00  0.00    +0.000 A 
ATOM     22  C   UNL     1       0.891   3.200  19.625  0.00  0.00    +0.000 C 
ATOM     23  O   UNL     1       2.957   3.816  18.583  0.00  0.00    +0.000 OA
BRANCH  18  29
ATOM     24  C   UNL     1       5.834   4.098  14.052  0.00  0.00    +0.000 C 
ATOM     25  C   UNL     1       6.003   4.341  15.524  0.00  0.00    +0.000 A 
ATOM     26  C   UNL     1       7.279   4.455  16.086  0.00  0.00    +0.000 A 
ATOM     27  C   UNL     1       7.430   4.687  17.451  0.00  0.00    +0.000 A 
ATOM     28  C   UNL     1       6.303   4.818  18.264  0.00  0.00    +0.000 A 
ATOM     29  C   UNL     1       5.009   4.713  17.725  0.00  0.00    +0.000 A 
ATOM     30  C   UNL     1       4.875   4.468  16.351  0.00  0.00    +0.000 A 
ENDBRANCH  18  29
ENDBRANCH  17  20
ENDBRANCH   1  17
TORSDOF 5
ENDMDL
MODEL 9
REMARK VINA RESULT:      -7.8      2.528      8.339
REMARK  Name = 
REMARK  7 active torsions:
REMARK  status: ('A' for Active; 'I' for Inactive)
REMARK    1  A    between atoms: C_1  and  C_2
REMARK    2  A    between atoms: C_6  and  C_7
REMARK    3  A    between atoms: C_9  and  C_10
REMARK    4  A    between atoms: C_10  and  N_11
REMARK    5  A    between atoms: C_15  and  C_16
REMARK    6  A    between atoms: N_18  and  C_19
REMARK    7  A    between atoms: C_26  and  C_27
REMARK                            x       y       z     vdW  Elec       q    Type
REMARK                         _______ _______ _______ _____ _____    ______ ____
ROOT
ATOM      1  N   UNL     1       2.336   5.044  20.525  0.00  0.00    +0.000 NA
ATOM      2  C   UNL     1       1.032   4.804  19.915  0.00  0.00    +0.000 C 
ATOM      3  C   UNL     1       0.911   3.400  19.334  0.00  0.00    +0.000 C 
ATOM      4  C   UNL     1       1.973   3.172  18.272  0.00  0.00    +0.000 C 
ATOM      5  C   UNL     1       3.383   3.433  18.819  0.00  0.00    +0.000 C 
ATOM      6  C   UNL     1       3.498   4.696  19.696  0.00  0.00    +0.000 C 
ENDROOT
BRANCH   5   7
ATOM      7  C   UNL     1       4.376   3.559  17.664  0.00  0.00    +0.000 C 
ATOM      8  O   UNL     1       4.158   3.088  16.551  0.00  0.00    +0.000 OA
ATOM      9  N   UNL     1       5.520   4.256  17.994  0.00  0.00    +0.000 N 
ATOM     10  H   UNL     1       5.672   4.448  18.977  0.00  0.00    +0.000 HD
BRANCH   9  11
ATOM     11  C   UNL     1       6.657   4.497  17.116  0.00  0.00    +0.000 C 
ATOM     12  C   UNL     1       6.523   5.801  16.318  0.00  0.00    +0.000 C 
ATOM     13  C   UNL     1       6.515   7.029  17.227  0.00  0.00    +0.000 C 
ATOM     14  C   UNL     1       7.741   7.070  18.137  0.00  0.00    +0.000 C 
ATOM     15  C   UNL     1       7.950   5.765  18.900  0.00  0.00    +0.000 C 
ATOM     16  C   UNL     1       7.936   4.549  17.967  0.00  0.00    +0.000 C 
ENDBRANCH   9  11
ENDBRANCH   5   7
BRANCH   1  17
ATOM     17  C   UNL     1       2.460   6.409  21.096  0.00  0.00    +0.000 C 
BRANCH  17  20
ATOM     18  C   UNL     1       0.576   9.128  19.714  0.00  0.00    +0.000 A 
ATOM     19  N   UNL     1       0.860   8.327  20.724  0.00  0.00    +0.000 NA
ATOM     20  C   UNL     1       1.871   7.503  20.244  0.00  0.00    +0.000 A 
ATOM     21  C   UNL     1       2.154   7.864  18.940  0.00  0.00    +0.000 A 
ATOM     22  C   UNL     1       3.089   7.432  17.890  0.00  0.00    +0.000 C 
ATOM     23  O   UNL     1       1.336   8.899  18.601  0.00  0.00    +0.000 OA
BRANCH  18  29
ATOM     24  C   UNL     1      -3.136  11.382  17.230  0.00  0.00    +0.000 C 
ATOM     25  C   UNL     1      -2.210  11.327  18.411  0.00  0.00    +0.000 A 
ATOM     26  C   UNL     1      -2.294  12.283  19.429  0.00  0.00    +0.000 A 
ATOM     27  C   UNL     1      -1.437  12.222  20.525  0.00  0.00    +0.000 A 
ATOM     28  C   UNL     1      -0.495  11.196  20.617  0.00  0.00    +0.000 A 
ATOM     29  C   UNL     1      -0.392  10.219  19.612  0.00  0.00    +0.000 A 
ATOM     30  C   UNL     1      -1.254  10.301  18.509  0.00  0.00    +0.000 A 
ENDBRANCH  18  29
ENDBRANCH  17  20
ENDBRANCH   1  17
TORSDOF 5
ENDMDL
