MODEL 1
REMARK VINA RESULT:      -8.8      0.000      0.000
REMARK  Name = 
REMARK  4 active torsions:
REMARK  status: ('A' for Active; 'I' for Inactive)
REMARK    1  A    between atoms: CB_1  and  CA_2
REMARK    2  A    between atoms: C_17  and  C_18
REMARK    3  A    between atoms: C_18  and  C_19
REMARK    4  A    between atoms: C_18  and  C_20
REMARK                            x       y       z     vdW  Elec       q    Type
REMARK                         _______ _______ _______ _____ _____    ______ ____
ROOT
ATOM      1  CB  ALA A   1       3.758   2.308  20.546  0.00  0.00    +0.000 C 
ATOM      2  CA  ALA A   1       3.555   3.624  19.803  0.00  0.00    +0.000 C 
ATOM      3  N   ALA A   1       2.416   3.521  18.911  0.00  0.00    +0.000 N 
ATOM      4  C   UNK A   2       2.242   4.443  17.911  0.00  0.00    +0.000 C 
ATOM      5  O   UNK A   2       1.127   4.622  17.428  0.00  0.00    +0.000 OA
ATOM      6  C   UNK A   2       3.530   4.973  17.278  0.00  0.00    +0.000 C 
ATOM      7  C   UNK A   2       3.924   4.028  16.116  0.00  0.00    +0.000 C 
ATOM      8  C   UNK A   2       5.215   4.502  15.535  0.00  0.00    +0.000 A 
ATOM      9  C   UNK A   2       6.065   5.346  16.239  0.00  0.00    +0.000 A 
ATOM     10  N   UNK A   2       7.045   5.723  15.359  0.00  0.00    +0.000 N 
ATOM     11  C   UNK A   2       6.952   5.008  14.186  0.00  0.00    +0.000 A 
ATOM     12  C   UNK A   2       7.792   5.008  13.066  0.00  0.00    +0.000 A 
ATOM     13  C   UNK A   2       7.437   4.187  11.994  0.00  0.00    +0.000 A 
ATOM     14  C   UNK A   2       6.276   3.416  12.034  0.00  0.00    +0.000 A 
ATOM     15  C   UNK A   2       5.440   3.439  13.158  0.00  0.00    +0.000 A 
ATOM     16  C   UNK A   2       5.796   4.240  14.264  0.00  0.00    +0.000 A 
ATOM     17  C   UNK A   2       5.845   5.898  17.638  0.00  0.00    +0.000 C 
ATOM     18  N   UNK A   2       4.679   5.137  18.213  0.00  0.00    +0.000 N 
ATOM     19  C   ALA A   1       4.864   4.053  19.094  0.00  0.00    +0.000 C 
ATOM     20  O   ALA A   1       5.952   3.638  19.480  0.00  0.00    +0.000 OA
ATOM     21  H   ALA A   1       1.535   3.213  19.307  0.00  0.00    +0.000 HD
ATOM     22  H   UNK A   2       7.748   6.430  15.513  0.00  0.00    +0.000 HD
ENDROOT
BRANCH  17  23
ATOM     23  C   UNK A   2       7.113   5.992  18.549  0.00  0.00    +0.000 C 
ATOM     24  C   UNK A   2       8.149   4.873  18.353  0.00  0.00    +0.000 C 
ATOM     25  C   UNK A   2       7.866   7.319  18.333  0.00  0.00    +0.000 C 
ENDBRANCH  17  23
TORSDOF 1
ENDMDL
MODEL 2
REMARK VINA RESULT:      -7.4      3.354      5.905
REMARK  Name = 
REMARK  4 active torsions:
REMARK  status: ('A' for Active; 'I' for Inactive)
REMARK    1  A    between atoms: CB_1  and  CA_2
REMARK    2  A    between atoms: C_17  and  C_18
REMARK    3  A    between atoms: C_18  and  C_19
REMARK    4  A    between atoms: C_18  and  C_20
REMARK                            x       y       z     vdW  Elec       q    Type
REMARK                         _______ _______ _______ _____ _____    ______ ____
ROOT
ATOM      1  CB  ALA A   1       1.033   1.392  18.554  0.00  0.00    +0.000 C 
ATOM      2  CA  ALA A   1       2.143   2.215  19.197  0.00  0.00    +0.000 C 
ATOM      3  N   ALA A   1       1.784   2.556  20.560  0.00  0.00    +0.000 N 
ATOM      4  C   UNK A   2       2.457   3.553  21.218  0.00  0.00    +0.000 C 
ATOM      5  O   UNK A   2       2.461   3.584  22.445  0.00  0.00    +0.000 OA
ATOM      6  C   UNK A   2       2.913   4.723  20.343  0.00  0.00    +0.000 C 
ATOM      7  C   UNK A   2       1.765   5.760  20.283  0.00  0.00    +0.000 C 
ATOM      8  C   UNK A   2       2.177   6.874  19.379  0.00  0.00    +0.000 A 
ATOM      9  C   UNK A   2       3.201   6.720  18.453  0.00  0.00    +0.000 A 
ATOM     10  N   UNK A   2       3.437   7.964  17.931  0.00  0.00    +0.000 N 
ATOM     11  C   UNK A   2       2.482   8.861  18.354  0.00  0.00    +0.000 A 
ATOM     12  C   UNK A   2       2.290  10.202  17.999  0.00  0.00    +0.000 A 
ATOM     13  C   UNK A   2       1.238  10.887  18.611  0.00  0.00    +0.000 A 
ATOM     14  C   UNK A   2       0.427  10.260  19.556  0.00  0.00    +0.000 A 
ATOM     15  C   UNK A   2       0.642   8.922  19.909  0.00  0.00    +0.000 A 
ATOM     16  C   UNK A   2       1.682   8.203  19.281  0.00  0.00    +0.000 A 
ATOM     17  C   UNK A   2       4.028   5.467  18.212  0.00  0.00    +0.000 C 
ATOM     18  N   UNK A   2       3.341   4.358  18.963  0.00  0.00    +0.000 N 
ATOM     19  C   ALA A   1       2.486   3.443  18.317  0.00  0.00    +0.000 C 
ATOM     20  O   ALA A   1       2.228   3.448  17.118  0.00  0.00    +0.000 OA
ATOM     21  H   ALA A   1       1.517   1.799  21.179  0.00  0.00    +0.000 HD
ATOM     22  H   UNK A   2       4.201   8.225  17.326  0.00  0.00    +0.000 HD
ENDROOT
BRANCH  17  23
ATOM     23  C   UNK A   2       4.391   5.157  16.721  0.00  0.00    +0.000 C 
ATOM     24  C   UNK A   2       4.959   6.342  15.923  0.00  0.00    +0.000 C 
ATOM     25  C   UNK A   2       5.433   4.028  16.617  0.00  0.00    +0.000 C 
ENDBRANCH  17  23
TORSDOF 1
ENDMDL
MODEL 3
REMARK VINA RESULT:      -7.2      3.261      6.839
REMARK  Name = 
REMARK  4 active torsions:
REMARK  status: ('A' for Active; 'I' for Inactive)
REMARK    1  A    between atoms: CB_1  and  CA_2
REMARK    2  A    between atoms: C_17  and  C_18
REMARK    3  A    between atoms: C_18  and  C_19
REMARK    4  A    between atoms: C_18  and  C_20
REMARK                            x       y       z     vdW  Elec       q    Type
REMARK                         _______ _______ _______ _____ _____    ______ ____
ROOT
ATOM      1  CB  ALA A   1       7.982   5.327  18.367  0.00  0.00    +0.000 C 
ATOM      2  CA  ALA A   1       6.615   5.085  17.737  0.00  0.00    +0.000 C 
ATOM      3  N   ALA A   1       6.323   6.125  16.768  0.00  0.00    +0.000 N 
ATOM      4  C   UNK A   2       5.038   6.307  16.325  0.00  0.00    +0.000 C 
ATOM      5  O   UNK A   2       4.833   6.868  15.252  0.00  0.00    +0.000 OA
ATOM      6  C   UNK A   2       3.944   6.047  17.362  0.00  0.00    +0.000 C 
ATOM      7  C   UNK A   2       3.690   7.360  18.141  0.00  0.00    +0.000 C 
ATOM      8  C   UNK A   2       2.670   7.098  19.198  0.00  0.00    +0.000 A 
ATOM      9  C   UNK A   2       2.392   5.809  19.637  0.00  0.00    +0.000 A 
ATOM     10  N   UNK A   2       1.300   5.911  20.459  0.00  0.00    +0.000 N 
ATOM     11  C   UNK A   2       0.993   7.232  20.702  0.00  0.00    +0.000 A 
ATOM     12  C   UNK A   2       0.022   7.787  21.545  0.00  0.00    +0.000 A 
ATOM     13  C   UNK A   2      -0.083   9.179  21.578  0.00  0.00    +0.000 A 
ATOM     14  C   UNK A   2       0.733   9.979  20.781  0.00  0.00    +0.000 A 
ATOM     15  C   UNK A   2       1.690   9.406  19.933  0.00  0.00    +0.000 A 
ATOM     16  C   UNK A   2       1.833   8.002  19.906  0.00  0.00    +0.000 A 
ATOM     17  C   UNK A   2       3.039   4.523  19.151  0.00  0.00    +0.000 C 
ATOM     18  N   UNK A   2       4.222   4.936  18.316  0.00  0.00    +0.000 N 
ATOM     19  C   ALA A   1       5.532   4.936  18.836  0.00  0.00    +0.000 C 
ATOM     20  O   ALA A   1       5.836   4.603  19.976  0.00  0.00    +0.000 OA
ATOM     21  H   ALA A   1       7.008   6.294  16.041  0.00  0.00    +0.000 HD
ATOM     22  H   UNK A   2       0.766   5.147  20.844  0.00  0.00    +0.000 HD
ENDROOT
BRANCH  17  23
ATOM     23  C   UNK A   2       3.321   3.437  20.243  0.00  0.00    +0.000 C 
ATOM     24  C   UNK A   2       2.209   3.250  21.287  0.00  0.00    +0.000 C 
ATOM     25  C   UNK A   2       3.558   2.051  19.613  0.00  0.00    +0.000 C 
ENDBRANCH  17  23
TORSDOF 1
ENDMDL
MODEL 4
REMARK VINA RESULT:      -7.0      3.175      6.213
REMARK  Name = 
REMARK  4 active torsions:
REMARK  status: ('A' for Active; 'I' for Inactive)
REMARK    1  A    between atoms: CB_1  and  CA_2
REMARK    2  A    between atoms: C_17  and  C_18
REMARK    3  A    between atoms: C_18  and  C_19
REMARK    4  A    between atoms: C_18  and  C_20
REMARK                            x       y       z     vdW  Elec       q    Type
REMARK                         _______ _______ _______ _____ _____    ______ ____
ROOT
ATOM      1  CB  ALA A   1       8.235   4.707  18.210  0.00  0.00    +0.000 C 
ATOM      2  CA  ALA A   1       6.853   4.424  17.630  0.00  0.00    +0.000 C 
ATOM      3  N   ALA A   1       6.711   5.076  16.342  0.00  0.00    +0.000 N 
ATOM      4  C   UNK A   2       5.466   5.241  15.792  0.00  0.00    +0.000 C 
ATOM      5  O   UNK A   2       5.348   5.403  14.580  0.00  0.00    +0.000 OA
ATOM      6  C   UNK A   2       4.337   5.502  16.791  0.00  0.00    +0.000 C 
ATOM      7  C   UNK A   2       4.252   7.027  17.041  0.00  0.00    +0.000 C 
ATOM      8  C   UNK A   2       3.196   7.284  18.064  0.00  0.00    +0.000 A 
ATOM      9  C   UNK A   2       2.745   6.280  18.913  0.00  0.00    +0.000 A 
ATOM     10  N   UNK A   2       1.669   6.800  19.583  0.00  0.00    +0.000 N 
ATOM     11  C   UNK A   2       1.537   8.147  19.327  0.00  0.00    +0.000 A 
ATOM     12  C   UNK A   2       0.640   9.078  19.864  0.00  0.00    +0.000 A 
ATOM     13  C   UNK A   2       0.719  10.392  19.398  0.00  0.00    +0.000 A 
ATOM     14  C   UNK A   2       1.643  10.751  18.417  0.00  0.00    +0.000 A 
ATOM     15  C   UNK A   2       2.523   9.803  17.881  0.00  0.00    +0.000 A 
ATOM     16  C   UNK A   2       2.479   8.475  18.359  0.00  0.00    +0.000 A 
ATOM     17  C   UNK A   2       3.221   4.837  18.948  0.00  0.00    +0.000 C 
ATOM     18  N   UNK A   2       4.457   4.780  18.089  0.00  0.00    +0.000 N 
ATOM     19  C   ALA A   1       5.750   4.808  18.648  0.00  0.00    +0.000 C 
ATOM     20  O   ALA A   1       5.996   4.869  19.848  0.00  0.00    +0.000 OA
ATOM     21  H   ALA A   1       7.420   4.891  15.642  0.00  0.00    +0.000 HD
ATOM     22  H   UNK A   2       1.035   6.294  20.181  0.00  0.00    +0.000 HD
ENDROOT
BRANCH  17  23
ATOM     23  C   UNK A   2       3.346   4.187  20.366  0.00  0.00    +0.000 C 
ATOM     24  C   UNK A   2       2.188   4.486  21.332  0.00  0.00    +0.000 C 
ATOM     25  C   UNK A   2       3.447   2.653  20.277  0.00  0.00    +0.000 C 
ENDBRANCH  17  23
TORSDOF 1
ENDMDL
MODEL 5
REMARK VINA RESULT:      -7.0     11.256     13.212
REMARK  Name = 
REMARK  4 active torsions:
REMARK  status: ('A' for Active; 'I' for Inactive)
REMARK    1  A    between atoms: CB_1  and  CA_2
REMARK    2  A    between atoms: C_17  and  C_18
REMARK    3  A    between atoms: C_18  and  C_19
REMARK    4  A    between atoms: C_18  and  C_20
REMARK                            x       y       z     vdW  Elec       q    Type
REMARK                         _______ _______ _______ _____ _____    ______ ____
ROOT
ATOM      1  CB  ALA A   1      -7.819  13.012  23.605  0.00  0.00    +0.000 C 
ATOM      2  CA  ALA A   1      -6.837  13.903  22.852  0.00  0.00    +0.000 C 
ATOM      3  N   ALA A   1      -7.419  14.333  21.594  0.00  0.00    +0.000 N 
ATOM      4  C   UNK A   2      -6.618  14.855  20.612  0.00  0.00    +0.000 C 
ATOM      5  O   UNK A   2      -7.103  15.577  19.745  0.00  0.00    +0.000 OA
ATOM      6  C   UNK A   2      -5.217  14.248  20.516  0.00  0.00    +0.000 C 
ATOM      7  C   UNK A   2      -5.285  13.016  19.582  0.00  0.00    +0.000 C 
ATOM      8  C   UNK A   2      -3.936  12.379  19.535  0.00  0.00    +0.000 A 
ATOM      9  C   UNK A   2      -2.981  12.622  20.515  0.00  0.00    +0.000 A 
ATOM     10  N   UNK A   2      -1.822  12.039  20.075  0.00  0.00    +0.000 N 
ATOM     11  C   UNK A   2      -2.053  11.282  18.948  0.00  0.00    +0.000 A 
ATOM     12  C   UNK A   2      -1.181  10.457  18.227  0.00  0.00    +0.000 A 
ATOM     13  C   UNK A   2      -1.687   9.818  17.093  0.00  0.00    +0.000 A 
ATOM     14  C   UNK A   2      -3.004  10.018  16.685  0.00  0.00    +0.000 A 
ATOM     15  C   UNK A   2      -3.859  10.859  17.410  0.00  0.00    +0.000 A 
ATOM     16  C   UNK A   2      -3.376  11.492  18.576  0.00  0.00    +0.000 A 
ATOM     17  C   UNK A   2      -3.136  13.519  21.732  0.00  0.00    +0.000 C 
ATOM     18  N   UNK A   2      -4.599  13.865  21.818  0.00  0.00    +0.000 N 
ATOM     19  C   ALA A   1      -5.471  13.190  22.694  0.00  0.00    +0.000 C 
ATOM     20  O   ALA A   1      -5.141  12.289  23.458  0.00  0.00    +0.000 OA
ATOM     21  H   ALA A   1      -8.329  14.778  21.626  0.00  0.00    +0.000 HD
ATOM     22  H   UNK A   2      -0.908  12.136  20.489  0.00  0.00    +0.000 HD
ENDROOT
BRANCH  17  23
ATOM     23  C   UNK A   2      -2.479  13.004  23.056  0.00  0.00    +0.000 C 
ATOM     24  C   UNK A   2      -1.841  11.608  22.974  0.00  0.00    +0.000 C 
ATOM     25  C   UNK A   2      -1.371  13.957  23.545  0.00  0.00    +0.000 C 
ENDBRANCH  17  23
TORSDOF 1
ENDMDL
MODEL 6
REMARK VINA RESULT:      -6.7      9.085     11.022
REMARK  Name = 
REMARK  4 active torsions:
REMARK  status: ('A' for Active; 'I' for Inactive)
REMARK    1  A    between atoms: CB_1  and  CA_2
REMARK    2  A    between atoms: C_17  and  C_18
REMARK    3  A    between atoms: C_18  and  C_19
REMARK    4  A    between atoms: C_18  and  C_20
REMARK                            x       y       z     vdW  Elec       q    Type
REMARK                         _______ _______ _______ _____ _____    ______ ____
ROOT
ATOM      1  CB  ALA A   1       1.049   8.853  22.096  0.00  0.00    +0.000 C 
ATOM      2  CA  ALA A   1       0.421   9.250  20.764  0.00  0.00    +0.000 C 
ATOM      3  N   ALA A   1       1.397   9.128  19.698  0.00  0.00    +0.000 N 
ATOM      4  C   UNK A   2       1.171   9.735  18.490  0.00  0.00    +0.000 C 
ATOM      5  O   UNK A   2       1.744   9.329  17.482  0.00  0.00    +0.000 OA
ATOM      6  C   UNK A   2       0.432  11.073  18.557  0.00  0.00    +0.000 C 
ATOM      7  C   UNK A   2       1.480  12.198  18.744  0.00  0.00    +0.000 C 
ATOM      8  C   UNK A   2       0.762  13.500  18.876  0.00  0.00    +0.000 A 
ATOM      9  C   UNK A   2      -0.584  13.558  19.216  0.00  0.00    +0.000 A 
ATOM     10  N   UNK A   2      -0.960  14.867  19.070  0.00  0.00    +0.000 N 
ATOM     11  C   UNK A   2       0.135  15.667  18.831  0.00  0.00    +0.000 A 
ATOM     12  C   UNK A   2       0.220  17.060  18.709  0.00  0.00    +0.000 A 
ATOM     13  C   UNK A   2       1.476  17.608  18.439  0.00  0.00    +0.000 A 
ATOM     14  C   UNK A   2       2.594  16.792  18.275  0.00  0.00    +0.000 A 
ATOM     15  C   UNK A   2       2.488  15.400  18.387  0.00  0.00    +0.000 A 
ATOM     16  C   UNK A   2       1.233  14.827  18.688  0.00  0.00    +0.000 A 
ATOM     17  C   UNK A   2      -1.503  12.381  19.499  0.00  0.00    +0.000 C 
ATOM     18  N   UNK A   2      -0.613  11.171  19.615  0.00  0.00    +0.000 N 
ATOM     19  C   ALA A   1      -0.217  10.658  20.866  0.00  0.00    +0.000 C 
ATOM     20  O   ALA A   1      -0.551  11.120  21.952  0.00  0.00    +0.000 OA
ATOM     21  H   ALA A   1       1.875   8.240  19.598  0.00  0.00    +0.000 HD
ATOM     22  H   UNK A   2      -1.900  15.230  19.116  0.00  0.00    +0.000 HD
ENDROOT
BRANCH  17  23
ATOM     23  C   UNK A   2      -2.539  12.577  20.656  0.00  0.00    +0.000 C 
ATOM     24  C   UNK A   2      -2.318  13.821  21.532  0.00  0.00    +0.000 C 
ATOM     25  C   UNK A   2      -3.977  12.682  20.114  0.00  0.00    +0.000 C 
ENDBRANCH  17  23
TORSDOF 1
ENDMDL
MODEL 7
REMARK VINA RESULT:      -6.6     10.474     12.263
REMARK  Name = 
REMARK  4 active torsions:
REMARK  status: ('A' for Active; 'I' for Inactive)
REMARK    1  A    between atoms: CB_1  and  CA_2
REMARK    2  A    between atoms: C_17  and  C_18
REMARK    3  A    between atoms: C_18  and  C_19
REMARK    4  A    between atoms: C_18  and  C_20
REMARK                            x       y       z     vdW  Elec       q    Type
REMARK                         _______ _______ _______ _____ _____    ______ ____
ROOT
ATOM      1  CB  ALA A   1      -1.826  15.470  26.003  0.00  0.00    +0.000 C 
ATOM      2  CA  ALA A   1      -2.617  14.929  24.817  0.00  0.00    +0.000 C 
ATOM      3  N   ALA A   1      -3.385  13.766  25.220  0.00  0.00    +0.000 N 
ATOM      4  C   UNK A   2      -3.902  12.923  24.271  0.00  0.00    +0.000 C 
ATOM      5  O   UNK A   2      -4.857  12.202  24.545  0.00  0.00    +0.000 OA
ATOM      6  C   UNK A   2      -3.045  12.746  23.016  0.00  0.00    +0.000 C 
ATOM      7  C   UNK A   2      -2.050  11.587  23.267  0.00  0.00    +0.000 C 
ATOM      8  C   UNK A   2      -1.167  11.450  22.072  0.00  0.00    +0.000 A 
ATOM      9  C   UNK A   2      -1.020  12.482  21.153  0.00  0.00    +0.000 A 
ATOM     10  N   UNK A   2      -0.301  11.965  20.108  0.00  0.00    +0.000 N 
ATOM     11  C   UNK A   2       0.169  10.707  20.411  0.00  0.00    +0.000 A 
ATOM     12  C   UNK A   2       1.009   9.861  19.677  0.00  0.00    +0.000 A 
ATOM     13  C   UNK A   2       1.307   8.612  20.227  0.00  0.00    +0.000 A 
ATOM     14  C   UNK A   2       0.765   8.219  21.450  0.00  0.00    +0.000 A 
ATOM     15  C   UNK A   2      -0.086   9.073  22.164  0.00  0.00    +0.000 A 
ATOM     16  C   UNK A   2      -0.376  10.351  21.640  0.00  0.00    +0.000 A 
ATOM     17  C   UNK A   2      -1.688  13.847  21.203  0.00  0.00    +0.000 C 
ATOM     18  N   UNK A   2      -2.308  13.962  22.570  0.00  0.00    +0.000 N 
ATOM     19  C   ALA A   1      -1.678  14.669  23.613  0.00  0.00    +0.000 C 
ATOM     20  O   ALA A   1      -0.602  15.251  23.519  0.00  0.00    +0.000 OA
ATOM     21  H   ALA A   1      -3.996  13.862  26.023  0.00  0.00    +0.000 HD
ATOM     22  H   UNK A   2      -0.127  12.412  19.220  0.00  0.00    +0.000 HD
ENDROOT
BRANCH  17  23
ATOM     23  C   UNK A   2      -0.811  15.061  20.748  0.00  0.00    +0.000 C 
ATOM     24  C   UNK A   2       0.136  14.783  19.569  0.00  0.00    +0.000 C 
ATOM     25  C   UNK A   2      -1.682  16.260  20.327  0.00  0.00    +0.000 C 
ENDBRANCH  17  23
TORSDOF 1
ENDMDL
MODEL 8
REMARK VINA RESULT:      -6.4      9.521     11.986
REMARK  Name = 
REMARK  4 active torsions:
REMARK  status: ('A' for Active; 'I' for Inactive)
REMARK    1  A    between atoms: CB_1  and  CA_2
REMARK    2  A    between atoms: C_17  and  C_18
REMARK    3  A    between atoms: C_18  and  C_19
REMARK    4  A    between atoms: C_18  and  C_20
REMARK                            x       y       z     vdW  Elec       q    Type
REMARK                         _______ _______ _______ _____ _____    ______ ____
ROOT
ATOM      1  CB  ALA A   1       2.677  13.723  18.024  0.00  0.00    +0.000 C 
ATOM      2  CA  ALA A   1       2.019  12.664  18.903  0.00  0.00    +0.000 C 
ATOM      3  N   ALA A   1       1.827  11.440  18.149  0.00  0.00    +0.000 N 
ATOM      4  C   UNK A   2       0.969  10.477  18.612  0.00  0.00    +0.000 C 
ATOM      5  O   UNK A   2       1.092   9.314  18.238  0.00  0.00    +0.000 OA
ATOM      6  C   UNK A   2      -0.267  10.999  19.346  0.00  0.00    +0.000 C 
ATOM      7  C   UNK A   2      -1.380  11.258  18.301  0.00  0.00    +0.000 C 
ATOM      8  C   UNK A   2      -2.567  11.829  19.001  0.00  0.00    +0.000 A 
ATOM      9  C   UNK A   2      -2.461  12.414  20.257  0.00  0.00    +0.000 A 
ATOM     10  N   UNK A   2      -3.742  12.660  20.675  0.00  0.00    +0.000 N 
ATOM     11  C   UNK A   2      -4.642  12.425  19.660  0.00  0.00    +0.000 A 
ATOM     12  C   UNK A   2      -6.027  12.630  19.622  0.00  0.00    +0.000 A 
ATOM     13  C   UNK A   2      -6.700  12.275  18.451  0.00  0.00    +0.000 A 
ATOM     14  C   UNK A   2      -6.016  11.718  17.372  0.00  0.00    +0.000 A 
ATOM     15  C   UNK A   2      -4.632  11.507  17.432  0.00  0.00    +0.000 A 
ATOM     16  C   UNK A   2      -3.929  11.885  18.596  0.00  0.00    +0.000 A 
ATOM     17  C   UNK A   2      -1.195  12.567  21.085  0.00  0.00    +0.000 C 
ATOM     18  N   UNK A   2      -0.050  12.222  20.170  0.00  0.00    +0.000 N 
ATOM     19  C   ALA A   1       0.716  13.218  19.532  0.00  0.00    +0.000 C 
ATOM     20  O   ALA A   1       0.543  14.426  19.658  0.00  0.00    +0.000 OA
ATOM     21  H   ALA A   1       2.636  11.043  17.684  0.00  0.00    +0.000 HD
ATOM     22  H   UNK A   2      -4.025  12.964  21.595  0.00  0.00    +0.000 HD
ENDROOT
BRANCH  17  23
ATOM     23  C   UNK A   2      -1.051  13.907  21.882  0.00  0.00    +0.000 C 
ATOM     24  C   UNK A   2      -2.038  15.017  21.486  0.00  0.00    +0.000 C 
ATOM     25  C   UNK A   2      -1.236  13.685  23.395  0.00  0.00    +0.000 C 
ENDBRANCH  17  23
TORSDOF 1
ENDMDL
MODEL 9
REMARK VINA RESULT:      -6.4     11.146     13.079
REMARK  Name = 
REMARK  4 active torsions:
REMARK  status: ('A' for Active; 'I' for Inactive)
REMARK    1  A    between atoms: CB_1  and  CA_2
REMARK    2  A    between atoms: C_17  and  C_18
REMARK    3  A    between atoms: C_18  and  C_19
REMARK    4  A    between atoms: C_18  and  C_20
REMARK                            x       y       z     vdW  Elec       q    Type
REMARK                         _______ _______ _______ _____ _____    ______ ____
ROOT
ATOM      1  CB  ALA A   1      -7.916  12.192  23.203  0.00  0.00    +0.000 C 
ATOM      2  CA  ALA A   1      -7.145  13.230  22.396  0.00  0.00    +0.000 C 
ATOM      3  N   ALA A   1      -7.651  13.282  21.038  0.00  0.00    +0.000 N 
ATOM      4  C   UNK A   2      -6.913  13.885  20.053  0.00  0.00    +0.000 C 
ATOM      5  O   UNK A   2      -7.465  14.296  19.036  0.00  0.00    +0.000 OA
ATOM      6  C   UNK A   2      -5.396  13.733  20.185  0.00  0.00    +0.000 C 
ATOM      7  C   UNK A   2      -4.976  12.424  19.474  0.00  0.00    +0.000 C 
ATOM      8  C   UNK A   2      -3.506  12.235  19.655  0.00  0.00    +0.000 A 
ATOM      9  C   UNK A   2      -2.805  12.893  20.658  0.00  0.00    +0.000 A 
ATOM     10  N   UNK A   2      -1.478  12.642  20.426  0.00  0.00    +0.000 N 
ATOM     11  C   UNK A   2      -1.324  11.704  19.430  0.00  0.00    +0.000 A 
ATOM     12  C   UNK A   2      -0.161  11.097  18.941  0.00  0.00    +0.000 A 
ATOM     13  C   UNK A   2      -0.302  10.183  17.895  0.00  0.00    +0.000 A 
ATOM     14  C   UNK A   2      -1.553   9.908  17.346  0.00  0.00    +0.000 A 
ATOM     15  C   UNK A   2      -2.705  10.536  17.838  0.00  0.00    +0.000 A 
ATOM     16  C   UNK A   2      -2.588  11.441  18.915  0.00  0.00    +0.000 A 
ATOM     17  C   UNK A   2      -3.376  13.858  21.684  0.00  0.00    +0.000 C 
ATOM     18  N   UNK A   2      -4.874  13.744  21.581  0.00  0.00    +0.000 N 
ATOM     19  C   ALA A   1      -5.621  12.959  22.482  0.00  0.00    +0.000 C 
ATOM     20  O   ALA A   1      -5.149  12.319  23.416  0.00  0.00    +0.000 OA
ATOM     21  H   ALA A   1      -8.647  13.424  20.914  0.00  0.00    +0.000 HD
ATOM     22  H   UNK A   2      -0.696  13.073  20.895  0.00  0.00    +0.000 HD
ENDROOT
BRANCH  17  23
ATOM     23  C   UNK A   2      -2.783  13.759  23.129  0.00  0.00    +0.000 C 
ATOM     24  C   UNK A   2      -1.279  13.448  23.202  0.00  0.00    +0.000 C 
ATOM     25  C   UNK A   2      -2.991  15.067  23.916  0.00  0.00    +0.000 C 
ENDBRANCH  17  23
TORSDOF 1
ENDMDL
