MODEL 1
REMARK VINA RESULT:      -6.6      0.000      0.000
REMARK  Name = 
REMARK  3 active torsions:
REMARK  status: ('A' for Active; 'I' for Inactive)
REMARK    1  A    between atoms: C_2  and  O_5
REMARK    2  A    between atoms: O_5  and  C_6
REMARK    3  A    between atoms: C_9  and  N_10
REMARK                            x       y       z     vdW  Elec       q    Type
REMARK                         _______ _______ _______ _____ _____    ______ ____
ROOT
ATOM      1  C   UNL     1       2.581   4.169  17.694  0.00  0.00    +0.000 A 
ATOM      2  C   UNL     1       3.758   3.614  17.177  0.00  0.00    +0.000 A 
ATOM      3  C   UNL     1       4.966   4.320  17.227  0.00  0.00    +0.000 A 
ATOM      4  C   UNL     1       4.997   5.596  17.797  0.00  0.00    +0.000 A 
ATOM      5  C   UNL     1       3.810   6.173  18.274  0.00  0.00    +0.000 A 
ATOM      6  C   UNL     1       2.604   5.469  18.196  0.00  0.00    +0.000 A 
ENDROOT
BRANCH   4   7
ATOM      7  N   UNL     1       6.217   6.312  17.902  0.00  0.00    +0.000 N 
ATOM      8  N   UNL     1       7.173   5.995  18.820  0.00  0.00    +0.000 NA
ATOM      9  C   UNL     1       8.115   6.907  18.570  0.00  0.00    +0.000 A 
ATOM     10  C   UNL     1       7.704   7.747  17.535  0.00  0.00    +0.000 A 
ATOM     11  N   UNL     1       6.501   7.371  17.096  0.00  0.00    +0.000 NA
ENDBRANCH   4   7
BRANCH   1  12
ATOM     12  O   UNL     1       1.485   3.367  17.611  0.00  0.00    +0.000 OA
BRANCH  12  14
ATOM     13  F   UNL     1       0.075   1.753  18.531  0.00  0.00    +0.000 F 
ATOM     14  C   UNL     1       1.063   2.644  18.761  0.00  0.00    +0.000 C 
ATOM     15  F   UNL     1       0.609   3.528  19.678  0.00  0.00    +0.000 F 
ATOM     16  F   UNL     1       2.120   1.993  19.292  0.00  0.00    +0.000 F 
ENDBRANCH  12  14
ENDBRANCH   1  12
TORSDOF 3
ENDMDL
MODEL 2
REMARK VINA RESULT:      -6.6      0.265      1.037
REMARK  Name = 
REMARK  3 active torsions:
REMARK  status: ('A' for Active; 'I' for Inactive)
REMARK    1  A    between atoms: C_2  and  O_5
REMARK    2  A    between atoms: O_5  and  C_6
REMARK    3  A    between atoms: C_9  and  N_10
REMARK                            x       y       z     vdW  Elec       q    Type
REMARK                         _______ _______ _______ _____ _____    ______ ____
ROOT
ATOM      1  C   UNL     1       2.749   4.029  17.630  0.00  0.00    +0.000 A 
ATOM      2  C   UNL     1       3.987   3.451  17.324  0.00  0.00    +0.000 A 
ATOM      3  C   UNL     1       5.164   4.207  17.379  0.00  0.00    +0.000 A 
ATOM      4  C   UNL     1       5.102   5.556  17.740  0.00  0.00    +0.000 A 
ATOM      5  C   UNL     1       3.858   6.149  18.002  0.00  0.00    +0.000 A 
ATOM      6  C   UNL     1       2.686   5.391  17.919  0.00  0.00    +0.000 A 
ENDROOT
BRANCH   4   7
ATOM      7  N   UNL     1       6.286   6.331  17.849  0.00  0.00    +0.000 N 
ATOM      8  N   UNL     1       7.265   6.046  18.753  0.00  0.00    +0.000 NA
ATOM      9  C   UNL     1       8.157   7.009  18.513  0.00  0.00    +0.000 A 
ATOM     10  C   UNL     1       7.695   7.847  17.498  0.00  0.00    +0.000 A 
ATOM     11  N   UNL     1       6.508   7.418  17.061  0.00  0.00    +0.000 NA
ENDBRANCH   4   7
BRANCH   1  12
ATOM     12  O   UNL     1       1.689   3.177  17.569  0.00  0.00    +0.000 OA
BRANCH  12  14
ATOM     13  F   UNL     1       1.105   3.355  19.819  0.00  0.00    +0.000 F 
ATOM     14  C   UNL     1       1.242   2.536  18.756  0.00  0.00    +0.000 C 
ATOM     15  F   UNL     1       2.141   1.582  19.091  0.00  0.00    +0.000 F 
ATOM     16  F   UNL     1       0.058   1.931  18.518  0.00  0.00    +0.000 F 
ENDBRANCH  12  14
ENDBRANCH   1  12
TORSDOF 3
ENDMDL
MODEL 3
REMARK VINA RESULT:      -6.3      4.515      5.920
REMARK  Name = 
REMARK  3 active torsions:
REMARK  status: ('A' for Active; 'I' for Inactive)
REMARK    1  A    between atoms: C_2  and  O_5
REMARK    2  A    between atoms: O_5  and  C_6
REMARK    3  A    between atoms: C_9  and  N_10
REMARK                            x       y       z     vdW  Elec       q    Type
REMARK                         _______ _______ _______ _____ _____    ______ ____
ROOT
ATOM      1  C   UNL     1       6.294   4.388  16.724  0.00  0.00    +0.000 A 
ATOM      2  C   UNL     1       6.590   4.825  18.021  0.00  0.00    +0.000 A 
ATOM      3  C   UNL     1       5.671   4.655  19.062  0.00  0.00    +0.000 A 
ATOM      4  C   UNL     1       4.439   4.044  18.804  0.00  0.00    +0.000 A 
ATOM      5  C   UNL     1       4.121   3.647  17.497  0.00  0.00    +0.000 A 
ATOM      6  C   UNL     1       5.038   3.844  16.459  0.00  0.00    +0.000 A 
ENDROOT
BRANCH   4   7
ATOM      7  N   UNL     1       3.511   3.818  19.853  0.00  0.00    +0.000 N 
ATOM      8  N   UNL     1       2.670   4.790  20.305  0.00  0.00    +0.000 NA
ATOM      9  C   UNL     1       2.002   4.155  21.271  0.00  0.00    +0.000 A 
ATOM     10  C   UNL     1       2.460   2.843  21.387  0.00  0.00    +0.000 A 
ATOM     11  N   UNL     1       3.415   2.615  20.481  0.00  0.00    +0.000 NA
ENDBRANCH   4   7
BRANCH   1  12
ATOM     12  O   UNL     1       7.285   4.584  15.813  0.00  0.00    +0.000 OA
BRANCH  12  14
ATOM     13  F   UNL     1       7.931   5.342  13.704  0.00  0.00    +0.000 F 
ATOM     14  C   UNL     1       6.944   4.803  14.449  0.00  0.00    +0.000 C 
ATOM     15  F   UNL     1       5.891   5.650  14.403  0.00  0.00    +0.000 F 
ATOM     16  F   UNL     1       6.566   3.633  13.890  0.00  0.00    +0.000 F 
ENDBRANCH  12  14
ENDBRANCH   1  12
TORSDOF 3
ENDMDL
MODEL 4
REMARK VINA RESULT:      -6.3      2.576      3.073
REMARK  Name = 
REMARK  3 active torsions:
REMARK  status: ('A' for Active; 'I' for Inactive)
REMARK    1  A    between atoms: C_2  and  O_5
REMARK    2  A    between atoms: O_5  and  C_6
REMARK    3  A    between atoms: C_9  and  N_10
REMARK                            x       y       z     vdW  Elec       q    Type
REMARK                         _______ _______ _______ _____ _____    ______ ____
ROOT
ATOM      1  C   UNL     1       2.921   2.761  19.480  0.00  0.00    +0.000 A 
ATOM      2  C   UNL     1       2.323   2.906  18.223  0.00  0.00    +0.000 A 
ATOM      3  C   UNL     1       3.041   3.435  17.144  0.00  0.00    +0.000 A 
ATOM      4  C   UNL     1       4.372   3.826  17.325  0.00  0.00    +0.000 A 
ATOM      5  C   UNL     1       4.959   3.725  18.595  0.00  0.00    +0.000 A 
ATOM      6  C   UNL     1       4.224   3.219  19.672  0.00  0.00    +0.000 A 
ENDROOT
BRANCH   4   7
ATOM      7  N   UNL     1       5.134   4.320  16.236  0.00  0.00    +0.000 N 
ATOM      8  N   UNL     1       5.884   3.507  15.440  0.00  0.00    +0.000 NA
ATOM      9  C   UNL     1       6.420   4.374  14.578  0.00  0.00    +0.000 A 
ATOM     10  C   UNL     1       6.001   5.670  14.881  0.00  0.00    +0.000 A 
ATOM     11  N   UNL     1       5.174   5.646  15.929  0.00  0.00    +0.000 NA
ENDBRANCH   4   7
BRANCH   1  12
ATOM     12  O   UNL     1       2.124   2.206  20.433  0.00  0.00    +0.000 OA
BRANCH  12  14
ATOM     13  F   UNL     1       0.719   2.397  22.284  0.00  0.00    +0.000 F 
ATOM     14  C   UNL     1       1.477   3.049  21.379  0.00  0.00    +0.000 C 
ATOM     15  F   UNL     1       0.669   3.901  20.708  0.00  0.00    +0.000 F 
ATOM     16  F   UNL     1       2.405   3.779  22.034  0.00  0.00    +0.000 F 
ENDBRANCH  12  14
ENDBRANCH   1  12
TORSDOF 3
ENDMDL
MODEL 5
REMARK VINA RESULT:      -6.3      2.591      3.153
REMARK  Name = 
REMARK  3 active torsions:
REMARK  status: ('A' for Active; 'I' for Inactive)
REMARK    1  A    between atoms: C_2  and  O_5
REMARK    2  A    between atoms: O_5  and  C_6
REMARK    3  A    between atoms: C_9  and  N_10
REMARK                            x       y       z     vdW  Elec       q    Type
REMARK                         _______ _______ _______ _____ _____    ______ ____
ROOT
ATOM      1  C   UNL     1       2.260   3.243  19.193  0.00  0.00    +0.000 A 
ATOM      2  C   UNL     1       3.099   2.282  18.616  0.00  0.00    +0.000 A 
ATOM      3  C   UNL     1       4.007   2.633  17.611  0.00  0.00    +0.000 A 
ATOM      4  C   UNL     1       4.076   3.960  17.175  0.00  0.00    +0.000 A 
ATOM      5  C   UNL     1       3.205   4.916  17.719  0.00  0.00    +0.000 A 
ATOM      6  C   UNL     1       2.284   4.548  18.705  0.00  0.00    +0.000 A 
ENDROOT
BRANCH   4   7
ATOM      7  N   UNL     1       5.021   4.349  16.192  0.00  0.00    +0.000 N 
ATOM      8  N   UNL     1       5.172   5.645  15.796  0.00  0.00    +0.000 NA
ATOM      9  C   UNL     1       6.135   5.547  14.877  0.00  0.00    +0.000 A 
ATOM     10  C   UNL     1       6.524   4.215  14.732  0.00  0.00    +0.000 A 
ATOM     11  N   UNL     1       5.827   3.445  15.571  0.00  0.00    +0.000 NA
ENDBRANCH   4   7
BRANCH   1  12
ATOM     12  O   UNL     1       1.448   2.776  20.180  0.00  0.00    +0.000 OA
BRANCH  12  14
ATOM     13  F   UNL     1       2.095   4.240  21.876  0.00  0.00    +0.000 F 
ATOM     14  C   UNL     1       1.825   2.962  21.539  0.00  0.00    +0.000 C 
ATOM     15  F   UNL     1       2.940   2.234  21.776  0.00  0.00    +0.000 F 
ATOM     16  F   UNL     1       0.842   2.499  22.342  0.00  0.00    +0.000 F 
ENDBRANCH  12  14
ENDBRANCH   1  12
TORSDOF 3
ENDMDL
MODEL 6
REMARK VINA RESULT:      -6.3      1.103      1.443
REMARK  Name = 
REMARK  3 active torsions:
REMARK  status: ('A' for Active; 'I' for Inactive)
REMARK    1  A    between atoms: C_2  and  O_5
REMARK    2  A    between atoms: O_5  and  C_6
REMARK    3  A    between atoms: C_9  and  N_10
REMARK                            x       y       z     vdW  Elec       q    Type
REMARK                         _______ _______ _______ _____ _____    ______ ____
ROOT
ATOM      1  C   UNL     1       3.476   3.230  18.237  0.00  0.00    +0.000 A 
ATOM      2  C   UNL     1       4.013   3.769  19.412  0.00  0.00    +0.000 A 
ATOM      3  C   UNL     1       5.030   4.729  19.361  0.00  0.00    +0.000 A 
ATOM      4  C   UNL     1       5.518   5.153  18.121  0.00  0.00    +0.000 A 
ATOM      5  C   UNL     1       5.015   4.580  16.944  0.00  0.00    +0.000 A 
ATOM      6  C   UNL     1       4.016   3.603  17.008  0.00  0.00    +0.000 A 
ENDROOT
BRANCH   4   7
ATOM      7  N   UNL     1       6.515   6.159  18.043  0.00  0.00    +0.000 N 
ATOM      8  N   UNL     1       7.608   6.171  18.858  0.00  0.00    +0.000 NA
ATOM      9  C   UNL     1       8.250   7.267  18.450  0.00  0.00    +0.000 A 
ATOM     10  C   UNL     1       7.534   7.889  17.428  0.00  0.00    +0.000 A 
ATOM     11  N   UNL     1       6.431   7.186  17.154  0.00  0.00    +0.000 NA
ENDBRANCH   4   7
BRANCH   1  12
ATOM     12  O   UNL     1       2.473   2.330  18.426  0.00  0.00    +0.000 OA
BRANCH  12  14
ATOM     13  F   UNL     1       0.162   2.018  18.416  0.00  0.00    +0.000 F 
ATOM     14  C   UNL     1       1.188   2.793  18.824  0.00  0.00    +0.000 C 
ATOM     15  F   UNL     1       0.999   4.027  18.303  0.00  0.00    +0.000 F 
ATOM     16  F   UNL     1       1.148   2.894  20.170  0.00  0.00    +0.000 F 
ENDBRANCH  12  14
ENDBRANCH   1  12
TORSDOF 3
ENDMDL
MODEL 7
REMARK VINA RESULT:      -6.2      4.503      5.945
REMARK  Name = 
REMARK  3 active torsions:
REMARK  status: ('A' for Active; 'I' for Inactive)
REMARK    1  A    between atoms: C_2  and  O_5
REMARK    2  A    between atoms: O_5  and  C_6
REMARK    3  A    between atoms: C_9  and  N_10
REMARK                            x       y       z     vdW  Elec       q    Type
REMARK                         _______ _______ _______ _____ _____    ______ ____
ROOT
ATOM      1  C   UNL     1       5.202   5.401  15.871  0.00  0.00    +0.000 A 
ATOM      2  C   UNL     1       4.698   6.445  16.656  0.00  0.00    +0.000 A 
ATOM      3  C   UNL     1       3.829   6.186  17.722  0.00  0.00    +0.000 A 
ATOM      4  C   UNL     1       3.458   4.868  18.006  0.00  0.00    +0.000 A 
ATOM      5  C   UNL     1       3.925   3.824  17.193  0.00  0.00    +0.000 A 
ATOM      6  C   UNL     1       4.772   4.098  16.114  0.00  0.00    +0.000 A 
ENDROOT
BRANCH   4   7
ATOM      7  N   UNL     1       2.617   4.576  19.110  0.00  0.00    +0.000 N 
ATOM      8  N   UNL     1       1.372   4.042  18.960  0.00  0.00    +0.000 NA
ATOM      9  C   UNL     1       0.953   3.947  20.223  0.00  0.00    +0.000 A 
ATOM     10  C   UNL     1       1.932   4.431  21.090  0.00  0.00    +0.000 A 
ATOM     11  N   UNL     1       3.001   4.826  20.392  0.00  0.00    +0.000 NA
ENDBRANCH   4   7
BRANCH   1  12
ATOM     12  O   UNL     1       6.060   5.786  14.888  0.00  0.00    +0.000 OA
BRANCH  12  14
ATOM     13  F   UNL     1       7.998   5.440  13.638  0.00  0.00    +0.000 F 
ATOM     14  C   UNL     1       7.088   4.896  14.472  0.00  0.00    +0.000 C 
ATOM     15  F   UNL     1       6.515   3.854  13.827  0.00  0.00    +0.000 F 
ATOM     16  F   UNL     1       7.729   4.415  15.560  0.00  0.00    +0.000 F 
ENDBRANCH  12  14
ENDBRANCH   1  12
TORSDOF 3
ENDMDL
MODEL 8
REMARK VINA RESULT:      -6.2      2.545      3.187
REMARK  Name = 
REMARK  3 active torsions:
REMARK  status: ('A' for Active; 'I' for Inactive)
REMARK    1  A    between atoms: C_2  and  O_5
REMARK    2  A    between atoms: O_5  and  C_6
REMARK    3  A    between atoms: C_9  and  N_10
REMARK                            x       y       z     vdW  Elec       q    Type
REMARK                         _______ _______ _______ _____ _____    ______ ____
ROOT
ATOM      1  C   UNL     1       2.967   2.826  19.566  0.00  0.00    +0.000 A 
ATOM      2  C   UNL     1       2.524   2.818  18.238  0.00  0.00    +0.000 A 
ATOM      3  C   UNL     1       3.338   3.299  17.207  0.00  0.00    +0.000 A 
ATOM      4  C   UNL     1       4.610   3.798  17.506  0.00  0.00    +0.000 A 
ATOM      5  C   UNL     1       5.039   3.850  18.841  0.00  0.00    +0.000 A 
ATOM      6  C   UNL     1       4.206   3.389  19.866  0.00  0.00    +0.000 A 
ENDROOT
BRANCH   4   7
ATOM      7  N   UNL     1       5.472   4.248  16.473  0.00  0.00    +0.000 N 
ATOM      8  N   UNL     1       5.011   4.613  15.244  0.00  0.00    +0.000 NA
ATOM      9  C   UNL     1       6.137   4.948  14.611  0.00  0.00    +0.000 A 
ATOM     10  C   UNL     1       7.232   4.764  15.453  0.00  0.00    +0.000 A 
ATOM     11  N   UNL     1       6.820   4.327  16.646  0.00  0.00    +0.000 NA
ENDBRANCH   4   7
BRANCH   1  12
ATOM     12  O   UNL     1       2.092   2.301  20.466  0.00  0.00    +0.000 OA
BRANCH  12  14
ATOM     13  F   UNL     1       2.384   3.822  22.210  0.00  0.00    +0.000 F 
ATOM     14  C   UNL     1       1.501   3.152  21.440  0.00  0.00    +0.000 C 
ATOM     15  F   UNL     1       0.737   2.395  22.261  0.00  0.00    +0.000 F 
ATOM     16  F   UNL     1       0.697   4.045  20.824  0.00  0.00    +0.000 F 
ENDBRANCH  12  14
ENDBRANCH   1  12
TORSDOF 3
ENDMDL
MODEL 9
REMARK VINA RESULT:      -6.2      4.520      5.985
REMARK  Name = 
REMARK  3 active torsions:
REMARK  status: ('A' for Active; 'I' for Inactive)
REMARK    1  A    between atoms: C_2  and  O_5
REMARK    2  A    between atoms: O_5  and  C_6
REMARK    3  A    between atoms: C_9  and  N_10
REMARK                            x       y       z     vdW  Elec       q    Type
REMARK                         _______ _______ _______ _____ _____    ______ ____
ROOT
ATOM      1  C   UNL     1       5.915   4.204  16.803  0.00  0.00    +0.000 A 
ATOM      2  C   UNL     1       6.141   4.608  18.124  0.00  0.00    +0.000 A 
ATOM      3  C   UNL     1       5.172   4.402  19.112  0.00  0.00    +0.000 A 
ATOM      4  C   UNL     1       3.961   3.790  18.775  0.00  0.00    +0.000 A 
ATOM      5  C   UNL     1       3.713   3.427  17.443  0.00  0.00    +0.000 A 
ATOM      6  C   UNL     1       4.679   3.659  16.459  0.00  0.00    +0.000 A 
ENDROOT
BRANCH   4   7
ATOM      7  N   UNL     1       2.982   3.529  19.768  0.00  0.00    +0.000 N 
ATOM      8  N   UNL     1       1.740   4.088  19.735  0.00  0.00    +0.000 NA
ATOM      9  C   UNL     1       1.176   3.585  20.835  0.00  0.00    +0.000 A 
ATOM     10  C   UNL     1       2.082   2.761  21.502  0.00  0.00    +0.000 A 
ATOM     11  N   UNL     1       3.232   2.710  20.827  0.00  0.00    +0.000 NA
ENDBRANCH   4   7
BRANCH   1  12
ATOM     12  O   UNL     1       6.950   4.433  15.948  0.00  0.00    +0.000 OA
BRANCH  12  14
ATOM     13  F   UNL     1       6.304   3.704  13.829  0.00  0.00    +0.000 F 
ATOM     14  C   UNL     1       6.674   4.755  14.591  0.00  0.00    +0.000 C 
ATOM     15  F   UNL     1       7.793   5.282  14.042  0.00  0.00    +0.000 F 
ATOM     16  F   UNL     1       5.702   5.691  14.542  0.00  0.00    +0.000 F 
ENDBRANCH  12  14
ENDBRANCH   1  12
TORSDOF 3
ENDMDL
