MODEL 1
REMARK VINA RESULT:      -6.6      0.000      0.000
REMARK  Name = 
REMARK  14 active torsions:
REMARK  status: ('A' for Active; 'I' for Inactive)
REMARK    1  A    between atoms: C_1  and  C_2
REMARK    2  A    between atoms: C_2  and  C_3
REMARK    3  A    between atoms: C_2  and  N_4
REMARK    4  A    between atoms: C_2  and  C_15
REMARK    5  A    between atoms: N_5  and  C_6
REMARK    6  A    between atoms: C_6  and  C_7
REMARK    7  A    between atoms: C_6  and  C_8
REMARK    8  A    between atoms: C_6  and  C_9
REMARK    9  A    between atoms: N_11  and  C_12
REMARK   10  A    between atoms: C_12  and  C_13
REMARK   11  A    between atoms: C_13  and  O_14
REMARK   12  A    between atoms: N_17  and  C_18
REMARK   13  A    between atoms: C_18  and  C_19
REMARK   14  A    between atoms: C_19  and  O_20
REMARK                            x       y       z     vdW  Elec       q    Type
REMARK                         _______ _______ _______ _____ _____    ______ ____
ROOT
ATOM      1  N   UNL     1       5.421   5.978  18.041  0.00  0.00    +0.000 NA
ATOM      2  N   UNL     1       5.026   4.787  17.991  0.00  0.00    +0.000 NA
ENDROOT
BRANCH   1   4
ATOM      3  C   UNL     1       7.246   7.584  17.562  0.00  0.00    +0.000 C 
ATOM      4  C   UNL     1       6.895   6.128  17.904  0.00  0.00    +0.000 C 
ATOM      5  C   UNL     1       7.595   5.689  19.195  0.00  0.00    +0.000 C 
BRANCH   4   6
ATOM      6  C   UNL     1       7.336   5.208  16.739  0.00  0.00    +0.000 C 
ATOM      7  O   UNL     1       8.110   4.261  16.890  0.00  0.00    +0.000 OA
ATOM      8  N   UNL     1       6.767   5.478  15.509  0.00  0.00    +0.000 N 
ATOM      9  H   UNL     1       6.227   6.328  15.390  0.00  0.00    +0.000 HD
BRANCH   8  10
ATOM     10  C   UNL     1       7.092   4.690  14.326  0.00  0.00    +0.000 C 
BRANCH  10  11
ATOM     11  C   UNL     1       5.875   3.949  13.771  0.00  0.00    +0.000 C 
BRANCH  11  12
ATOM     12  O   UNL     1       6.289   2.976  12.813  0.00  0.00    +0.000 OA
ATOM     13  H   UNL     1       7.023   3.381  12.319  0.00  0.00    +0.000 HD
ENDBRANCH  11  12
ENDBRANCH  10  11
ENDBRANCH   8  10
ENDBRANCH   4   6
ENDBRANCH   1   4
BRANCH   2  14
ATOM     14  C   UNL     1       3.560   4.607  18.152  0.00  0.00    +0.000 C 
ATOM     15  C   UNL     1       2.864   5.965  18.295  0.00  0.00    +0.000 C 
ATOM     16  C   UNL     1       2.987   3.827  16.963  0.00  0.00    +0.000 C 
BRANCH  14  17
ATOM     17  C   UNL     1       3.377   3.778  19.451  0.00  0.00    +0.000 C 
ATOM     18  O   UNL     1       3.808   2.635  19.586  0.00  0.00    +0.000 OA
ATOM     19  N   UNL     1       2.675   4.409  20.462  0.00  0.00    +0.000 N 
ATOM     20  H   UNL     1       2.430   5.385  20.361  0.00  0.00    +0.000 HD
BRANCH  19  21
ATOM     21  C   UNL     1       2.384   3.748  21.726  0.00  0.00    +0.000 C 
BRANCH  21  22
ATOM     22  C   UNL     1       1.313   2.668  21.580  0.00  0.00    +0.000 C 
BRANCH  22  23
ATOM     23  O   UNL     1       0.423   3.004  20.516  0.00  0.00    +0.000 OA
ATOM     24  H   UNL     1      -0.228   2.281  20.471  0.00  0.00    +0.000 HD
ENDBRANCH  22  23
ENDBRANCH  21  22
ENDBRANCH  19  21
ENDBRANCH  14  17
ENDBRANCH   2  14
TORSDOF 10
ENDMDL
MODEL 2
REMARK VINA RESULT:      -6.5      1.646      1.996
REMARK  Name = 
REMARK  14 active torsions:
REMARK  status: ('A' for Active; 'I' for Inactive)
REMARK    1  A    between atoms: C_1  and  C_2
REMARK    2  A    between atoms: C_2  and  C_3
REMARK    3  A    between atoms: C_2  and  N_4
REMARK    4  A    between atoms: C_2  and  C_15
REMARK    5  A    between atoms: N_5  and  C_6
REMARK    6  A    between atoms: C_6  and  C_7
REMARK    7  A    between atoms: C_6  and  C_8
REMARK    8  A    between atoms: C_6  and  C_9
REMARK    9  A    between atoms: N_11  and  C_12
REMARK   10  A    between atoms: C_12  and  C_13
REMARK   11  A    between atoms: C_13  and  O_14
REMARK   12  A    between atoms: N_17  and  C_18
REMARK   13  A    between atoms: C_18  and  C_19
REMARK   14  A    between atoms: C_19  and  O_20
REMARK                            x       y       z     vdW  Elec       q    Type
REMARK                         _______ _______ _______ _____ _____    ______ ____
ROOT
ATOM      1  N   UNL     1       5.428   6.475  18.046  0.00  0.00    +0.000 NA
ATOM      2  N   UNL     1       4.714   5.639  18.652  0.00  0.00    +0.000 NA
ENDROOT
BRANCH   1   4
ATOM      3  C   UNL     1       7.698   7.338  17.553  0.00  0.00    +0.000 C 
ATOM      4  C   UNL     1       6.877   6.135  18.041  0.00  0.00    +0.000 C 
ATOM      5  C   UNL     1       7.325   5.702  19.441  0.00  0.00    +0.000 C 
BRANCH   4   6
ATOM      6  C   UNL     1       7.061   4.956  17.053  0.00  0.00    +0.000 C 
ATOM      7  O   UNL     1       8.051   4.221  17.065  0.00  0.00    +0.000 OA
ATOM      8  N   UNL     1       6.017   4.736  16.176  0.00  0.00    +0.000 N 
ATOM      9  H   UNL     1       5.273   5.421  16.112  0.00  0.00    +0.000 HD
BRANCH   8  10
ATOM     10  C   UNL     1       6.057   3.659  15.193  0.00  0.00    +0.000 C 
BRANCH  10  11
ATOM     11  C   UNL     1       6.449   4.158  13.802  0.00  0.00    +0.000 C 
BRANCH  11  12
ATOM     12  O   UNL     1       6.315   3.106  12.848  0.00  0.00    +0.000 OA
ATOM     13  H   UNL     1       7.216   2.910  12.536  0.00  0.00    +0.000 HD
ENDBRANCH  11  12
ENDBRANCH  10  11
ENDBRANCH   8  10
ENDBRANCH   4   6
ENDBRANCH   1   4
BRANCH   2  14
ATOM     14  C   UNL     1       3.266   5.968  18.695  0.00  0.00    +0.000 C 
ATOM     15  C   UNL     1       2.812   6.208  20.139  0.00  0.00    +0.000 C 
ATOM     16  C   UNL     1       2.974   7.195  17.824  0.00  0.00    +0.000 C 
BRANCH  14  17
ATOM     17  C   UNL     1       2.535   4.731  18.108  0.00  0.00    +0.000 C 
ATOM     18  O   UNL     1       1.442   4.797  17.552  0.00  0.00    +0.000 OA
ATOM     19  N   UNL     1       3.194   3.524  18.266  0.00  0.00    +0.000 N 
ATOM     20  H   UNL     1       4.137   3.519  18.629  0.00  0.00    +0.000 HD
BRANCH  19  21
ATOM     21  C   UNL     1       2.618   2.268  17.807  0.00  0.00    +0.000 C 
BRANCH  21  22
ATOM     22  C   UNL     1       1.617   1.692  18.808  0.00  0.00    +0.000 C 
BRANCH  22  23
ATOM     23  O   UNL     1       0.300   2.148  18.499  0.00  0.00    +0.000 OA
ATOM     24  H   UNL     1       0.247   2.180  17.527  0.00  0.00    +0.000 HD
ENDBRANCH  22  23
ENDBRANCH  21  22
ENDBRANCH  19  21
ENDBRANCH  14  17
ENDBRANCH   2  14
TORSDOF 10
ENDMDL
MODEL 3
REMARK VINA RESULT:      -6.4      2.207      4.037
REMARK  Name = 
REMARK  14 active torsions:
REMARK  status: ('A' for Active; 'I' for Inactive)
REMARK    1  A    between atoms: C_1  and  C_2
REMARK    2  A    between atoms: C_2  and  C_3
REMARK    3  A    between atoms: C_2  and  N_4
REMARK    4  A    between atoms: C_2  and  C_15
REMARK    5  A    between atoms: N_5  and  C_6
REMARK    6  A    between atoms: C_6  and  C_7
REMARK    7  A    between atoms: C_6  and  C_8
REMARK    8  A    between atoms: C_6  and  C_9
REMARK    9  A    between atoms: N_11  and  C_12
REMARK   10  A    between atoms: C_12  and  C_13
REMARK   11  A    between atoms: C_13  and  O_14
REMARK   12  A    between atoms: N_17  and  C_18
REMARK   13  A    between atoms: C_18  and  C_19
REMARK   14  A    between atoms: C_19  and  O_20
REMARK                            x       y       z     vdW  Elec       q    Type
REMARK                         _______ _______ _______ _____ _____    ______ ____
ROOT
ATOM      1  N   UNL     1       4.559   4.353  16.494  0.00  0.00    +0.000 NA
ATOM      2  N   UNL     1       4.943   3.839  17.574  0.00  0.00    +0.000 NA
ENDROOT
BRANCH   1   4
ATOM      3  C   UNL     1       6.058   3.988  14.556  0.00  0.00    +0.000 C 
ATOM      4  C   UNL     1       5.659   4.947  15.687  0.00  0.00    +0.000 C 
ATOM      5  C   UNL     1       5.227   6.305  15.123  0.00  0.00    +0.000 C 
BRANCH   4   6
ATOM      6  C   UNL     1       6.863   5.144  16.641  0.00  0.00    +0.000 C 
ATOM      7  O   UNL     1       7.852   4.409  16.630  0.00  0.00    +0.000 OA
ATOM      8  N   UNL     1       6.792   6.236  17.484  0.00  0.00    +0.000 N 
ATOM      9  H   UNL     1       5.923   6.752  17.551  0.00  0.00    +0.000 HD
BRANCH   8  10
ATOM     10  C   UNL     1       7.857   6.541  18.432  0.00  0.00    +0.000 C 
BRANCH  10  11
ATOM     11  C   UNL     1       7.770   5.685  19.696  0.00  0.00    +0.000 C 
BRANCH  11  12
ATOM     12  O   UNL     1       6.425   5.256  19.907  0.00  0.00    +0.000 OA
ATOM     13  H   UNL     1       6.357   4.378  19.494  0.00  0.00    +0.000 HD
ENDBRANCH  11  12
ENDBRANCH  10  11
ENDBRANCH   8  10
ENDBRANCH   4   6
ENDBRANCH   1   4
BRANCH   2  14
ATOM     14  C   UNL     1       3.861   3.262  18.412  0.00  0.00    +0.000 C 
ATOM     15  C   UNL     1       3.110   2.170  17.642  0.00  0.00    +0.000 C 
ATOM     16  C   UNL     1       4.440   2.703  19.717  0.00  0.00    +0.000 C 
BRANCH  14  17
ATOM     17  C   UNL     1       2.902   4.439  18.733  0.00  0.00    +0.000 C 
ATOM     18  O   UNL     1       1.686   4.304  18.847  0.00  0.00    +0.000 OA
ATOM     19  N   UNL     1       3.508   5.675  18.872  0.00  0.00    +0.000 N 
ATOM     20  H   UNL     1       4.517   5.733  18.880  0.00  0.00    +0.000 HD
BRANCH  19  21
ATOM     21  C   UNL     1       2.739   6.884  19.132  0.00  0.00    +0.000 C 
BRANCH  21  22
ATOM     22  C   UNL     1       2.748   7.841  17.941  0.00  0.00    +0.000 C 
BRANCH  22  23
ATOM     23  O   UNL     1       1.783   8.875  18.139  0.00  0.00    +0.000 OA
ATOM     24  H   UNL     1       2.157   9.467  18.815  0.00  0.00    +0.000 HD
ENDBRANCH  22  23
ENDBRANCH  21  22
ENDBRANCH  19  21
ENDBRANCH  14  17
ENDBRANCH   2  14
TORSDOF 10
ENDMDL
MODEL 4
REMARK VINA RESULT:      -6.4      1.063      1.063
REMARK  Name = 
REMARK  14 active torsions:
REMARK  status: ('A' for Active; 'I' for Inactive)
REMARK    1  A    between atoms: C_1  and  C_2
REMARK    2  A    between atoms: C_2  and  C_3
REMARK    3  A    between atoms: C_2  and  N_4
REMARK    4  A    between atoms: C_2  and  C_15
REMARK    5  A    between atoms: N_5  and  C_6
REMARK    6  A    between atoms: C_6  and  C_7
REMARK    7  A    between atoms: C_6  and  C_8
REMARK    8  A    between atoms: C_6  and  C_9
REMARK    9  A    between atoms: N_11  and  C_12
REMARK   10  A    between atoms: C_12  and  C_13
REMARK   11  A    between atoms: C_13  and  O_14
REMARK   12  A    between atoms: N_17  and  C_18
REMARK   13  A    between atoms: C_18  and  C_19
REMARK   14  A    between atoms: C_19  and  O_20
REMARK                            x       y       z     vdW  Elec       q    Type
REMARK                         _______ _______ _______ _____ _____    ______ ____
ROOT
ATOM      1  N   UNL     1       5.616   6.122  18.167  0.00  0.00    +0.000 NA
ATOM      2  N   UNL     1       5.096   5.045  17.785  0.00  0.00    +0.000 NA
ENDROOT
BRANCH   1   4
ATOM      3  C   UNL     1       7.524   7.613  17.643  0.00  0.00    +0.000 C 
ATOM      4  C   UNL     1       7.091   6.178  17.975  0.00  0.00    +0.000 C 
ATOM      5  C   UNL     1       7.809   5.669  19.230  0.00  0.00    +0.000 C 
BRANCH   4   6
ATOM      6  C   UNL     1       7.426   5.253  16.778  0.00  0.00    +0.000 C 
ATOM      7  O   UNL     1       8.057   4.202  16.901  0.00  0.00    +0.000 OA
ATOM      8  N   UNL     1       6.927   5.649  15.552  0.00  0.00    +0.000 N 
ATOM      9  H   UNL     1       6.512   6.569  15.462  0.00  0.00    +0.000 HD
BRANCH   8  10
ATOM     10  C   UNL     1       7.165   4.871  14.343  0.00  0.00    +0.000 C 
BRANCH  10  11
ATOM     11  C   UNL     1       5.945   4.043  13.936  0.00  0.00    +0.000 C 
BRANCH  11  12
ATOM     12  O   UNL     1       6.343   2.969  13.085  0.00  0.00    +0.000 OA
ATOM     13  H   UNL     1       7.165   2.614  13.467  0.00  0.00    +0.000 HD
ENDBRANCH  11  12
ENDBRANCH  10  11
ENDBRANCH   8  10
ENDBRANCH   4   6
ENDBRANCH   1   4
BRANCH   2  14
ATOM     14  C   UNL     1       3.627   4.953  17.990  0.00  0.00    +0.000 C 
ATOM     15  C   UNL     1       2.981   6.338  17.875  0.00  0.00    +0.000 C 
ATOM     16  C   UNL     1       3.010   3.981  16.979  0.00  0.00    +0.000 C 
BRANCH  14  17
ATOM     17  C   UNL     1       3.436   4.396  19.426  0.00  0.00    +0.000 C 
ATOM     18  O   UNL     1       3.133   5.101  20.386  0.00  0.00    +0.000 OA
ATOM     19  N   UNL     1       3.646   3.036  19.566  0.00  0.00    +0.000 N 
ATOM     20  H   UNL     1       3.786   2.469  18.741  0.00  0.00    +0.000 HD
BRANCH  19  21
ATOM     21  C   UNL     1       3.546   2.371  20.858  0.00  0.00    +0.000 C 
BRANCH  21  22
ATOM     22  C   UNL     1       2.100   2.250  21.335  0.00  0.00    +0.000 C 
BRANCH  22  23
ATOM     23  O   UNL     1       1.841   3.212  22.358  0.00  0.00    +0.000 OA
ATOM     24  H   UNL     1       2.520   3.902  22.256  0.00  0.00    +0.000 HD
ENDBRANCH  22  23
ENDBRANCH  21  22
ENDBRANCH  19  21
ENDBRANCH  14  17
ENDBRANCH   2  14
TORSDOF 10
ENDMDL
MODEL 5
REMARK VINA RESULT:      -6.3      2.117      6.338
REMARK  Name = 
REMARK  14 active torsions:
REMARK  status: ('A' for Active; 'I' for Inactive)
REMARK    1  A    between atoms: C_1  and  C_2
REMARK    2  A    between atoms: C_2  and  C_3
REMARK    3  A    between atoms: C_2  and  N_4
REMARK    4  A    between atoms: C_2  and  C_15
REMARK    5  A    between atoms: N_5  and  C_6
REMARK    6  A    between atoms: C_6  and  C_7
REMARK    7  A    between atoms: C_6  and  C_8
REMARK    8  A    between atoms: C_6  and  C_9
REMARK    9  A    between atoms: N_11  and  C_12
REMARK   10  A    between atoms: C_12  and  C_13
REMARK   11  A    between atoms: C_13  and  O_14
REMARK   12  A    between atoms: N_17  and  C_18
REMARK   13  A    between atoms: C_18  and  C_19
REMARK   14  A    between atoms: C_19  and  O_20
REMARK                            x       y       z     vdW  Elec       q    Type
REMARK                         _______ _______ _______ _____ _____    ______ ____
ROOT
ATOM      1  N   UNL     1       4.760   5.105  17.752  0.00  0.00    +0.000 NA
ATOM      2  N   UNL     1       5.658   5.424  18.570  0.00  0.00    +0.000 NA
ENDROOT
BRANCH   1   4
ATOM      3  C   UNL     1       2.780   3.681  17.318  0.00  0.00    +0.000 C 
ATOM      4  C   UNL     1       3.583   4.446  18.380  0.00  0.00    +0.000 C 
ATOM      5  C   UNL     1       4.038   3.505  19.501  0.00  0.00    +0.000 C 
BRANCH   4   6
ATOM      6  C   UNL     1       2.701   5.571  18.977  0.00  0.00    +0.000 C 
ATOM      7  O   UNL     1       1.897   5.377  19.891  0.00  0.00    +0.000 OA
ATOM      8  N   UNL     1       2.901   6.835  18.456  0.00  0.00    +0.000 N 
ATOM      9  H   UNL     1       3.482   6.943  17.633  0.00  0.00    +0.000 HD
BRANCH   8  10
ATOM     10  C   UNL     1       2.141   7.985  18.927  0.00  0.00    +0.000 C 
BRANCH  10  11
ATOM     11  C   UNL     1       1.880   9.003  17.816  0.00  0.00    +0.000 C 
BRANCH  11  12
ATOM     12  O   UNL     1       1.096  10.085  18.315  0.00  0.00    +0.000 OA
ATOM     13  H   UNL     1       1.521  10.898  17.989  0.00  0.00    +0.000 HD
ENDBRANCH  11  12
ENDBRANCH  10  11
ENDBRANCH   8  10
ENDBRANCH   4   6
ENDBRANCH   1   4
BRANCH   2  14
ATOM     14  C   UNL     1       6.857   6.060  17.966  0.00  0.00    +0.000 C 
ATOM     15  C   UNL     1       6.519   7.465  17.455  0.00  0.00    +0.000 C 
ATOM     16  C   UNL     1       8.000   6.114  18.985  0.00  0.00    +0.000 C 
BRANCH  14  17
ATOM     17  C   UNL     1       7.265   5.148  16.778  0.00  0.00    +0.000 C 
ATOM     18  O   UNL     1       8.011   4.180  16.900  0.00  0.00    +0.000 OA
ATOM     19  N   UNL     1       6.741   5.507  15.549  0.00  0.00    +0.000 N 
ATOM     20  H   UNL     1       6.048   6.241  15.502  0.00  0.00    +0.000 HD
BRANCH  19  21
ATOM     21  C   UNL     1       7.065   4.776  14.332  0.00  0.00    +0.000 C 
BRANCH  21  22
ATOM     22  C   UNL     1       5.884   3.952  13.822  0.00  0.00    +0.000 C 
BRANCH  22  23
ATOM     23  O   UNL     1       6.332   3.006  12.851  0.00  0.00    +0.000 OA
ATOM     24  H   UNL     1       5.876   3.236  12.022  0.00  0.00    +0.000 HD
ENDBRANCH  22  23
ENDBRANCH  21  22
ENDBRANCH  19  21
ENDBRANCH  14  17
ENDBRANCH   2  14
TORSDOF 10
ENDMDL
MODEL 6
REMARK VINA RESULT:      -6.3      2.092      5.513
REMARK  Name = 
REMARK  14 active torsions:
REMARK  status: ('A' for Active; 'I' for Inactive)
REMARK    1  A    between atoms: C_1  and  C_2
REMARK    2  A    between atoms: C_2  and  C_3
REMARK    3  A    between atoms: C_2  and  N_4
REMARK    4  A    between atoms: C_2  and  C_15
REMARK    5  A    between atoms: N_5  and  C_6
REMARK    6  A    between atoms: C_6  and  C_7
REMARK    7  A    between atoms: C_6  and  C_8
REMARK    8  A    between atoms: C_6  and  C_9
REMARK    9  A    between atoms: N_11  and  C_12
REMARK   10  A    between atoms: C_12  and  C_13
REMARK   11  A    between atoms: C_13  and  O_14
REMARK   12  A    between atoms: N_17  and  C_18
REMARK   13  A    between atoms: C_18  and  C_19
REMARK   14  A    between atoms: C_19  and  O_20
REMARK                            x       y       z     vdW  Elec       q    Type
REMARK                         _______ _______ _______ _____ _____    ______ ____
ROOT
ATOM      1  N   UNL     1       4.991   3.677  17.564  0.00  0.00    +0.000 NA
ATOM      2  N   UNL     1       4.578   4.317  16.565  0.00  0.00    +0.000 NA
ENDROOT
BRANCH   1   4
ATOM      3  C   UNL     1       3.156   2.019  17.702  0.00  0.00    +0.000 C 
ATOM      4  C   UNL     1       3.903   3.147  18.429  0.00  0.00    +0.000 C 
ATOM      5  C   UNL     1       4.479   2.649  19.759  0.00  0.00    +0.000 C 
BRANCH   4   6
ATOM      6  C   UNL     1       2.925   4.318  18.695  0.00  0.00    +0.000 C 
ATOM      7  O   UNL     1       1.709   4.228  18.523  0.00  0.00    +0.000 OA
ATOM      8  N   UNL     1       3.493   5.475  19.193  0.00  0.00    +0.000 N 
ATOM      9  H   UNL     1       4.503   5.560  19.216  0.00  0.00    +0.000 HD
BRANCH   8  10
ATOM     10  C   UNL     1       2.690   6.655  19.491  0.00  0.00    +0.000 C 
BRANCH  10  11
ATOM     11  C   UNL     1       2.411   7.496  18.244  0.00  0.00    +0.000 C 
BRANCH  11  12
ATOM     12  O   UNL     1       3.640   7.868  17.619  0.00  0.00    +0.000 OA
ATOM     13  H   UNL     1       3.889   7.118  17.051  0.00  0.00    +0.000 HD
ENDBRANCH  11  12
ENDBRANCH  10  11
ENDBRANCH   8  10
ENDBRANCH   4   6
ENDBRANCH   1   4
BRANCH   2  14
ATOM     14  C   UNL     1       5.645   4.880  15.698  0.00  0.00    +0.000 C 
ATOM     15  C   UNL     1       6.013   3.891  14.587  0.00  0.00    +0.000 C 
ATOM     16  C   UNL     1       5.194   6.220  15.103  0.00  0.00    +0.000 C 
BRANCH  14  17
ATOM     17  C   UNL     1       6.866   5.112  16.628  0.00  0.00    +0.000 C 
ATOM     18  O   UNL     1       7.853   4.381  16.635  0.00  0.00    +0.000 OA
ATOM     19  N   UNL     1       6.767   6.202  17.474  0.00  0.00    +0.000 N 
ATOM     20  H   UNL     1       5.993   6.843  17.367  0.00  0.00    +0.000 HD
BRANCH  19  21
ATOM     21  C   UNL     1       7.811   6.526  18.436  0.00  0.00    +0.000 C 
BRANCH  21  22
ATOM     22  C   UNL     1       7.737   5.651  19.686  0.00  0.00    +0.000 C 
BRANCH  22  23
ATOM     23  O   UNL     1       6.390   5.237  19.913  0.00  0.00    +0.000 OA
ATOM     24  H   UNL     1       6.122   5.644  20.756  0.00  0.00    +0.000 HD
ENDBRANCH  22  23
ENDBRANCH  21  22
ENDBRANCH  19  21
ENDBRANCH  14  17
ENDBRANCH   2  14
TORSDOF 10
ENDMDL
MODEL 7
REMARK VINA RESULT:      -6.3      0.734      6.541
REMARK  Name = 
REMARK  14 active torsions:
REMARK  status: ('A' for Active; 'I' for Inactive)
REMARK    1  A    between atoms: C_1  and  C_2
REMARK    2  A    between atoms: C_2  and  C_3
REMARK    3  A    between atoms: C_2  and  N_4
REMARK    4  A    between atoms: C_2  and  C_15
REMARK    5  A    between atoms: N_5  and  C_6
REMARK    6  A    between atoms: C_6  and  C_7
REMARK    7  A    between atoms: C_6  and  C_8
REMARK    8  A    between atoms: C_6  and  C_9
REMARK    9  A    between atoms: N_11  and  C_12
REMARK   10  A    between atoms: C_12  and  C_13
REMARK   11  A    between atoms: C_13  and  O_14
REMARK   12  A    between atoms: N_17  and  C_18
REMARK   13  A    between atoms: C_18  and  C_19
REMARK   14  A    between atoms: C_19  and  O_20
REMARK                            x       y       z     vdW  Elec       q    Type
REMARK                         _______ _______ _______ _____ _____    ______ ____
ROOT
ATOM      1  N   UNL     1       5.152   5.074  17.766  0.00  0.00    +0.000 NA
ATOM      2  N   UNL     1       5.685   6.173  18.054  0.00  0.00    +0.000 NA
ENDROOT
BRANCH   1   4
ATOM      3  C   UNL     1       3.104   6.457  17.943  0.00  0.00    +0.000 C 
ATOM      4  C   UNL     1       3.684   5.037  18.009  0.00  0.00    +0.000 C 
ATOM      5  C   UNL     1       3.001   4.121  16.987  0.00  0.00    +0.000 C 
BRANCH   4   6
ATOM      6  C   UNL     1       3.476   4.464  19.434  0.00  0.00    +0.000 C 
ATOM      7  O   UNL     1       4.382   3.936  20.081  0.00  0.00    +0.000 OA
ATOM      8  N   UNL     1       2.213   4.625  19.969  0.00  0.00    +0.000 N 
ATOM      9  H   UNL     1       1.463   4.958  19.374  0.00  0.00    +0.000 HD
BRANCH   8  10
ATOM     10  C   UNL     1       1.880   4.136  21.301  0.00  0.00    +0.000 C 
BRANCH  10  11
ATOM     11  C   UNL     1       1.421   2.677  21.285  0.00  0.00    +0.000 C 
BRANCH  11  12
ATOM     12  O   UNL     1       1.070   2.259  22.604  0.00  0.00    +0.000 OA
ATOM     13  H   UNL     1       1.203   3.035  23.175  0.00  0.00    +0.000 HD
ENDBRANCH  11  12
ENDBRANCH  10  11
ENDBRANCH   8  10
ENDBRANCH   4   6
ENDBRANCH   1   4
BRANCH   2  14
ATOM     14  C   UNL     1       7.155   6.230  17.845  0.00  0.00    +0.000 C 
ATOM     15  C   UNL     1       7.593   7.656  17.495  0.00  0.00    +0.000 C 
ATOM     16  C   UNL     1       7.889   5.728  19.094  0.00  0.00    +0.000 C 
BRANCH  14  17
ATOM     17  C   UNL     1       7.448   5.278  16.655  0.00  0.00    +0.000 C 
ATOM     18  O   UNL     1       8.138   4.266  16.758  0.00  0.00    +0.000 OA
ATOM     19  N   UNL     1       6.889   5.651  15.447  0.00  0.00    +0.000 N 
ATOM     20  H   UNL     1       6.239   6.425  15.420  0.00  0.00    +0.000 HD
BRANCH  19  21
ATOM     21  C   UNL     1       7.107   4.884  14.228  0.00  0.00    +0.000 C 
BRANCH  21  22
ATOM     22  C   UNL     1       5.967   3.907  13.948  0.00  0.00    +0.000 C 
BRANCH  22  23
ATOM     23  O   UNL     1       6.362   2.969  12.947  0.00  0.00    +0.000 OA
ATOM     24  H   UNL     1       7.132   3.362  12.500  0.00  0.00    +0.000 HD
ENDBRANCH  22  23
ENDBRANCH  21  22
ENDBRANCH  19  21
ENDBRANCH  14  17
ENDBRANCH   2  14
TORSDOF 10
ENDMDL
MODEL 8
REMARK VINA RESULT:      -6.3      1.797      2.214
REMARK  Name = 
REMARK  14 active torsions:
REMARK  status: ('A' for Active; 'I' for Inactive)
REMARK    1  A    between atoms: C_1  and  C_2
REMARK    2  A    between atoms: C_2  and  C_3
REMARK    3  A    between atoms: C_2  and  N_4
REMARK    4  A    between atoms: C_2  and  C_15
REMARK    5  A    between atoms: N_5  and  C_6
REMARK    6  A    between atoms: C_6  and  C_7
REMARK    7  A    between atoms: C_6  and  C_8
REMARK    8  A    between atoms: C_6  and  C_9
REMARK    9  A    between atoms: N_11  and  C_12
REMARK   10  A    between atoms: C_12  and  C_13
REMARK   11  A    between atoms: C_13  and  O_14
REMARK   12  A    between atoms: N_17  and  C_18
REMARK   13  A    between atoms: C_18  and  C_19
REMARK   14  A    between atoms: C_19  and  O_20
REMARK                            x       y       z     vdW  Elec       q    Type
REMARK                         _______ _______ _______ _____ _____    ______ ____
ROOT
ATOM      1  N   UNL     1       5.429   5.616  18.676  0.00  0.00    +0.000 NA
ATOM      2  N   UNL     1       4.545   6.272  18.072  0.00  0.00    +0.000 NA
ENDROOT
BRANCH   1   4
ATOM      3  C   UNL     1       6.900   7.306  17.620  0.00  0.00    +0.000 C 
ATOM      4  C   UNL     1       6.811   5.884  18.193  0.00  0.00    +0.000 C 
ATOM      5  C   UNL     1       7.817   5.693  19.334  0.00  0.00    +0.000 C 
BRANCH   4   6
ATOM      6  C   UNL     1       7.104   4.860  17.069  0.00  0.00    +0.000 C 
ATOM      7  O   UNL     1       8.147   4.206  17.016  0.00  0.00    +0.000 OA
ATOM      8  N   UNL     1       6.097   4.678  16.142  0.00  0.00    +0.000 N 
ATOM      9  H   UNL     1       5.303   5.308  16.144  0.00  0.00    +0.000 HD
BRANCH   8  10
ATOM     10  C   UNL     1       6.239   3.743  15.032  0.00  0.00    +0.000 C 
BRANCH  10  11
ATOM     11  C   UNL     1       6.758   4.423  13.764  0.00  0.00    +0.000 C 
BRANCH  11  12
ATOM     12  O   UNL     1       7.702   5.438  14.103  0.00  0.00    +0.000 OA
ATOM     13  H   UNL     1       7.211   6.098  14.624  0.00  0.00    +0.000 HD
ENDBRANCH  11  12
ENDBRANCH  10  11
ENDBRANCH   8  10
ENDBRANCH   4   6
ENDBRANCH   1   4
BRANCH   2  14
ATOM     14  C   UNL     1       3.153   6.003  18.517  0.00  0.00    +0.000 C 
ATOM     15  C   UNL     1       3.036   6.155  20.038  0.00  0.00    +0.000 C 
ATOM     16  C   UNL     1       2.176   6.942  17.801  0.00  0.00    +0.000 C 
BRANCH  14  17
ATOM     17  C   UNL     1       2.855   4.536  18.107  0.00  0.00    +0.000 C 
ATOM     18  O   UNL     1       2.817   4.159  16.938  0.00  0.00    +0.000 OA
ATOM     19  N   UNL     1       2.617   3.665  19.155  0.00  0.00    +0.000 N 
ATOM     20  H   UNL     1       2.763   3.981  20.104  0.00  0.00    +0.000 HD
BRANCH  19  21
ATOM     21  C   UNL     1       2.281   2.266  18.932  0.00  0.00    +0.000 C 
BRANCH  21  22
ATOM     22  C   UNL     1       3.520   1.374  18.897  0.00  0.00    +0.000 C 
BRANCH  22  23
ATOM     23  O   UNL     1       4.256   1.605  17.695  0.00  0.00    +0.000 OA
ATOM     24  H   UNL     1       5.119   1.961  17.973  0.00  0.00    +0.000 HD
ENDBRANCH  22  23
ENDBRANCH  21  22
ENDBRANCH  19  21
ENDBRANCH  14  17
ENDBRANCH   2  14
TORSDOF 10
ENDMDL
MODEL 9
REMARK VINA RESULT:      -6.2      1.783      2.388
REMARK  Name = 
REMARK  14 active torsions:
REMARK  status: ('A' for Active; 'I' for Inactive)
REMARK    1  A    between atoms: C_1  and  C_2
REMARK    2  A    between atoms: C_2  and  C_3
REMARK    3  A    between atoms: C_2  and  N_4
REMARK    4  A    between atoms: C_2  and  C_15
REMARK    5  A    between atoms: N_5  and  C_6
REMARK    6  A    between atoms: C_6  and  C_7
REMARK    7  A    between atoms: C_6  and  C_8
REMARK    8  A    between atoms: C_6  and  C_9
REMARK    9  A    between atoms: N_11  and  C_12
REMARK   10  A    between atoms: C_12  and  C_13
REMARK   11  A    between atoms: C_13  and  O_14
REMARK   12  A    between atoms: N_17  and  C_18
REMARK   13  A    between atoms: C_18  and  C_19
REMARK   14  A    between atoms: C_19  and  O_20
REMARK                            x       y       z     vdW  Elec       q    Type
REMARK                         _______ _______ _______ _____ _____    ______ ____
ROOT
ATOM      1  N   UNL     1       5.470   4.183  18.842  0.00  0.00    +0.000 NA
ATOM      2  N   UNL     1       4.340   4.016  18.321  0.00  0.00    +0.000 NA
ENDROOT
BRANCH   1   4
ATOM      3  C   UNL     1       5.381   6.419  17.778  0.00  0.00    +0.000 C 
ATOM      4  C   UNL     1       6.282   5.244  18.186  0.00  0.00    +0.000 C 
ATOM      5  C   UNL     1       7.397   5.715  19.127  0.00  0.00    +0.000 C 
BRANCH   4   6
ATOM      6  C   UNL     1       6.909   4.615  16.918  0.00  0.00    +0.000 C 
ATOM      7  O   UNL     1       8.083   4.246  16.864  0.00  0.00    +0.000 OA
ATOM      8  N   UNL     1       6.053   4.438  15.847  0.00  0.00    +0.000 N 
ATOM      9  H   UNL     1       5.129   4.853  15.880  0.00  0.00    +0.000 HD
BRANCH   8  10
ATOM     10  C   UNL     1       6.510   3.856  14.591  0.00  0.00    +0.000 C 
BRANCH  10  11
ATOM     11  C   UNL     1       5.449   3.939  13.493  0.00  0.00    +0.000 C 
BRANCH  11  12
ATOM     12  O   UNL     1       5.915   3.290  12.311  0.00  0.00    +0.000 OA
ATOM     13  H   UNL     1       6.876   3.440  12.284  0.00  0.00    +0.000 HD
ENDBRANCH  11  12
ENDBRANCH  10  11
ENDBRANCH   8  10
ENDBRANCH   4   6
ENDBRANCH   1   4
BRANCH   2  14
ATOM     14  C   UNL     1       3.518   2.944  18.940  0.00  0.00    +0.000 C 
ATOM     15  C   UNL     1       2.936   2.023  17.862  0.00  0.00    +0.000 C 
ATOM     16  C   UNL     1       4.357   2.143  19.942  0.00  0.00    +0.000 C 
BRANCH  14  17
ATOM     17  C   UNL     1       2.372   3.672  19.691  0.00  0.00    +0.000 C 
ATOM     18  O   UNL     1       1.323   3.119  20.015  0.00  0.00    +0.000 OA
ATOM     19  N   UNL     1       2.599   5.009  19.965  0.00  0.00    +0.000 N 
ATOM     20  H   UNL     1       3.511   5.403  19.783  0.00  0.00    +0.000 HD
BRANCH  19  21
ATOM     21  C   UNL     1       1.601   5.839  20.626  0.00  0.00    +0.000 C 
BRANCH  21  22
ATOM     22  C   UNL     1       1.858   7.330  20.413  0.00  0.00    +0.000 C 
BRANCH  22  23
ATOM     23  O   UNL     1       1.650   8.040  21.634  0.00  0.00    +0.000 OA
ATOM     24  H   UNL     1       0.951   8.692  21.450  0.00  0.00    +0.000 HD
ENDBRANCH  22  23
ENDBRANCH  21  22
ENDBRANCH  19  21
ENDBRANCH  14  17
ENDBRANCH   2  14
TORSDOF 10
ENDMDL
