MODEL 1
REMARK VINA RESULT:      -9.1      0.000      0.000
REMARK  Name = 
REMARK  8 active torsions:
REMARK  status: ('A' for Active; 'I' for Inactive)
REMARK    1  A    between atoms: C_1  and  C_2
REMARK    2  A    between atoms: N_8  and  C_9
REMARK    3  A    between atoms: C_9  and  C_10
REMARK    4  A    between atoms: C_21  and  C_22
REMARK    5  A    between atoms: N_24  and  C_25
REMARK    6  A    between atoms: C_28  and  C_29
REMARK    7  A    between atoms: C_29  and  C_30
REMARK    8  A    between atoms: C_29  and  C_31
REMARK                            x       y       z     vdW  Elec       q    Type
REMARK                         _______ _______ _______ _____ _____    ______ ____
ROOT
ATOM      1  C   UNL     1       3.257   2.336  19.157  0.00  0.00    +0.000 C 
ATOM      2  C   UNL     1       2.799   3.714  19.546  0.00  0.00    +0.000 A 
ATOM      3  C   UNL     1       1.942   3.902  20.636  0.00  0.00    +0.000 A 
ATOM      4  C   UNL     1       1.501   5.181  20.969  0.00  0.00    +0.000 A 
ATOM      5  C   UNL     1       1.881   6.266  20.170  0.00  0.00    +0.000 A 
ATOM      6  C   UNL     1       2.688   6.107  19.030  0.00  0.00    +0.000 A 
ATOM      7  C   UNL     1       3.180   4.821  18.764  0.00  0.00    +0.000 A 
ATOM      8  N   UNL     1       2.939   7.228  18.160  0.00  0.00    +0.000 N 
ATOM      9  C   UNL     1       2.436   8.521  18.450  0.00  0.00    +0.000 A 
ATOM     10  O   UNL     1       2.582   9.466  17.678  0.00  0.00    +0.000 OA
ATOM     11  C   UNL     1       1.722   8.646  19.691  0.00  0.00    +0.000 A 
ATOM     12  N   UNL     1       1.209   9.734  20.241  0.00  0.00    +0.000 NA
ATOM     13  C   UNL     1       0.643   9.252  21.411  0.00  0.00    +0.000 A 
ATOM     14  N   UNL     1       0.741   7.913  21.549  0.00  0.00    +0.000 NA
ATOM     15  N   UNL     1       1.452   7.563  20.467  0.00  0.00    +0.000 N 
ENDROOT
BRANCH  13  16
ATOM     16  C   UNL     1       0.011  10.107  22.447  0.00  0.00    +0.000 C 
ATOM     17  O   UNL     1       0.149   9.842  23.637  0.00  0.00    +0.000 OA
ATOM     18  N   UNL     1      -0.743  11.174  21.950  0.00  0.00    +0.000 N 
ATOM     19  H   UNL     1      -0.893  11.180  20.947  0.00  0.00    +0.000 HD
BRANCH  18  20
ATOM     20  C   UNL     1      -1.443  12.114  22.751  0.00  0.00    +0.000 A 
ATOM     21  C   UNL     1      -2.694  11.843  23.307  0.00  0.00    +0.000 A 
ATOM     22  C   UNL     1      -3.423  12.833  23.974  0.00  0.00    +0.000 A 
ATOM     23  C   UNL     1      -2.918  14.128  24.114  0.00  0.00    +0.000 A 
ATOM     24  C   UNL     1      -1.622  14.379  23.642  0.00  0.00    +0.000 A 
ATOM     25  C   UNL     1      -0.885  13.377  22.976  0.00  0.00    +0.000 A 
BRANCH  23  26
ATOM     26  C   UNL     1      -3.815  15.200  24.714  0.00  0.00    +0.000 C 
ATOM     27  C   UNL     1      -3.083  16.512  24.990  0.00  0.00    +0.000 C 
ATOM     28  C   UNL     1      -5.059  15.439  23.855  0.00  0.00    +0.000 C 
ENDBRANCH  23  26
ENDBRANCH  18  20
ENDBRANCH  13  16
BRANCH   8  29
ATOM     29  C   UNL     1       3.447   7.005  16.802  0.00  0.00    +0.000 C 
BRANCH  29  30
ATOM     30  C   UNL     1       4.797   6.332  16.666  0.00  0.00    +0.000 A 
ATOM     31  C   UNL     1       5.919   6.770  17.385  0.00  0.00    +0.000 A 
ATOM     32  C   UNL     1       7.202   6.310  17.066  0.00  0.00    +0.000 A 
ATOM     33  C   UNL     1       7.382   5.403  16.025  0.00  0.00    +0.000 A 
ATOM     34  C   UNL     1       6.275   4.934  15.326  0.00  0.00    +0.000 A 
ATOM     35 CL   UNL     1       6.493   3.836  14.017  0.00  0.00    +0.000 Cl
ATOM     36  C   UNL     1       4.992   5.383  15.645  0.00  0.00    +0.000 A 
ENDBRANCH  29  30
ENDBRANCH   8  29
TORSDOF 5
ENDMDL
MODEL 2
REMARK VINA RESULT:      -8.9      1.090      1.480
REMARK  Name = 
REMARK  8 active torsions:
REMARK  status: ('A' for Active; 'I' for Inactive)
REMARK    1  A    between atoms: C_1  and  C_2
REMARK    2  A    between atoms: N_8  and  C_9
REMARK    3  A    between atoms: C_9  and  C_10
REMARK    4  A    between atoms: C_21  and  C_22
REMARK    5  A    between atoms: N_24  and  C_25
REMARK    6  A    between atoms: C_28  and  C_29
REMARK    7  A    between atoms: C_29  and  C_30
REMARK    8  A    between atoms: C_29  and  C_31
REMARK                            x       y       z     vdW  Elec       q    Type
REMARK                         _______ _______ _______ _____ _____    ______ ____
ROOT
ATOM      1  C   UNL     1       3.528   2.176  19.643  0.00  0.00    +0.000 C 
ATOM      2  C   UNL     1       3.032   3.573  19.897  0.00  0.00    +0.000 A 
ATOM      3  C   UNL     1       2.207   3.850  20.993  0.00  0.00    +0.000 A 
ATOM      4  C   UNL     1       1.730   5.143  21.201  0.00  0.00    +0.000 A 
ATOM      5  C   UNL     1       2.042   6.145  20.275  0.00  0.00    +0.000 A 
ATOM      6  C   UNL     1       2.814   5.889  19.129  0.00  0.00    +0.000 A 
ATOM      7  C   UNL     1       3.345   4.599  18.986  0.00  0.00    +0.000 A 
ATOM      8  N   UNL     1       2.993   6.916  18.133  0.00  0.00    +0.000 N 
ATOM      9  C   UNL     1       2.452   8.215  18.300  0.00  0.00    +0.000 A 
ATOM     10  O   UNL     1       2.536   9.074  17.425  0.00  0.00    +0.000 OA
ATOM     11  C   UNL     1       1.777   8.452  19.547  0.00  0.00    +0.000 A 
ATOM     12  N   UNL     1       1.243   9.576  19.995  0.00  0.00    +0.000 NA
ATOM     13  C   UNL     1       0.736   9.207  21.232  0.00  0.00    +0.000 A 
ATOM     14  N   UNL     1       0.889   7.896  21.510  0.00  0.00    +0.000 NA
ATOM     15  N   UNL     1       1.575   7.453  20.446  0.00  0.00    +0.000 N 
ENDROOT
BRANCH  13  16
ATOM     16  C   UNL     1       0.109  10.149  22.192  0.00  0.00    +0.000 C 
ATOM     17  O   UNL     1       0.141   9.917  23.396  0.00  0.00    +0.000 OA
ATOM     18  N   UNL     1      -0.514  11.256  21.609  0.00  0.00    +0.000 N 
ATOM     19  H   UNL     1      -0.594  11.237  20.598  0.00  0.00    +0.000 HD
BRANCH  18  20
ATOM     20  C   UNL     1      -1.186  12.280  22.327  0.00  0.00    +0.000 A 
ATOM     21  C   UNL     1      -2.390  12.061  22.998  0.00  0.00    +0.000 A 
ATOM     22  C   UNL     1      -3.101  13.116  23.580  0.00  0.00    +0.000 A 
ATOM     23  C   UNL     1      -2.623  14.427  23.517  0.00  0.00    +0.000 A 
ATOM     24  C   UNL     1      -1.367  14.638  22.928  0.00  0.00    +0.000 A 
ATOM     25  C   UNL     1      -0.649  13.571  22.349  0.00  0.00    +0.000 A 
BRANCH  23  26
ATOM     26  C   UNL     1      -3.507  15.551  24.033  0.00  0.00    +0.000 C 
ATOM     27  C   UNL     1      -4.999  15.263  23.882  0.00  0.00    +0.000 C 
ATOM     28  C   UNL     1      -3.166  15.916  25.481  0.00  0.00    +0.000 C 
ENDBRANCH  23  26
ENDBRANCH  18  20
ENDBRANCH  13  16
BRANCH   8  29
ATOM     29  C   UNL     1       3.461   6.562  16.789  0.00  0.00    +0.000 C 
BRANCH  29  30
ATOM     30  C   UNL     1       4.894   6.092  16.653  0.00  0.00    +0.000 A 
ATOM     31  C   UNL     1       5.238   4.980  15.869  0.00  0.00    +0.000 A 
ATOM     32  C   UNL     1       6.513   4.409  15.951  0.00  0.00    +0.000 A 
ATOM     33  C   UNL     1       7.466   4.942  16.817  0.00  0.00    +0.000 A 
ATOM     34  C   UNL     1       7.150   6.066  17.574  0.00  0.00    +0.000 A 
ATOM     35 CL   UNL     1       8.311   6.712  18.670  0.00  0.00    +0.000 Cl
ATOM     36  C   UNL     1       5.881   6.644  17.490  0.00  0.00    +0.000 A 
ENDBRANCH  29  30
ENDBRANCH   8  29
TORSDOF 5
ENDMDL
MODEL 3
REMARK VINA RESULT:      -8.8      1.114      1.565
REMARK  Name = 
REMARK  8 active torsions:
REMARK  status: ('A' for Active; 'I' for Inactive)
REMARK    1  A    between atoms: C_1  and  C_2
REMARK    2  A    between atoms: N_8  and  C_9
REMARK    3  A    between atoms: C_9  and  C_10
REMARK    4  A    between atoms: C_21  and  C_22
REMARK    5  A    between atoms: N_24  and  C_25
REMARK    6  A    between atoms: C_28  and  C_29
REMARK    7  A    between atoms: C_29  and  C_30
REMARK    8  A    between atoms: C_29  and  C_31
REMARK                            x       y       z     vdW  Elec       q    Type
REMARK                         _______ _______ _______ _____ _____    ______ ____
ROOT
ATOM      1  C   UNL     1       3.194   2.331  19.433  0.00  0.00    +0.000 C 
ATOM      2  C   UNL     1       2.752   3.744  19.698  0.00  0.00    +0.000 A 
ATOM      3  C   UNL     1       1.876   4.033  20.750  0.00  0.00    +0.000 A 
ATOM      4  C   UNL     1       1.450   5.342  20.967  0.00  0.00    +0.000 A 
ATOM      5  C   UNL     1       1.867   6.352  20.091  0.00  0.00    +0.000 A 
ATOM      6  C   UNL     1       2.695   6.088  18.987  0.00  0.00    +0.000 A 
ATOM      7  C   UNL     1       3.170   4.777  18.838  0.00  0.00    +0.000 A 
ATOM      8  N   UNL     1       2.984   7.130  18.034  0.00  0.00    +0.000 N 
ATOM      9  C   UNL     1       2.498   8.450  18.206  0.00  0.00    +0.000 A 
ATOM     10  O   UNL     1       2.677   9.326  17.364  0.00  0.00    +0.000 OA
ATOM     11  C   UNL     1       1.760   8.687  19.417  0.00  0.00    +0.000 A 
ATOM     12  N   UNL     1       1.254   9.825  19.865  0.00  0.00    +0.000 NA
ATOM     13  C   UNL     1       0.656   9.449  21.058  0.00  0.00    +0.000 A 
ATOM     14  N   UNL     1       0.728   8.125  21.306  0.00  0.00    +0.000 NA
ATOM     15  N   UNL     1       1.454   7.676  20.273  0.00  0.00    +0.000 N 
ENDROOT
BRANCH  13  16
ATOM     16  C   UNL     1       0.017  10.396  22.006  0.00  0.00    +0.000 C 
ATOM     17  O   UNL     1       0.160  10.250  23.216  0.00  0.00    +0.000 OA
ATOM     18  N   UNL     1      -0.747  11.402  21.409  0.00  0.00    +0.000 N 
ATOM     19  H   UNL     1      -0.899  11.307  20.410  0.00  0.00    +0.000 HD
BRANCH  18  20
ATOM     20  C   UNL     1      -1.455  12.409  22.115  0.00  0.00    +0.000 A 
ATOM     21  C   UNL     1      -0.813  13.372  22.896  0.00  0.00    +0.000 A 
ATOM     22  C   UNL     1      -1.538  14.265  23.690  0.00  0.00    +0.000 A 
ATOM     23  C   UNL     1      -2.934  14.231  23.722  0.00  0.00    +0.000 A 
ATOM     24  C   UNL     1      -3.586  13.331  22.867  0.00  0.00    +0.000 A 
ATOM     25  C   UNL     1      -2.853  12.436  22.060  0.00  0.00    +0.000 A 
BRANCH  23  26
ATOM     26  C   UNL     1      -3.664  15.122  24.715  0.00  0.00    +0.000 C 
ATOM     27  C   UNL     1      -2.830  16.314  25.181  0.00  0.00    +0.000 C 
ATOM     28  C   UNL     1      -5.017  15.585  24.168  0.00  0.00    +0.000 C 
ENDBRANCH  23  26
ENDBRANCH  18  20
ENDBRANCH  13  16
BRANCH   8  29
ATOM     29  C   UNL     1       3.516   6.788  16.711  0.00  0.00    +0.000 C 
BRANCH  29  30
ATOM     30  C   UNL     1       4.931   6.253  16.647  0.00  0.00    +0.000 A 
ATOM     31  C   UNL     1       5.267   5.136  15.866  0.00  0.00    +0.000 A 
ATOM     32  C   UNL     1       6.507   4.505  16.010  0.00  0.00    +0.000 A 
ATOM     33  C   UNL     1       7.433   4.982  16.935  0.00  0.00    +0.000 A 
ATOM     34  C   UNL     1       7.128   6.109  17.690  0.00  0.00    +0.000 A 
ATOM     35 CL   UNL     1       8.255   6.687  18.857  0.00  0.00    +0.000 Cl
ATOM     36  C   UNL     1       5.894   6.748  17.545  0.00  0.00    +0.000 A 
ENDBRANCH  29  30
ENDBRANCH   8  29
TORSDOF 5
ENDMDL
MODEL 4
REMARK VINA RESULT:      -8.7      4.053     11.476
REMARK  Name = 
REMARK  8 active torsions:
REMARK  status: ('A' for Active; 'I' for Inactive)
REMARK    1  A    between atoms: C_1  and  C_2
REMARK    2  A    between atoms: N_8  and  C_9
REMARK    3  A    between atoms: C_9  and  C_10
REMARK    4  A    between atoms: C_21  and  C_22
REMARK    5  A    between atoms: N_24  and  C_25
REMARK    6  A    between atoms: C_28  and  C_29
REMARK    7  A    between atoms: C_29  and  C_30
REMARK    8  A    between atoms: C_29  and  C_31
REMARK                            x       y       z     vdW  Elec       q    Type
REMARK                         _______ _______ _______ _____ _____    ______ ____
ROOT
ATOM      1  C   UNL     1      -5.956  13.597  19.496  0.00  0.00    +0.000 C 
ATOM      2  C   UNL     1      -4.644  12.862  19.489  0.00  0.00    +0.000 A 
ATOM      3  C   UNL     1      -4.256  12.103  18.380  0.00  0.00    +0.000 A 
ATOM      4  C   UNL     1      -3.052  11.402  18.397  0.00  0.00    +0.000 A 
ATOM      5  C   UNL     1      -2.263  11.425  19.553  0.00  0.00    +0.000 A 
ATOM      6  C   UNL     1      -2.652  12.123  20.709  0.00  0.00    +0.000 A 
ATOM      7  C   UNL     1      -3.829  12.882  20.637  0.00  0.00    +0.000 A 
ATOM      8  N   UNL     1      -1.879  12.005  21.920  0.00  0.00    +0.000 N 
ATOM      9  C   UNL     1      -0.689  11.236  21.970  0.00  0.00    +0.000 A 
ATOM     10  O   UNL     1      -0.064  11.069  23.014  0.00  0.00    +0.000 OA
ATOM     11  C   UNL     1      -0.278  10.646  20.725  0.00  0.00    +0.000 A 
ATOM     12  N   UNL     1       0.813   9.944  20.466  0.00  0.00    +0.000 NA
ATOM     13  C   UNL     1       0.671   9.636  19.122  0.00  0.00    +0.000 A 
ATOM     14  N   UNL     1      -0.490  10.069  18.587  0.00  0.00    +0.000 NA
ATOM     15  N   UNL     1      -1.052  10.727  19.611  0.00  0.00    +0.000 N 
ENDROOT
BRANCH  13  16
ATOM     16  C   UNL     1       1.695   8.926  18.316  0.00  0.00    +0.000 C 
ATOM     17  O   UNL     1       2.119   9.425  17.278  0.00  0.00    +0.000 OA
ATOM     18  N   UNL     1       2.085   7.683  18.821  0.00  0.00    +0.000 N 
ATOM     19  H   UNL     1       1.541   7.333  19.601  0.00  0.00    +0.000 HD
BRANCH  18  20
ATOM     20  C   UNL     1       3.040   6.825  18.215  0.00  0.00    +0.000 A 
ATOM     21  C   UNL     1       4.231   7.298  17.662  0.00  0.00    +0.000 A 
ATOM     22  C   UNL     1       5.088   6.453  16.949  0.00  0.00    +0.000 A 
ATOM     23  C   UNL     1       4.784   5.101  16.774  0.00  0.00    +0.000 A 
ATOM     24  C   UNL     1       3.638   4.601  17.409  0.00  0.00    +0.000 A 
ATOM     25  C   UNL     1       2.779   5.453  18.134  0.00  0.00    +0.000 A 
BRANCH  23  26
ATOM     26  C   UNL     1       5.672   4.264  15.866  0.00  0.00    +0.000 C 
ATOM     27  C   UNL     1       5.359   4.447  14.383  0.00  0.00    +0.000 C 
ATOM     28  C   UNL     1       7.157   4.514  16.145  0.00  0.00    +0.000 C 
ENDBRANCH  23  26
ENDBRANCH  18  20
ENDBRANCH  13  16
BRANCH   8  29
ATOM     29  C   UNL     1      -2.461  12.408  23.204  0.00  0.00    +0.000 C 
BRANCH  29  30
ATOM     30  C   UNL     1      -2.344  13.867  23.594  0.00  0.00    +0.000 A 
ATOM     31  C   UNL     1      -1.102  14.468  23.849  0.00  0.00    +0.000 A 
ATOM     32  C   UNL     1      -1.024  15.731  24.447  0.00  0.00    +0.000 A 
ATOM     33  C   UNL     1      -2.187  16.414  24.796  0.00  0.00    +0.000 A 
ATOM     34  C   UNL     1      -3.425  15.845  24.516  0.00  0.00    +0.000 A 
ATOM     35 CL   UNL     1      -4.867  16.669  24.973  0.00  0.00    +0.000 Cl
ATOM     36  C   UNL     1      -3.509  14.588  23.913  0.00  0.00    +0.000 A 
ENDBRANCH  29  30
ENDBRANCH   8  29
TORSDOF 5
ENDMDL
MODEL 5
REMARK VINA RESULT:      -8.4      7.406      9.381
REMARK  Name = 
REMARK  8 active torsions:
REMARK  status: ('A' for Active; 'I' for Inactive)
REMARK    1  A    between atoms: C_1  and  C_2
REMARK    2  A    between atoms: N_8  and  C_9
REMARK    3  A    between atoms: C_9  and  C_10
REMARK    4  A    between atoms: C_21  and  C_22
REMARK    5  A    between atoms: N_24  and  C_25
REMARK    6  A    between atoms: C_28  and  C_29
REMARK    7  A    between atoms: C_29  and  C_30
REMARK    8  A    between atoms: C_29  and  C_31
REMARK                            x       y       z     vdW  Elec       q    Type
REMARK                         _______ _______ _______ _____ _____    ______ ____
ROOT
ATOM      1  C   UNL     1       5.794   2.839  12.230  0.00  0.00    +0.000 C 
ATOM      2  C   UNL     1       6.129   3.756  13.373  0.00  0.00    +0.000 A 
ATOM      3  C   UNL     1       7.111   4.744  13.233  0.00  0.00    +0.000 A 
ATOM      4  C   UNL     1       7.433   5.569  14.308  0.00  0.00    +0.000 A 
ATOM      5  C   UNL     1       6.802   5.364  15.542  0.00  0.00    +0.000 A 
ATOM      6  C   UNL     1       5.859   4.341  15.737  0.00  0.00    +0.000 A 
ATOM      7  C   UNL     1       5.498   3.576  14.618  0.00  0.00    +0.000 A 
ATOM      8  N   UNL     1       5.340   4.077  17.055  0.00  0.00    +0.000 N 
ATOM      9  C   UNL     1       5.714   4.865  18.173  0.00  0.00    +0.000 A 
ATOM     10  O   UNL     1       5.335   4.603  19.311  0.00  0.00    +0.000 OA
ATOM     11  C   UNL     1       6.586   5.972  17.888  0.00  0.00    +0.000 A 
ATOM     12  N   UNL     1       7.036   6.901  18.715  0.00  0.00    +0.000 NA
ATOM     13  C   UNL     1       7.828   7.689  17.894  0.00  0.00    +0.000 A 
ATOM     14  N   UNL     1       7.921   7.230  16.628  0.00  0.00    +0.000 NA
ATOM     15  N   UNL     1       7.105   6.167  16.646  0.00  0.00    +0.000 N 
ENDROOT
BRANCH  13  16
ATOM     16  C   UNL     1       8.497   8.940  18.330  0.00  0.00    +0.000 C 
ATOM     17  O   UNL     1       9.286   8.924  19.270  0.00  0.00    +0.000 OA
ATOM     18  N   UNL     1       8.132  10.084  17.615  0.00  0.00    +0.000 N 
ATOM     19  H   UNL     1       7.358   9.972  16.969  0.00  0.00    +0.000 HD
BRANCH  18  20
ATOM     20  C   UNL     1       8.633  11.388  17.861  0.00  0.00    +0.000 A 
ATOM     21  C   UNL     1       7.955  12.542  17.464  0.00  0.00    +0.000 A 
ATOM     22  C   UNL     1       8.534  13.808  17.593  0.00  0.00    +0.000 A 
ATOM     23  C   UNL     1       9.813  13.963  18.135  0.00  0.00    +0.000 A 
ATOM     24  C   UNL     1      10.458  12.818  18.624  0.00  0.00    +0.000 A 
ATOM     25  C   UNL     1       9.869  11.542  18.499  0.00  0.00    +0.000 A 
BRANCH  23  26
ATOM     26  C   UNL     1      10.452  15.342  18.114  0.00  0.00    +0.000 C 
ATOM     27  C   UNL     1      10.984  15.780  19.477  0.00  0.00    +0.000 C 
ATOM     28  C   UNL     1      11.544  15.441  17.045  0.00  0.00    +0.000 C 
ENDBRANCH  23  26
ENDBRANCH  18  20
ENDBRANCH  13  16
BRANCH   8  29
ATOM     29  C   UNL     1       4.665   2.806  17.339  0.00  0.00    +0.000 C 
BRANCH  29  30
ATOM     30  C   UNL     1       3.294   2.874  17.979  0.00  0.00    +0.000 A 
ATOM     31  C   UNL     1       2.226   3.552  17.373  0.00  0.00    +0.000 A 
ATOM     32  C   UNL     1       1.050   3.822  18.082  0.00  0.00    +0.000 A 
ATOM     33  C   UNL     1       0.922   3.414  19.408  0.00  0.00    +0.000 A 
ATOM     34  C   UNL     1       1.959   2.709  20.011  0.00  0.00    +0.000 A 
ATOM     35 CL   UNL     1       1.822   2.229  21.659  0.00  0.00    +0.000 Cl
ATOM     36  C   UNL     1       3.132   2.432  19.305  0.00  0.00    +0.000 A 
ENDBRANCH  29  30
ENDBRANCH   8  29
TORSDOF 5
ENDMDL
MODEL 6
REMARK VINA RESULT:      -8.3      4.068     11.276
REMARK  Name = 
REMARK  8 active torsions:
REMARK  status: ('A' for Active; 'I' for Inactive)
REMARK    1  A    between atoms: C_1  and  C_2
REMARK    2  A    between atoms: N_8  and  C_9
REMARK    3  A    between atoms: C_9  and  C_10
REMARK    4  A    between atoms: C_21  and  C_22
REMARK    5  A    between atoms: N_24  and  C_25
REMARK    6  A    between atoms: C_28  and  C_29
REMARK    7  A    between atoms: C_29  and  C_30
REMARK    8  A    between atoms: C_29  and  C_31
REMARK                            x       y       z     vdW  Elec       q    Type
REMARK                         _______ _______ _______ _____ _____    ______ ____
ROOT
ATOM      1  C   UNL     1      -6.373  13.212  18.937  0.00  0.00    +0.000 C 
ATOM      2  C   UNL     1      -4.998  12.605  18.990  0.00  0.00    +0.000 A 
ATOM      3  C   UNL     1      -4.561  11.737  17.983  0.00  0.00    +0.000 A 
ATOM      4  C   UNL     1      -3.296  11.158  18.058  0.00  0.00    +0.000 A 
ATOM      5  C   UNL     1      -2.491  11.413  19.176  0.00  0.00    +0.000 A 
ATOM      6  C   UNL     1      -2.923  12.227  20.236  0.00  0.00    +0.000 A 
ATOM      7  C   UNL     1      -4.167  12.858  20.098  0.00  0.00    +0.000 A 
ATOM      8  N   UNL     1      -2.121  12.349  21.427  0.00  0.00    +0.000 N 
ATOM      9  C   UNL     1      -0.862  11.707  21.545  0.00  0.00    +0.000 A 
ATOM     10  O   UNL     1      -0.206  11.744  22.583  0.00  0.00    +0.000 OA
ATOM     11  C   UNL     1      -0.420  10.988  20.381  0.00  0.00    +0.000 A 
ATOM     12  N   UNL     1       0.727  10.360  20.186  0.00  0.00    +0.000 NA
ATOM     13  C   UNL     1       0.590   9.856  18.902  0.00  0.00    +0.000 A 
ATOM     14  N   UNL     1      -0.616  10.103  18.349  0.00  0.00    +0.000 NA
ATOM     15  N   UNL     1      -1.219  10.843  19.290  0.00  0.00    +0.000 N 
ENDROOT
BRANCH  13  16
ATOM     16  C   UNL     1       1.662   9.137  18.169  0.00  0.00    +0.000 C 
ATOM     17  O   UNL     1       2.294   9.705  17.283  0.00  0.00    +0.000 OA
ATOM     18  N   UNL     1       1.848   7.806  18.552  0.00  0.00    +0.000 N 
ATOM     19  H   UNL     1       1.153   7.428  19.187  0.00  0.00    +0.000 HD
BRANCH  18  20
ATOM     20  C   UNL     1       2.804   6.925  17.984  0.00  0.00    +0.000 A 
ATOM     21  C   UNL     1       2.600   5.546  17.901  0.00  0.00    +0.000 A 
ATOM     22  C   UNL     1       3.613   4.686  17.466  0.00  0.00    +0.000 A 
ATOM     23  C   UNL     1       4.865   5.180  17.090  0.00  0.00    +0.000 A 
ATOM     24  C   UNL     1       5.043   6.571  17.080  0.00  0.00    +0.000 A 
ATOM     25  C   UNL     1       4.017   7.437  17.512  0.00  0.00    +0.000 A 
BRANCH  23  26
ATOM     26  C   UNL     1       5.974   4.190  16.769  0.00  0.00    +0.000 C 
ATOM     27  C   UNL     1       6.122   3.915  15.275  0.00  0.00    +0.000 C 
ATOM     28  C   UNL     1       7.310   4.623  17.379  0.00  0.00    +0.000 C 
ENDBRANCH  23  26
ENDBRANCH  18  20
ENDBRANCH  13  16
BRANCH   8  29
ATOM     29  C   UNL     1      -2.714  12.872  22.662  0.00  0.00    +0.000 C 
BRANCH  29  30
ATOM     30  C   UNL     1      -2.323  14.274  23.082  0.00  0.00    +0.000 A 
ATOM     31  C   UNL     1      -2.066  15.284  22.143  0.00  0.00    +0.000 A 
ATOM     32  C   UNL     1      -1.467  16.489  22.528  0.00  0.00    +0.000 A 
ATOM     33  C   UNL     1      -1.120  16.704  23.860  0.00  0.00    +0.000 A 
ATOM     34  C   UNL     1      -1.402  15.726  24.808  0.00  0.00    +0.000 A 
ATOM     35 CL   UNL     1      -0.947  15.972  26.451  0.00  0.00    +0.000 Cl
ATOM     36  C   UNL     1      -2.006  14.525  24.430  0.00  0.00    +0.000 A 
ENDBRANCH  29  30
ENDBRANCH   8  29
TORSDOF 5
ENDMDL
MODEL 7
REMARK VINA RESULT:      -8.3      3.759     11.293
REMARK  Name = 
REMARK  8 active torsions:
REMARK  status: ('A' for Active; 'I' for Inactive)
REMARK    1  A    between atoms: C_1  and  C_2
REMARK    2  A    between atoms: N_8  and  C_9
REMARK    3  A    between atoms: C_9  and  C_10
REMARK    4  A    between atoms: C_21  and  C_22
REMARK    5  A    between atoms: N_24  and  C_25
REMARK    6  A    between atoms: C_28  and  C_29
REMARK    7  A    between atoms: C_29  and  C_30
REMARK    8  A    between atoms: C_29  and  C_31
REMARK                            x       y       z     vdW  Elec       q    Type
REMARK                         _______ _______ _______ _____ _____    ______ ____
ROOT
ATOM      1  C   UNL     1      -6.225  13.289  18.965  0.00  0.00    +0.000 C 
ATOM      2  C   UNL     1      -4.871  12.640  19.037  0.00  0.00    +0.000 A 
ATOM      3  C   UNL     1      -4.423  11.807  18.006  0.00  0.00    +0.000 A 
ATOM      4  C   UNL     1      -3.178  11.186  18.097  0.00  0.00    +0.000 A 
ATOM      5  C   UNL     1      -2.408  11.364  19.253  0.00  0.00    +0.000 A 
ATOM      6  C   UNL     1      -2.854  12.141  20.335  0.00  0.00    +0.000 A 
ATOM      7  C   UNL     1      -4.074  12.815  20.184  0.00  0.00    +0.000 A 
ATOM      8  N   UNL     1      -2.092  12.182  21.558  0.00  0.00    +0.000 N 
ATOM      9  C   UNL     1      -0.858  11.497  21.689  0.00  0.00    +0.000 A 
ATOM     10  O   UNL     1      -0.239  11.466  22.749  0.00  0.00    +0.000 OA
ATOM     11  C   UNL     1      -0.395  10.821  20.508  0.00  0.00    +0.000 A 
ATOM     12  N   UNL     1       0.740  10.167  20.323  0.00  0.00    +0.000 NA
ATOM     13  C   UNL     1       0.636   9.728  19.013  0.00  0.00    +0.000 A 
ATOM     14  N   UNL     1      -0.542  10.037  18.430  0.00  0.00    +0.000 NA
ATOM     15  N   UNL     1      -1.157  10.751  19.384  0.00  0.00    +0.000 N 
ENDROOT
BRANCH  13  16
ATOM     16  C   UNL     1       1.712   9.012  18.284  0.00  0.00    +0.000 C 
ATOM     17  O   UNL     1       2.284   9.550  17.341  0.00  0.00    +0.000 OA
ATOM     18  N   UNL     1       1.973   7.718  18.741  0.00  0.00    +0.000 N 
ATOM     19  H   UNL     1       1.321   7.351  19.426  0.00  0.00    +0.000 HD
BRANCH  18  20
ATOM     20  C   UNL     1       2.949   6.846  18.192  0.00  0.00    +0.000 A 
ATOM     21  C   UNL     1       4.216   7.284  17.804  0.00  0.00    +0.000 A 
ATOM     22  C   UNL     1       5.107   6.436  17.139  0.00  0.00    +0.000 A 
ATOM     23  C   UNL     1       4.761   5.113  16.848  0.00  0.00    +0.000 A 
ATOM     24  C   UNL     1       3.528   4.641  17.320  0.00  0.00    +0.000 A 
ATOM     25  C   UNL     1       2.634   5.496  17.998  0.00  0.00    +0.000 A 
BRANCH  23  26
ATOM     26  C   UNL     1       5.706   4.283  15.994  0.00  0.00    +0.000 C 
ATOM     27  C   UNL     1       5.459   4.442  14.495  0.00  0.00    +0.000 C 
ATOM     28  C   UNL     1       7.171   4.564  16.338  0.00  0.00    +0.000 C 
ENDBRANCH  23  26
ENDBRANCH  18  20
ENDBRANCH  13  16
BRANCH   8  29
ATOM     29  C   UNL     1      -2.714  12.665  22.795  0.00  0.00    +0.000 C 
BRANCH  29  30
ATOM     30  C   UNL     1      -2.630  14.150  23.083  0.00  0.00    +0.000 A 
ATOM     31  C   UNL     1      -3.776  14.957  23.156  0.00  0.00    +0.000 A 
ATOM     32  C   UNL     1      -3.673  16.352  23.170  0.00  0.00    +0.000 A 
ATOM     33  C   UNL     1      -2.423  16.963  23.114  0.00  0.00    +0.000 A 
ATOM     34  C   UNL     1      -1.277  16.176  23.076  0.00  0.00    +0.000 A 
ATOM     35 CL   UNL     1       0.271  16.923  22.975  0.00  0.00    +0.000 Cl
ATOM     36  C   UNL     1      -1.374  14.782  23.070  0.00  0.00    +0.000 A 
ENDBRANCH  29  30
ENDBRANCH   8  29
TORSDOF 5
ENDMDL
MODEL 8
REMARK VINA RESULT:      -8.2      2.498      3.694
REMARK  Name = 
REMARK  8 active torsions:
REMARK  status: ('A' for Active; 'I' for Inactive)
REMARK    1  A    between atoms: C_1  and  C_2
REMARK    2  A    between atoms: N_8  and  C_9
REMARK    3  A    between atoms: C_9  and  C_10
REMARK    4  A    between atoms: C_21  and  C_22
REMARK    5  A    between atoms: N_24  and  C_25
REMARK    6  A    between atoms: C_28  and  C_29
REMARK    7  A    between atoms: C_29  and  C_30
REMARK    8  A    between atoms: C_29  and  C_31
REMARK                            x       y       z     vdW  Elec       q    Type
REMARK                         _______ _______ _______ _____ _____    ______ ____
ROOT
ATOM      1  C   UNL     1       3.296   0.978  18.730  0.00  0.00    +0.000 C 
ATOM      2  C   UNL     1       3.179   2.471  18.591  0.00  0.00    +0.000 A 
ATOM      3  C   UNL     1       1.958   3.116  18.818  0.00  0.00    +0.000 A 
ATOM      4  C   UNL     1       1.855   4.496  18.658  0.00  0.00    +0.000 A 
ATOM      5  C   UNL     1       2.971   5.220  18.217  0.00  0.00    +0.000 A 
ATOM      6  C   UNL     1       4.194   4.597  17.918  0.00  0.00    +0.000 A 
ATOM      7  C   UNL     1       4.292   3.219  18.162  0.00  0.00    +0.000 A 
ATOM      8  N   UNL     1       5.270   5.358  17.336  0.00  0.00    +0.000 N 
ATOM      9  C   UNL     1       5.153   6.751  17.101  0.00  0.00    +0.000 A 
ATOM     10  O   UNL     1       6.035   7.395  16.539  0.00  0.00    +0.000 OA
ATOM     11  C   UNL     1       3.923   7.354  17.541  0.00  0.00    +0.000 A 
ATOM     12  N   UNL     1       3.574   8.629  17.512  0.00  0.00    +0.000 NA
ATOM     13  C   UNL     1       2.297   8.613  18.051  0.00  0.00    +0.000 A 
ATOM     14  N   UNL     1       1.847   7.373  18.340  0.00  0.00    +0.000 NA
ATOM     15  N   UNL     1       2.903   6.605  18.037  0.00  0.00    +0.000 N 
ENDROOT
BRANCH  13  16
ATOM     16  C   UNL     1       1.491   9.828  18.326  0.00  0.00    +0.000 C 
ATOM     17  O   UNL     1       1.894  10.931  17.971  0.00  0.00    +0.000 OA
ATOM     18  N   UNL     1       0.299   9.601  19.020  0.00  0.00    +0.000 N 
ATOM     19  H   UNL     1       0.171   8.662  19.381  0.00  0.00    +0.000 HD
BRANCH  18  20
ATOM     20  C   UNL     1      -0.623  10.610  19.399  0.00  0.00    +0.000 A 
ATOM     21  C   UNL     1      -0.526  11.301  20.609  0.00  0.00    +0.000 A 
ATOM     22  C   UNL     1      -1.523  12.190  21.021  0.00  0.00    +0.000 A 
ATOM     23  C   UNL     1      -2.651  12.425  20.229  0.00  0.00    +0.000 A 
ATOM     24  C   UNL     1      -2.706  11.807  18.971  0.00  0.00    +0.000 A 
ATOM     25  C   UNL     1      -1.695  10.917  18.554  0.00  0.00    +0.000 A 
BRANCH  23  26
ATOM     26  C   UNL     1      -3.772  13.283  20.792  0.00  0.00    +0.000 C 
ATOM     27  C   UNL     1      -3.390  14.755  20.936  0.00  0.00    +0.000 C 
ATOM     28  C   UNL     1      -5.061  13.131  19.979  0.00  0.00    +0.000 C 
ENDBRANCH  23  26
ENDBRANCH  18  20
ENDBRANCH  13  16
BRANCH   8  29
ATOM     29  C   UNL     1       6.388   4.670  16.682  0.00  0.00    +0.000 C 
BRANCH  29  30
ATOM     30  C   UNL     1       6.379   4.612  15.168  0.00  0.00    +0.000 A 
ATOM     31  C   UNL     1       5.602   3.679  14.466  0.00  0.00    +0.000 A 
ATOM     32  C   UNL     1       5.793   3.469  13.096  0.00  0.00    +0.000 A 
ATOM     33  C   UNL     1       6.763   4.193  12.405  0.00  0.00    +0.000 A 
ATOM     34  C   UNL     1       7.517   5.146  13.081  0.00  0.00    +0.000 A 
ATOM     35 CL   UNL     1       8.738   6.022  12.241  0.00  0.00    +0.000 Cl
ATOM     36  C   UNL     1       7.325   5.365  14.447  0.00  0.00    +0.000 A 
ENDBRANCH  29  30
ENDBRANCH   8  29
TORSDOF 5
ENDMDL
MODEL 9
REMARK VINA RESULT:      -8.1      3.545     11.178
REMARK  Name = 
REMARK  8 active torsions:
REMARK  status: ('A' for Active; 'I' for Inactive)
REMARK    1  A    between atoms: C_1  and  C_2
REMARK    2  A    between atoms: N_8  and  C_9
REMARK    3  A    between atoms: C_9  and  C_10
REMARK    4  A    between atoms: C_21  and  C_22
REMARK    5  A    between atoms: N_24  and  C_25
REMARK    6  A    between atoms: C_28  and  C_29
REMARK    7  A    between atoms: C_29  and  C_30
REMARK    8  A    between atoms: C_29  and  C_31
REMARK                            x       y       z     vdW  Elec       q    Type
REMARK                         _______ _______ _______ _____ _____    ______ ____
ROOT
ATOM      1  C   UNL     1      -1.054  16.724  19.259  0.00  0.00    +0.000 C 
ATOM      2  C   UNL     1      -0.699  15.293  19.555  0.00  0.00    +0.000 A 
ATOM      3  C   UNL     1      -0.031  14.512  18.605  0.00  0.00    +0.000 A 
ATOM      4  C   UNL     1       0.266  13.178  18.879  0.00  0.00    +0.000 A 
ATOM      5  C   UNL     1      -0.156  12.618  20.090  0.00  0.00    +0.000 A 
ATOM      6  C   UNL     1      -0.884  13.354  21.040  0.00  0.00    +0.000 A 
ATOM      7  C   UNL     1      -1.102  14.713  20.772  0.00  0.00    +0.000 A 
ATOM      8  N   UNL     1      -1.418  12.699  22.208  0.00  0.00    +0.000 N 
ATOM      9  C   UNL     1      -1.182  11.325  22.463  0.00  0.00    +0.000 A 
ATOM     10  O   UNL     1      -1.693  10.741  23.416  0.00  0.00    +0.000 OA
ATOM     11  C   UNL     1      -0.328  10.656  21.519  0.00  0.00    +0.000 A 
ATOM     12  N   UNL     1       0.111   9.408  21.545  0.00  0.00    +0.000 NA
ATOM     13  C   UNL     1       0.877   9.326  20.393  0.00  0.00    +0.000 A 
ATOM     14  N   UNL     1       0.859  10.451  19.648  0.00  0.00    +0.000 NA
ATOM     15  N   UNL     1       0.118  11.280  20.397  0.00  0.00    +0.000 N 
ENDROOT
BRANCH  13  16
ATOM     16  C   UNL     1       1.676   8.137  20.005  0.00  0.00    +0.000 C 
ATOM     17  O   UNL     1       1.805   7.197  20.784  0.00  0.00    +0.000 OA
ATOM     18  N   UNL     1       2.260   8.207  18.737  0.00  0.00    +0.000 N 
ATOM     19  H   UNL     1       2.193   9.105  18.269  0.00  0.00    +0.000 HD
BRANCH  18  20
ATOM     20  C   UNL     1       3.072   7.196  18.161  0.00  0.00    +0.000 A 
ATOM     21  C   UNL     1       4.312   7.467  17.580  0.00  0.00    +0.000 A 
ATOM     22  C   UNL     1       5.027   6.479  16.898  0.00  0.00    +0.000 A 
ATOM     23  C   UNL     1       4.529   5.179  16.781  0.00  0.00    +0.000 A 
ATOM     24  C   UNL     1       3.331   4.877  17.445  0.00  0.00    +0.000 A 
ATOM     25  C   UNL     1       2.614   5.874  18.140  0.00  0.00    +0.000 A 
BRANCH  23  26
ATOM     26  C   UNL     1       5.274   4.187  15.904  0.00  0.00    +0.000 C 
ATOM     27  C   UNL     1       5.189   4.517  14.415  0.00  0.00    +0.000 C 
ATOM     28  C   UNL     1       6.732   4.029  16.345  0.00  0.00    +0.000 C 
ENDBRANCH  23  26
ENDBRANCH  18  20
ENDBRANCH  13  16
BRANCH   8  29
ATOM     29  C   UNL     1      -2.473  13.346  22.995  0.00  0.00    +0.000 C 
BRANCH  29  30
ATOM     30  C   UNL     1      -3.898  13.192  22.507  0.00  0.00    +0.000 A 
ATOM     31  C   UNL     1      -4.986  13.166  23.392  0.00  0.00    +0.000 A 
ATOM     32  C   UNL     1      -6.258  12.775  22.958  0.00  0.00    +0.000 A 
ATOM     33  C   UNL     1      -6.462  12.405  21.630  0.00  0.00    +0.000 A 
ATOM     34  C   UNL     1      -5.400  12.459  20.733  0.00  0.00    +0.000 A 
ATOM     35 CL   UNL     1      -5.637  11.974  19.098  0.00  0.00    +0.000 Cl
ATOM     36  C   UNL     1      -4.131  12.857  21.160  0.00  0.00    +0.000 A 
ENDBRANCH  29  30
ENDBRANCH   8  29
TORSDOF 5
ENDMDL
