MODEL 1
REMARK VINA RESULT:      -9.2      0.000      0.000
REMARK  Name = 
REMARK  5 active torsions:
REMARK  status: ('A' for Active; 'I' for Inactive)
REMARK    1  A    between atoms: C_1  and  C_2
REMARK    2  A    between atoms: C_2  and  C_3
REMARK    3  A    between atoms: C_3  and  O_4
REMARK    4  A    between atoms: C_26  and  C_27
REMARK    5  A    between atoms: C_27  and  N_28
REMARK                            x       y       z     vdW  Elec       q    Type
REMARK                         _______ _______ _______ _____ _____    ______ ____
ROOT
ATOM      1  C   UNL     1       2.186   4.077  19.064  0.00  0.00    +0.000 C 
ATOM      2  C   UNL     1       3.578   3.371  18.844  0.00  0.00    +0.000 C 
ATOM      3  O   UNL     1       3.783   2.171  19.012  0.00  0.00    +0.000 OA
ATOM      4  O   UNL     1       4.526   4.132  18.245  0.00  0.00    +0.000 OA
ATOM      5  C   UNL     1       4.700   5.463  18.720  0.00  0.00    +0.000 C 
ATOM      6  C   UNL     1       3.482   6.089  19.303  0.00  0.00    +0.000 A 
ATOM      7  C   UNL     1       2.394   5.441  19.789  0.00  0.00    +0.000 A 
ATOM      8  C   UNL     1       1.468   6.297  20.657  0.00  0.00    +0.000 A 
ATOM      9  C   UNL     1       1.376   7.643  20.429  0.00  0.00    +0.000 A 
ATOM     10  N   UNL     1       2.062   8.047  19.286  0.00  0.00    +0.000 N 
ATOM     11  C   UNL     1       3.087   7.382  18.676  0.00  0.00    +0.000 A 
ATOM     12  O   UNL     1       3.623   7.778  17.647  0.00  0.00    +0.000 OA
ATOM     13  C   UNL     1       1.396   9.101  18.601  0.00  0.00    +0.000 C 
ATOM     14  C   UNL     1       0.570   9.671  19.691  0.00  0.00    +0.000 A 
ATOM     15  C   UNL     1       0.630   8.946  20.864  0.00  0.00    +0.000 A 
ATOM     16  N   UNL     1       0.175   9.522  22.029  0.00  0.00    +0.000 NA
ATOM     17  C   UNL     1      -0.348  10.882  21.989  0.00  0.00    +0.000 A 
ATOM     18  C   UNL     1      -0.881  11.752  23.044  0.00  0.00    +0.000 A 
ATOM     19  C   UNL     1      -1.431  13.072  22.823  0.00  0.00    +0.000 A 
ATOM     20  C   UNL     1      -1.312  13.634  21.578  0.00  0.00    +0.000 A 
ATOM     21  C   UNL     1      -0.830  12.871  20.550  0.00  0.00    +0.000 A 
ATOM     22  C   UNL     1      -0.437  11.536  20.737  0.00  0.00    +0.000 A 
ATOM     23  C   UNL     1      -0.111  10.857  19.576  0.00  0.00    +0.000 A 
ATOM     24  O   UNL     1      -1.736  14.879  21.220  0.00  0.00    +0.000 OA
ATOM     25  C   UNL     1      -3.001  15.073  21.831  0.00  0.00    +0.000 C 
ATOM     26  C   UNL     1      -2.823  14.958  23.340  0.00  0.00    +0.000 C 
ATOM     27  O   UNL     1      -2.126  13.754  23.800  0.00  0.00    +0.000 OA
ENDROOT
BRANCH   1  29
ATOM     28  C   UNL     1       1.100   2.697  20.985  0.00  0.00    +0.000 C 
ATOM     29  C   UNL     1       1.218   2.949  19.496  0.00  0.00    +0.000 C 
ENDBRANCH   1  29
BRANCH   1  30
ATOM     30  O   UNL     1       1.758   4.433  17.709  0.00  0.00    +0.000 OA
ATOM     31  H   UNL     1       2.551   4.655  17.201  0.00  0.00    +0.000 HD
ENDBRANCH   1  30
BRANCH  23  32
ATOM     32  C   UNL     1      -0.562  11.302  18.208  0.00  0.00    +0.000 C 
BRANCH  32  33
ATOM     33  N   UNL     1      -1.852  10.801  17.787  0.00  0.00    +0.000 N 
ATOM     34  C   UNL     1      -2.155   9.752  16.964  0.00  0.00    +0.000 A 
ATOM     35  C   UNL     1      -3.505   9.879  16.727  0.00  0.00    +0.000 A 
ATOM     36  N   UNL     1      -4.023  10.946  17.415  0.00  0.00    +0.000 NA
ATOM     37  C   UNL     1      -3.008  11.484  18.045  0.00  0.00    +0.000 A 
ENDBRANCH  32  33
ENDBRANCH  23  32
TORSDOF 4
ENDMDL
MODEL 2
REMARK VINA RESULT:      -7.5      1.636      2.205
REMARK  Name = 
REMARK  5 active torsions:
REMARK  status: ('A' for Active; 'I' for Inactive)
REMARK    1  A    between atoms: C_1  and  C_2
REMARK    2  A    between atoms: C_2  and  C_3
REMARK    3  A    between atoms: C_3  and  O_4
REMARK    4  A    between atoms: C_26  and  C_27
REMARK    5  A    between atoms: C_27  and  N_28
REMARK                            x       y       z     vdW  Elec       q    Type
REMARK                         _______ _______ _______ _____ _____    ______ ____
ROOT
ATOM      1  C   UNL     1       2.351   3.615  18.643  0.00  0.00    +0.000 C 
ATOM      2  C   UNL     1       3.728   2.850  18.573  0.00  0.00    +0.000 C 
ATOM      3  O   UNL     1       3.844   1.627  18.565  0.00  0.00    +0.000 OA
ATOM      4  O   UNL     1       4.809   3.624  18.310  0.00  0.00    +0.000 OA
ATOM      5  C   UNL     1       4.939   4.843  19.035  0.00  0.00    +0.000 C 
ATOM      6  C   UNL     1       3.656   5.456  19.474  0.00  0.00    +0.000 A 
ATOM      7  C   UNL     1       2.466   4.822  19.621  0.00  0.00    +0.000 A 
ATOM      8  C   UNL     1       1.420   5.593  20.432  0.00  0.00    +0.000 A 
ATOM      9  C   UNL     1       1.433   6.962  20.430  0.00  0.00    +0.000 A 
ATOM     10  N   UNL     1       2.353   7.493  19.529  0.00  0.00    +0.000 N 
ATOM     11  C   UNL     1       3.451   6.861  19.019  0.00  0.00    +0.000 A 
ATOM     12  O   UNL     1       4.200   7.377  18.197  0.00  0.00    +0.000 OA
ATOM     13  C   UNL     1       1.884   8.692  18.923  0.00  0.00    +0.000 C 
ATOM     14  C   UNL     1       0.880   9.138  19.918  0.00  0.00    +0.000 A 
ATOM     15  C   UNL     1       0.671   8.229  20.935  0.00  0.00    +0.000 A 
ATOM     16  N   UNL     1       0.015   8.640  22.074  0.00  0.00    +0.000 NA
ATOM     17  C   UNL     1      -0.431  10.025  22.173  0.00  0.00    +0.000 A 
ATOM     18  C   UNL     1      -1.129  10.748  23.241  0.00  0.00    +0.000 A 
ATOM     19  C   UNL     1      -1.567  12.125  23.154  0.00  0.00    +0.000 A 
ATOM     20  C   UNL     1      -1.176  12.872  22.073  0.00  0.00    +0.000 A 
ATOM     21  C   UNL     1      -0.528  12.252  21.039  0.00  0.00    +0.000 A 
ATOM     22  C   UNL     1      -0.238  10.878  21.061  0.00  0.00    +0.000 A 
ATOM     23  C   UNL     1       0.287  10.376  19.883  0.00  0.00    +0.000 A 
ATOM     24  O   UNL     1      -1.465  14.188  21.864  0.00  0.00    +0.000 OA
ATOM     25  C   UNL     1      -2.818  14.375  22.245  0.00  0.00    +0.000 C 
ATOM     26  C   UNL     1      -2.954  14.002  23.717  0.00  0.00    +0.000 C 
ATOM     27  O   UNL     1      -2.415  12.689  24.084  0.00  0.00    +0.000 OA
ENDROOT
BRANCH   1  29
ATOM     28  C   UNL     1       0.684   2.181  20.035  0.00  0.00    +0.000 C 
ATOM     29  C   UNL     1       1.269   2.509  18.677  0.00  0.00    +0.000 C 
ENDBRANCH   1  29
BRANCH   1  30
ATOM     30  O   UNL     1       2.221   4.219  17.314  0.00  0.00    +0.000 OA
ATOM     31  H   UNL     1       1.958   3.518  16.700  0.00  0.00    +0.000 HD
ENDBRANCH   1  30
BRANCH  23  32
ATOM     32  C   UNL     1       0.141  11.071  18.554  0.00  0.00    +0.000 C 
BRANCH  32  33
ATOM     33  N   UNL     1       1.025  12.196  18.342  0.00  0.00    +0.000 N 
ATOM     34  C   UNL     1       2.390  12.235  18.284  0.00  0.00    +0.000 A 
ATOM     35  C   UNL     1       2.697  13.577  18.303  0.00  0.00    +0.000 A 
ATOM     36  N   UNL     1       1.558  14.338  18.331  0.00  0.00    +0.000 NA
ATOM     37  C   UNL     1       0.564  13.484  18.354  0.00  0.00    +0.000 A 
ENDBRANCH  32  33
ENDBRANCH  23  32
TORSDOF 4
ENDMDL
MODEL 3
REMARK VINA RESULT:      -7.0      2.684      9.746
REMARK  Name = 
REMARK  5 active torsions:
REMARK  status: ('A' for Active; 'I' for Inactive)
REMARK    1  A    between atoms: C_1  and  C_2
REMARK    2  A    between atoms: C_2  and  C_3
REMARK    3  A    between atoms: C_3  and  O_4
REMARK    4  A    between atoms: C_26  and  C_27
REMARK    5  A    between atoms: C_27  and  N_28
REMARK                            x       y       z     vdW  Elec       q    Type
REMARK                         _______ _______ _______ _____ _____    ______ ____
ROOT
ATOM      1  C   UNL     1      -3.089  16.111  24.247  0.00  0.00    +0.000 C 
ATOM      2  C   UNL     1      -4.558  16.557  24.607  0.00  0.00    +0.000 C 
ATOM      3  O   UNL     1      -4.867  17.177  25.621  0.00  0.00    +0.000 OA
ATOM      4  O   UNL     1      -5.470  16.401  23.617  0.00  0.00    +0.000 OA
ATOM      5  C   UNL     1      -5.471  15.163  22.912  0.00  0.00    +0.000 C 
ATOM      6  C   UNL     1      -4.154  14.473  22.846  0.00  0.00    +0.000 A 
ATOM      7  C   UNL     1      -3.101  14.660  23.680  0.00  0.00    +0.000 A 
ATOM      8  C   UNL     1      -2.028  13.570  23.619  0.00  0.00    +0.000 A 
ATOM      9  C   UNL     1      -1.820  12.886  22.451  0.00  0.00    +0.000 A 
ATOM     10  N   UNL     1      -2.552  13.403  21.384  0.00  0.00    +0.000 N 
ATOM     11  C   UNL     1      -3.683  14.163  21.466  0.00  0.00    +0.000 A 
ATOM     12  O   UNL     1      -4.258  14.618  20.483  0.00  0.00    +0.000 OA
ATOM     13  C   UNL     1      -1.841  13.325  20.154  0.00  0.00    +0.000 C 
ATOM     14  C   UNL     1      -0.878  12.239  20.452  0.00  0.00    +0.000 A 
ATOM     15  C   UNL     1      -0.916  11.813  21.764  0.00  0.00    +0.000 A 
ATOM     16  N   UNL     1      -0.314  10.620  22.096  0.00  0.00    +0.000 NA
ATOM     17  C   UNL     1       0.336   9.840  21.051  0.00  0.00    +0.000 A 
ATOM     18  C   UNL     1       1.037   8.551  21.091  0.00  0.00    +0.000 A 
ATOM     19  C   UNL     1       1.697   7.936  19.959  0.00  0.00    +0.000 A 
ATOM     20  C   UNL     1       1.535   8.499  18.719  0.00  0.00    +0.000 A 
ATOM     21  C   UNL     1       0.899   9.706  18.617  0.00  0.00    +0.000 A 
ATOM     22  C   UNL     1       0.390  10.375  19.742  0.00  0.00    +0.000 A 
ATOM     23  C   UNL     1      -0.093  11.648  19.493  0.00  0.00    +0.000 A 
ATOM     24  O   UNL     1       2.050   8.021  17.551  0.00  0.00    +0.000 OA
ATOM     25  C   UNL     1       3.373   7.593  17.832  0.00  0.00    +0.000 C 
ATOM     26  C   UNL     1       3.306   6.506  18.898  0.00  0.00    +0.000 C 
ATOM     27  O   UNL     1       2.531   6.846  20.094  0.00  0.00    +0.000 OA
ENDROOT
BRANCH   1  29
ATOM     28  C   UNL     1      -1.512  15.582  26.250  0.00  0.00    +0.000 C 
ATOM     29  C   UNL     1      -2.206  16.633  25.408  0.00  0.00    +0.000 C 
ENDBRANCH   1  29
BRANCH   1  30
ATOM     30  O   UNL     1      -2.736  16.959  23.106  0.00  0.00    +0.000 OA
ATOM     31  H   UNL     1      -1.881  16.654  22.769  0.00  0.00    +0.000 HD
ENDBRANCH   1  30
BRANCH  23  32
ATOM     32  C   UNL     1       0.289  12.450  18.275  0.00  0.00    +0.000 C 
BRANCH  32  33
ATOM     33  N   UNL     1       1.376  13.386  18.466  0.00  0.00    +0.000 N 
ATOM     34  C   UNL     1       1.339  14.737  18.671  0.00  0.00    +0.000 A 
ATOM     35  C   UNL     1       2.649  15.140  18.548  0.00  0.00    +0.000 A 
ATOM     36  N   UNL     1       3.470  14.067  18.316  0.00  0.00    +0.000 NA
ATOM     37  C   UNL     1       2.679  13.023  18.271  0.00  0.00    +0.000 A 
ENDBRANCH  32  33
ENDBRANCH  23  32
TORSDOF 4
ENDMDL
MODEL 4
REMARK VINA RESULT:      -6.9      5.102      8.931
REMARK  Name = 
REMARK  5 active torsions:
REMARK  status: ('A' for Active; 'I' for Inactive)
REMARK    1  A    between atoms: C_1  and  C_2
REMARK    2  A    between atoms: C_2  and  C_3
REMARK    3  A    between atoms: C_3  and  O_4
REMARK    4  A    between atoms: C_26  and  C_27
REMARK    5  A    between atoms: C_27  and  N_28
REMARK                            x       y       z     vdW  Elec       q    Type
REMARK                         _______ _______ _______ _____ _____    ______ ____
ROOT
ATOM      1  C   UNL     1      -5.954  13.347  22.588  0.00  0.00    +0.000 C 
ATOM      2  C   UNL     1      -6.741  12.887  23.874  0.00  0.00    +0.000 C 
ATOM      3  O   UNL     1      -7.912  13.172  24.112  0.00  0.00    +0.000 OA
ATOM      4  O   UNL     1      -6.112  11.961  24.638  0.00  0.00    +0.000 OA
ATOM      5  C   UNL     1      -4.735  12.175  24.933  0.00  0.00    +0.000 C 
ATOM      6  C   UNL     1      -3.984  12.950  23.908  0.00  0.00    +0.000 A 
ATOM      7  C   UNL     1      -4.511  13.786  22.980  0.00  0.00    +0.000 A 
ATOM      8  C   UNL     1      -3.504  14.726  22.311  0.00  0.00    +0.000 A 
ATOM      9  C   UNL     1      -2.201  14.333  22.167  0.00  0.00    +0.000 A 
ATOM     10  N   UNL     1      -1.992  13.007  22.537  0.00  0.00    +0.000 N 
ATOM     11  C   UNL     1      -2.777  12.260  23.368  0.00  0.00    +0.000 A 
ATOM     12  O   UNL     1      -2.554  11.082  23.623  0.00  0.00    +0.000 OA
ATOM     13  C   UNL     1      -1.019  12.365  21.720  0.00  0.00    +0.000 C 
ATOM     14  C   UNL     1      -0.267  13.534  21.205  0.00  0.00    +0.000 A 
ATOM     15  C   UNL     1      -0.821  14.746  21.562  0.00  0.00    +0.000 A 
ATOM     16  N   UNL     1      -0.068  15.891  21.424  0.00  0.00    +0.000 NA
ATOM     17  C   UNL     1       1.294  15.785  20.913  0.00  0.00    +0.000 A 
ATOM     18  C   UNL     1       2.325  16.800  20.671  0.00  0.00    +0.000 A 
ATOM     19  C   UNL     1       3.622  16.535  20.087  0.00  0.00    +0.000 A 
ATOM     20  C   UNL     1       3.997  15.232  19.883  0.00  0.00    +0.000 A 
ATOM     21  C   UNL     1       3.076  14.239  20.082  0.00  0.00    +0.000 A 
ATOM     22  C   UNL     1       1.766  14.514  20.506  0.00  0.00    +0.000 A 
ATOM     23  C   UNL     1       0.918  13.422  20.520  0.00  0.00    +0.000 A 
ATOM     24  O   UNL     1       5.195  14.813  19.386  0.00  0.00    +0.000 OA
ATOM     25  C   UNL     1       5.525  15.691  18.321  0.00  0.00    +0.000 C 
ATOM     26  C   UNL     1       5.617  17.106  18.881  0.00  0.00    +0.000 C 
ATOM     27  O   UNL     1       4.463  17.545  19.669  0.00  0.00    +0.000 OA
ENDROOT
BRANCH   1  29
ATOM     28  C   UNL     1      -7.314  13.633  20.386  0.00  0.00    +0.000 C 
ATOM     29  C   UNL     1      -6.969  14.172  21.760  0.00  0.00    +0.000 C 
ENDBRANCH   1  29
BRANCH   1  30
ATOM     30  O   UNL     1      -5.777  12.108  21.826  0.00  0.00    +0.000 OA
ATOM     31  H   UNL     1      -4.826  11.933  21.772  0.00  0.00    +0.000 HD
ENDBRANCH   1  30
BRANCH  23  32
ATOM     32  C   UNL     1       1.182  12.163  19.734  0.00  0.00    +0.000 C 
BRANCH  32  33
ATOM     33  N   UNL     1       0.135  11.775  18.815  0.00  0.00    +0.000 N 
ATOM     34  C   UNL     1      -0.744  12.552  18.113  0.00  0.00    +0.000 A 
ATOM     35  C   UNL     1      -1.655  11.659  17.595  0.00  0.00    +0.000 A 
ATOM     36  N   UNL     1      -1.323  10.372  17.931  0.00  0.00    +0.000 NA
ATOM     37  C   UNL     1      -0.242  10.469  18.666  0.00  0.00    +0.000 A 
ENDBRANCH  32  33
ENDBRANCH  23  32
TORSDOF 4
ENDMDL
MODEL 5
REMARK VINA RESULT:      -6.9      2.130      9.187
REMARK  Name = 
REMARK  5 active torsions:
REMARK  status: ('A' for Active; 'I' for Inactive)
REMARK    1  A    between atoms: C_1  and  C_2
REMARK    2  A    between atoms: C_2  and  C_3
REMARK    3  A    between atoms: C_3  and  O_4
REMARK    4  A    between atoms: C_26  and  C_27
REMARK    5  A    between atoms: C_27  and  N_28
REMARK                            x       y       z     vdW  Elec       q    Type
REMARK                         _______ _______ _______ _____ _____    ______ ____
ROOT
ATOM      1  C   UNL     1      -2.297  12.211  20.113  0.00  0.00    +0.000 C 
ATOM      2  C   UNL     1      -2.416  13.509  21.000  0.00  0.00    +0.000 C 
ATOM      3  O   UNL     1      -3.233  14.406  20.810  0.00  0.00    +0.000 OA
ATOM      4  O   UNL     1      -1.688  13.500  22.142  0.00  0.00    +0.000 OA
ATOM      5  C   UNL     1      -0.335  13.063  22.058  0.00  0.00    +0.000 C 
ATOM      6  C   UNL     1      -0.054  12.085  20.971  0.00  0.00    +0.000 A 
ATOM      7  C   UNL     1      -0.795  11.884  19.854  0.00  0.00    +0.000 A 
ATOM      8  C   UNL     1      -0.089  11.101  18.744  0.00  0.00    +0.000 A 
ATOM      9  C   UNL     1       0.865  10.174  19.067  0.00  0.00    +0.000 A 
ATOM     10  N   UNL     1       0.965   9.957  20.440  0.00  0.00    +0.000 N 
ATOM     11  C   UNL     1       0.564  10.808  21.430  0.00  0.00    +0.000 A 
ATOM     12  O   UNL     1       0.648  10.536  22.622  0.00  0.00    +0.000 OA
ATOM     13  C   UNL     1       1.257   8.600  20.751  0.00  0.00    +0.000 C 
ATOM     14  C   UNL     1       1.868   8.143  19.480  0.00  0.00    +0.000 A 
ATOM     15  C   UNL     1       1.816   9.085  18.474  0.00  0.00    +0.000 A 
ATOM     16  N   UNL     1       2.610   8.919  17.362  0.00  0.00    +0.000 NA
ATOM     17  C   UNL     1       3.488   7.758  17.286  0.00  0.00    +0.000 A 
ATOM     18  C   UNL     1       4.441   7.323  16.259  0.00  0.00    +0.000 A 
ATOM     19  C   UNL     1       5.197   6.090  16.305  0.00  0.00    +0.000 A 
ATOM     20  C   UNL     1       5.157   5.337  17.450  0.00  0.00    +0.000 A 
ATOM     21  C   UNL     1       4.281   5.686  18.441  0.00  0.00    +0.000 A 
ATOM     22  C   UNL     1       3.437   6.802  18.328  0.00  0.00    +0.000 A 
ATOM     23  C   UNL     1       2.510   6.936  19.347  0.00  0.00    +0.000 A 
ATOM     24  O   UNL     1       5.842   4.179  17.670  0.00  0.00    +0.000 OA
ATOM     25  C   UNL     1       5.767   3.425  16.471  0.00  0.00    +0.000 C 
ATOM     26  C   UNL     1       6.402   4.244  15.353  0.00  0.00    +0.000 C 
ATOM     27  O   UNL     1       5.902   5.616  15.218  0.00  0.00    +0.000 OA
ENDROOT
BRANCH   1  29
ATOM     28  C   UNL     1      -3.521  11.204  18.048  0.00  0.00    +0.000 C 
ATOM     29  C   UNL     1      -3.403  12.345  19.038  0.00  0.00    +0.000 C 
ENDBRANCH   1  29
BRANCH   1  30
ATOM     30  O   UNL     1      -2.767  11.141  20.996  0.00  0.00    +0.000 OA
ATOM     31  H   UNL     1      -2.027  10.533  21.138  0.00  0.00    +0.000 HD
ENDBRANCH   1  30
BRANCH  23  32
ATOM     32  C   UNL     1       2.097   5.795  20.241  0.00  0.00    +0.000 C 
BRANCH  32  33
ATOM     33  N   UNL     1       1.497   4.665  19.565  0.00  0.00    +0.000 N 
ATOM     34  C   UNL     1       1.069   3.470  20.073  0.00  0.00    +0.000 A 
ATOM     35  C   UNL     1       0.812   2.696  18.964  0.00  0.00    +0.000 A 
ATOM     36  N   UNL     1       1.036   3.405  17.812  0.00  0.00    +0.000 NA
ATOM     37  C   UNL     1       1.447   4.587  18.201  0.00  0.00    +0.000 A 
ENDBRANCH  32  33
ENDBRANCH  23  32
TORSDOF 4
ENDMDL
MODEL 6
REMARK VINA RESULT:      -6.8      2.259      9.180
REMARK  Name = 
REMARK  5 active torsions:
REMARK  status: ('A' for Active; 'I' for Inactive)
REMARK    1  A    between atoms: C_1  and  C_2
REMARK    2  A    between atoms: C_2  and  C_3
REMARK    3  A    between atoms: C_3  and  O_4
REMARK    4  A    between atoms: C_26  and  C_27
REMARK    5  A    between atoms: C_27  and  N_28
REMARK                            x       y       z     vdW  Elec       q    Type
REMARK                         _______ _______ _______ _____ _____    ______ ____
ROOT
ATOM      1  C   UNL     1      -2.857  14.381  23.560  0.00  0.00    +0.000 C 
ATOM      2  C   UNL     1      -4.365  14.835  23.633  0.00  0.00    +0.000 C 
ATOM      3  O   UNL     1      -4.879  15.383  24.606  0.00  0.00    +0.000 OA
ATOM      4  O   UNL     1      -5.046  14.777  22.463  0.00  0.00    +0.000 OA
ATOM      5  C   UNL     1      -4.907  13.597  21.678  0.00  0.00    +0.000 C 
ATOM      6  C   UNL     1      -3.612  12.881  21.838  0.00  0.00    +0.000 A 
ATOM      7  C   UNL     1      -2.760  12.977  22.889  0.00  0.00    +0.000 A 
ATOM      8  C   UNL     1      -1.708  11.868  22.970  0.00  0.00    +0.000 A 
ATOM      9  C   UNL     1      -1.261  11.271  21.822  0.00  0.00    +0.000 A 
ATOM     10  N   UNL     1      -1.744  11.885  20.669  0.00  0.00    +0.000 N 
ATOM     11  C   UNL     1      -2.860  12.665  20.570  0.00  0.00    +0.000 A 
ATOM     12  O   UNL     1      -3.208  13.208  19.526  0.00  0.00    +0.000 OA
ATOM     13  C   UNL     1      -0.787  11.883  19.616  0.00  0.00    +0.000 C 
ATOM     14  C   UNL     1       0.081  10.754  20.024  0.00  0.00    +0.000 A 
ATOM     15  C   UNL     1      -0.240  10.230  21.260  0.00  0.00    +0.000 A 
ATOM     16  N   UNL     1       0.267   9.001  21.616  0.00  0.00    +0.000 NA
ATOM     17  C   UNL     1       1.120   8.286  20.674  0.00  0.00    +0.000 A 
ATOM     18  C   UNL     1       1.784   6.981  20.759  0.00  0.00    +0.000 A 
ATOM     19  C   UNL     1       2.666   6.438  19.748  0.00  0.00    +0.000 A 
ATOM     20  C   UNL     1       2.778   7.097  18.550  0.00  0.00    +0.000 A 
ATOM     21  C   UNL     1       2.187   8.324  18.412  0.00  0.00    +0.000 A 
ATOM     22  C   UNL     1       1.456   8.918  19.453  0.00  0.00    +0.000 A 
ATOM     23  C   UNL     1       1.048  10.218  19.209  0.00  0.00    +0.000 A 
ATOM     24  O   UNL     1       3.526   6.696  17.484  0.00  0.00    +0.000 OA
ATOM     25  C   UNL     1       4.755   6.216  18.005  0.00  0.00    +0.000 C 
ATOM     26  C   UNL     1       4.453   5.052  18.942  0.00  0.00    +0.000 C 
ATOM     27  O   UNL     1       3.443   5.320  19.970  0.00  0.00    +0.000 OA
ENDROOT
BRANCH   1  29
ATOM     28  C   UNL     1      -1.144  15.838  24.871  0.00  0.00    +0.000 C 
ATOM     29  C   UNL     1      -2.239  14.790  24.919  0.00  0.00    +0.000 C 
ENDBRANCH   1  29
BRANCH   1  30
ATOM     30  O   UNL     1      -2.262  15.303  22.590  0.00  0.00    +0.000 OA
ATOM     31  H   UNL     1      -1.481  14.870  22.216  0.00  0.00    +0.000 HD
ENDBRANCH   1  30
BRANCH  23  32
ATOM     32  C   UNL     1       1.688  11.101  18.169  0.00  0.00    +0.000 C 
BRANCH  32  33
ATOM     33  N   UNL     1       2.190  12.367  18.654  0.00  0.00    +0.000 N 
ATOM     34  C   UNL     1       2.511  12.750  19.927  0.00  0.00    +0.000 A 
ATOM     35  C   UNL     1       2.702  14.110  19.840  0.00  0.00    +0.000 A 
ATOM     36  N   UNL     1       2.545  14.544  18.549  0.00  0.00    +0.000 NA
ATOM     37  C   UNL     1       2.237  13.475  17.855  0.00  0.00    +0.000 A 
ENDBRANCH  32  33
ENDBRANCH  23  32
TORSDOF 4
ENDMDL
MODEL 7
REMARK VINA RESULT:      -6.8      3.064     10.237
REMARK  Name = 
REMARK  5 active torsions:
REMARK  status: ('A' for Active; 'I' for Inactive)
REMARK    1  A    between atoms: C_1  and  C_2
REMARK    2  A    between atoms: C_2  and  C_3
REMARK    3  A    between atoms: C_3  and  O_4
REMARK    4  A    between atoms: C_26  and  C_27
REMARK    5  A    between atoms: C_27  and  N_28
REMARK                            x       y       z     vdW  Elec       q    Type
REMARK                         _______ _______ _______ _____ _____    ______ ____
ROOT
ATOM      1  C   UNL     1      -3.420  17.002  24.613  0.00  0.00    +0.000 C 
ATOM      2  C   UNL     1      -4.867  17.463  25.037  0.00  0.00    +0.000 C 
ATOM      3  O   UNL     1      -5.123  18.098  26.057  0.00  0.00    +0.000 OA
ATOM      4  O   UNL     1      -5.827  17.301  24.094  0.00  0.00    +0.000 OA
ATOM      5  C   UNL     1      -5.871  16.054  23.406  0.00  0.00    +0.000 C 
ATOM      6  C   UNL     1      -4.563  15.354  23.286  0.00  0.00    +0.000 A 
ATOM      7  C   UNL     1      -3.470  15.544  24.066  0.00  0.00    +0.000 A 
ATOM      8  C   UNL     1      -2.408  14.445  23.967  0.00  0.00    +0.000 A 
ATOM      9  C   UNL     1      -2.261  13.746  22.799  0.00  0.00    +0.000 A 
ATOM     10  N   UNL     1      -3.040  14.254  21.762  0.00  0.00    +0.000 N 
ATOM     11  C   UNL     1      -4.161  15.024  21.889  0.00  0.00    +0.000 A 
ATOM     12  O   UNL     1      -4.780  15.470  20.929  0.00  0.00    +0.000 OA
ATOM     13  C   UNL     1      -2.390  14.156  20.501  0.00  0.00    +0.000 C 
ATOM     14  C   UNL     1      -1.421  13.066  20.765  0.00  0.00    +0.000 A 
ATOM     15  C   UNL     1      -1.399  12.657  22.083  0.00  0.00    +0.000 A 
ATOM     16  N   UNL     1      -0.790  11.464  22.402  0.00  0.00    +0.000 NA
ATOM     17  C   UNL     1      -0.195  10.666  21.336  0.00  0.00    +0.000 A 
ATOM     18  C   UNL     1       0.498   9.373  21.359  0.00  0.00    +0.000 A 
ATOM     19  C   UNL     1       1.098   8.739  20.205  0.00  0.00    +0.000 A 
ATOM     20  C   UNL     1       0.881   9.287  18.967  0.00  0.00    +0.000 A 
ATOM     21  C   UNL     1       0.248  10.497  18.880  0.00  0.00    +0.000 A 
ATOM     22  C   UNL     1      -0.201  11.185  20.019  0.00  0.00    +0.000 A 
ATOM     23  C   UNL     1      -0.687  12.457  19.777  0.00  0.00    +0.000 A 
ATOM     24  O   UNL     1       1.336   8.791  17.781  0.00  0.00    +0.000 OA
ATOM     25  C   UNL     1       2.668   8.357  18.004  0.00  0.00    +0.000 C 
ATOM     26  C   UNL     1       2.645   7.284  19.086  0.00  0.00    +0.000 C 
ATOM     27  O   UNL     1       1.931   7.645  20.314  0.00  0.00    +0.000 OA
ENDROOT
BRANCH   1  29
ATOM     28  C   UNL     1      -1.178  18.155  25.260  0.00  0.00    +0.000 C 
ATOM     29  C   UNL     1      -2.479  17.532  25.722  0.00  0.00    +0.000 C 
ENDBRANCH   1  29
BRANCH   1  30
ATOM     30  O   UNL     1      -3.118  17.832  23.445  0.00  0.00    +0.000 OA
ATOM     31  H   UNL     1      -2.559  18.564  23.744  0.00  0.00    +0.000 HD
ENDBRANCH   1  30
BRANCH  23  32
ATOM     32  C   UNL     1      -0.359  13.242  18.533  0.00  0.00    +0.000 C 
BRANCH  32  33
ATOM     33  N   UNL     1       0.795  14.108  18.633  0.00  0.00    +0.000 N 
ATOM     34  C   UNL     1       0.863  15.440  18.938  0.00  0.00    +0.000 A 
ATOM     35  C   UNL     1       2.164  15.790  18.657  0.00  0.00    +0.000 A 
ATOM     36  N   UNL     1       2.883  14.703  18.234  0.00  0.00    +0.000 NA
ATOM     37  C   UNL     1       2.036  13.702  18.227  0.00  0.00    +0.000 A 
ENDBRANCH  32  33
ENDBRANCH  23  32
TORSDOF 4
ENDMDL
MODEL 8
REMARK VINA RESULT:      -6.6      6.954      9.388
REMARK  Name = 
REMARK  5 active torsions:
REMARK  status: ('A' for Active; 'I' for Inactive)
REMARK    1  A    between atoms: C_1  and  C_2
REMARK    2  A    between atoms: C_2  and  C_3
REMARK    3  A    between atoms: C_3  and  O_4
REMARK    4  A    between atoms: C_26  and  C_27
REMARK    5  A    between atoms: C_27  and  N_28
REMARK                            x       y       z     vdW  Elec       q    Type
REMARK                         _______ _______ _______ _____ _____    ______ ____
ROOT
ATOM      1  C   UNL     1       0.345  10.805  18.854  0.00  0.00    +0.000 C 
ATOM      2  C   UNL     1      -1.229  10.831  18.768  0.00  0.00    +0.000 C 
ATOM      3  O   UNL     1      -1.903  10.033  18.120  0.00  0.00    +0.000 OA
ATOM      4  O   UNL     1      -1.843  11.676  19.631  0.00  0.00    +0.000 OA
ATOM      5  C   UNL     1      -1.317  12.995  19.748  0.00  0.00    +0.000 C 
ATOM      6  C   UNL     1       0.140  13.120  19.470  0.00  0.00    +0.000 A 
ATOM      7  C   UNL     1       0.904  12.256  18.756  0.00  0.00    +0.000 A 
ATOM      8  C   UNL     1       2.262  12.809  18.315  0.00  0.00    +0.000 A 
ATOM      9  C   UNL     1       2.890  13.756  19.077  0.00  0.00    +0.000 A 
ATOM     10  N   UNL     1       2.242  13.993  20.287  0.00  0.00    +0.000 N 
ATOM     11  C   UNL     1       0.932  13.734  20.574  0.00  0.00    +0.000 A 
ATOM     12  O   UNL     1       0.435  13.934  21.676  0.00  0.00    +0.000 OA
ATOM     13  C   UNL     1       3.155  14.265  21.344  0.00  0.00    +0.000 C 
ATOM     14  C   UNL     1       4.343  14.719  20.583  0.00  0.00    +0.000 A 
ATOM     15  C   UNL     1       4.201  14.595  19.216  0.00  0.00    +0.000 A 
ATOM     16  N   UNL     1       5.081  15.259  18.390  0.00  0.00    +0.000 NA
ATOM     17  C   UNL     1       6.129  16.079  18.986  0.00  0.00    +0.000 A 
ATOM     18  C   UNL     1       7.185  16.899  18.382  0.00  0.00    +0.000 A 
ATOM     19  C   UNL     1       8.205  17.607  19.125  0.00  0.00    +0.000 A 
ATOM     20  C   UNL     1       8.104  17.661  20.492  0.00  0.00    +0.000 A 
ATOM     21  C   UNL     1       7.145  16.910  21.115  0.00  0.00    +0.000 A 
ATOM     22  C   UNL     1       6.250  16.102  20.396  0.00  0.00    +0.000 A 
ATOM     23  C   UNL     1       5.440  15.296  21.175  0.00  0.00    +0.000 A 
ATOM     24  O   UNL     1       8.953  18.321  21.330  0.00  0.00    +0.000 OA
ATOM     25  C   UNL     1      10.266  18.089  20.849  0.00  0.00    +0.000 C 
ATOM     26  C   UNL     1      10.355  18.631  19.427  0.00  0.00    +0.000 C 
ATOM     27  O   UNL     1       9.304  18.173  18.514  0.00  0.00    +0.000 OA
ENDROOT
BRANCH   1  29
ATOM     28  C   UNL     1       2.247   9.212  18.064  0.00  0.00    +0.000 C 
ATOM     29  C   UNL     1       0.783   9.596  17.991  0.00  0.00    +0.000 C 
ENDBRANCH   1  29
BRANCH   1  30
ATOM     30  O   UNL     1       0.612  10.390  20.233  0.00  0.00    +0.000 OA
ATOM     31  H   UNL     1      -0.241  10.224  20.658  0.00  0.00    +0.000 HD
ENDBRANCH   1  30
BRANCH  23  32
ATOM     32  C   UNL     1       5.763  14.937  22.603  0.00  0.00    +0.000 C 
BRANCH  32  33
ATOM     33  N   UNL     1       6.562  13.744  22.776  0.00  0.00    +0.000 N 
ATOM     34  C   UNL     1       7.746  13.393  22.189  0.00  0.00    +0.000 A 
ATOM     35  C   UNL     1       7.924  12.073  22.535  0.00  0.00    +0.000 A 
ATOM     36  N   UNL     1       6.905  11.638  23.343  0.00  0.00    +0.000 NA
ATOM     37  C   UNL     1       6.098  12.663  23.473  0.00  0.00    +0.000 A 
ENDBRANCH  32  33
ENDBRANCH  23  32
TORSDOF 4
ENDMDL
MODEL 9
REMARK VINA RESULT:      -6.6      1.909      9.251
REMARK  Name = 
REMARK  5 active torsions:
REMARK  status: ('A' for Active; 'I' for Inactive)
REMARK    1  A    between atoms: C_1  and  C_2
REMARK    2  A    between atoms: C_2  and  C_3
REMARK    3  A    between atoms: C_3  and  O_4
REMARK    4  A    between atoms: C_26  and  C_27
REMARK    5  A    between atoms: C_27  and  N_28
REMARK                            x       y       z     vdW  Elec       q    Type
REMARK                         _______ _______ _______ _____ _____    ______ ____
ROOT
ATOM      1  C   UNL     1      -2.691  12.623  20.430  0.00  0.00    +0.000 C 
ATOM      2  C   UNL     1      -2.775  13.971  21.244  0.00  0.00    +0.000 C 
ATOM      3  O   UNL     1      -3.551  14.889  20.989  0.00  0.00    +0.000 OA
ATOM      4  O   UNL     1      -2.072  13.994  22.402  0.00  0.00    +0.000 OA
ATOM      5  C   UNL     1      -0.737  13.500  22.372  0.00  0.00    +0.000 C 
ATOM      6  C   UNL     1      -0.474  12.454  21.345  0.00  0.00    +0.000 A 
ATOM      7  C   UNL     1      -1.199  12.223  20.223  0.00  0.00    +0.000 A 
ATOM      8  C   UNL     1      -0.503  11.354  19.172  0.00  0.00    +0.000 A 
ATOM      9  C   UNL     1       0.405  10.409  19.567  0.00  0.00    +0.000 A 
ATOM     10  N   UNL     1       0.467  10.262  20.950  0.00  0.00    +0.000 N 
ATOM     11  C   UNL     1       0.081  11.180  21.884  0.00  0.00    +0.000 A 
ATOM     12  O   UNL     1       0.129  10.970  23.091  0.00  0.00    +0.000 OA
ATOM     13  C   UNL     1       0.697   8.913  21.340  0.00  0.00    +0.000 C 
ATOM     14  C   UNL     1       1.315   8.364  20.110  0.00  0.00    +0.000 A 
ATOM     15  C   UNL     1       1.322   9.252  19.054  0.00  0.00    +0.000 A 
ATOM     16  N   UNL     1       2.132   8.995  17.970  0.00  0.00    +0.000 NA
ATOM     17  C   UNL     1       2.963   7.797  17.976  0.00  0.00    +0.000 A 
ATOM     18  C   UNL     1       3.918   7.269  16.995  0.00  0.00    +0.000 A 
ATOM     19  C   UNL     1       4.621   6.012  17.124  0.00  0.00    +0.000 A 
ATOM     20  C   UNL     1       4.527   5.324  18.306  0.00  0.00    +0.000 A 
ATOM     21  C   UNL     1       3.646   5.760  19.258  0.00  0.00    +0.000 A 
ATOM     22  C   UNL     1       2.850   6.902  19.066  0.00  0.00    +0.000 A 
ATOM     23  C   UNL     1       1.909   7.127  20.055  0.00  0.00    +0.000 A 
ATOM     24  O   UNL     1       5.159   4.153  18.603  0.00  0.00    +0.000 OA
ATOM     25  C   UNL     1       5.078   3.339  17.444  0.00  0.00    +0.000 C 
ATOM     26  C   UNL     1       5.768   4.071  16.299  0.00  0.00    +0.000 C 
ATOM     27  O   UNL     1       5.328   5.452  16.080  0.00  0.00    +0.000 OA
ENDROOT
BRANCH   1  29
ATOM     28  C   UNL     1      -4.004  11.510  18.477  0.00  0.00    +0.000 C 
ATOM     29  C   UNL     1      -3.769  12.743  19.325  0.00  0.00    +0.000 C 
ENDBRANCH   1  29
BRANCH   1  30
ATOM     30  O   UNL     1      -3.224  11.622  21.358  0.00  0.00    +0.000 OA
ATOM     31  H   UNL     1      -3.371  10.808  20.855  0.00  0.00    +0.000 HD
ENDBRANCH   1  30
BRANCH  23  32
ATOM     32  C   UNL     1       1.431   6.053  20.998  0.00  0.00    +0.000 C 
BRANCH  32  33
ATOM     33  N   UNL     1       1.500   4.702  20.485  0.00  0.00    +0.000 N 
ATOM     34  C   UNL     1       0.824   4.127  19.444  0.00  0.00    +0.000 A 
ATOM     35  C   UNL     1       1.099   2.784  19.556  0.00  0.00    +0.000 A 
ATOM     36  N   UNL     1       1.949   2.544  20.605  0.00  0.00    +0.000 NA
ATOM     37  C   UNL     1       2.175   3.715  21.148  0.00  0.00    +0.000 A 
ENDBRANCH  32  33
ENDBRANCH  23  32
TORSDOF 4
ENDMDL
