MODEL 1
REMARK VINA RESULT:      -7.7      0.000      0.000
REMARK  Name = 
REMARK  8 active torsions:
REMARK  status: ('A' for Active; 'I' for Inactive)
REMARK    1  A    between atoms: C_1  and  O_2
REMARK    2  A    between atoms: O_2  and  C_3
REMARK    3  A    between atoms: N_7  and  C_8
REMARK    4  A    between atoms: C_11  and  C_12
REMARK    5  A    between atoms: C_20  and  O_21
REMARK    6  A    between atoms: O_21  and  C_22
REMARK    7  A    between atoms: C_22  and  C_23
REMARK    8  A    between atoms: C_23  and  C_24
REMARK                            x       y       z     vdW  Elec       q    Type
REMARK                         _______ _______ _______ _____ _____    ______ ____
ROOT
ATOM      1  C   UNL     1       6.019   6.444  16.803  0.00  0.00    +0.000 A 
ATOM      2  C   UNL     1       4.897   6.995  17.415  0.00  0.00    +0.000 A 
ATOM      3  C   UNL     1       3.762   6.201  17.692  0.00  0.00    +0.000 A 
ATOM      4  C   UNL     1       2.603   6.663  18.305  0.00  0.00    +0.000 A 
ATOM      5  N   UNL     1       2.508   8.031  18.690  0.00  0.00    +0.000 N 
ATOM      6  N   UNL     1       1.577   5.823  18.551  0.00  0.00    +0.000 NA
ATOM      7  N   UNL     1       1.661   4.563  18.225  0.00  0.00    +0.000 NA
ATOM      8  N   UNL     1       2.725   4.059  17.667  0.00  0.00    +0.000 NA
ATOM      9  C   UNL     1       3.771   4.846  17.398  0.00  0.00    +0.000 A 
ATOM     10  C   UNL     1       4.910   4.294  16.827  0.00  0.00    +0.000 A 
ATOM     11  C   UNL     1       6.036   5.068  16.517  0.00  0.00    +0.000 A 
ATOM     12  H   UNL     1       2.523   8.620  17.861  0.00  0.00    +0.000 HD
ENDROOT
BRANCH   5  13
ATOM     13  C   UNL     1       1.628   8.503  19.682  0.00  0.00    +0.000 A 
ATOM     14  C   UNL     1       0.736   9.549  19.404  0.00  0.00    +0.000 A 
ATOM     15  C   UNL     1      -0.072  10.089  20.401  0.00  0.00    +0.000 A 
ATOM     16  C   UNL     1      -0.024   9.570  21.694  0.00  0.00    +0.000 A 
ATOM     17  C   UNL     1      -0.807  10.215  22.797  0.00  0.00    +0.000 C 
ATOM     18  C   UNL     1       0.780   8.451  21.952  0.00  0.00    +0.000 A 
ATOM     19  C   UNL     1       1.590   7.913  20.949  0.00  0.00    +0.000 A 
ENDBRANCH   5  13
BRANCH   1  21
ATOM     20  C   UNL     1       7.747   7.820  17.645  0.00  0.00    +0.000 C 
ATOM     21  O   UNL     1       7.143   7.178  16.523  0.00  0.00    +0.000 OA
ENDBRANCH   1  21
BRANCH  11  22
ATOM     22  O   UNL     1       7.188   4.557  15.980  0.00  0.00    +0.000 OA
BRANCH  22  23
ATOM     23  C   UNL     1       7.302   4.578  14.556  0.00  0.00    +0.000 C 
BRANCH  23  24
ATOM     24  C   UNL     1       6.126   3.812  13.957  0.00  0.00    +0.000 C 
BRANCH  24  25
ATOM     25  C   UNL     1       6.310   3.615  12.457  0.00  0.00    +0.000 C 
ATOM     26 CL   UNL     1       4.751   3.238  11.688  0.00  0.00    +0.000 Cl
ENDBRANCH  24  25
ENDBRANCH  23  24
ENDBRANCH  22  23
ENDBRANCH  11  22
TORSDOF 6
ENDMDL
MODEL 2
REMARK VINA RESULT:      -7.5      0.808      1.252
REMARK  Name = 
REMARK  8 active torsions:
REMARK  status: ('A' for Active; 'I' for Inactive)
REMARK    1  A    between atoms: C_1  and  O_2
REMARK    2  A    between atoms: O_2  and  C_3
REMARK    3  A    between atoms: N_7  and  C_8
REMARK    4  A    between atoms: C_11  and  C_12
REMARK    5  A    between atoms: C_20  and  O_21
REMARK    6  A    between atoms: O_21  and  C_22
REMARK    7  A    between atoms: C_22  and  C_23
REMARK    8  A    between atoms: C_23  and  C_24
REMARK                            x       y       z     vdW  Elec       q    Type
REMARK                         _______ _______ _______ _____ _____    ______ ____
ROOT
ATOM      1  C   UNL     1       5.445   6.361  16.991  0.00  0.00    +0.000 A 
ATOM      2  C   UNL     1       4.389   6.975  17.659  0.00  0.00    +0.000 A 
ATOM      3  C   UNL     1       3.410   6.205  18.325  0.00  0.00    +0.000 A 
ATOM      4  C   UNL     1       2.328   6.732  19.021  0.00  0.00    +0.000 A 
ATOM      5  N   UNL     1       2.152   8.143  19.086  0.00  0.00    +0.000 N 
ATOM      6  N   UNL     1       1.455   5.917  19.648  0.00  0.00    +0.000 NA
ATOM      7  N   UNL     1       1.618   4.624  19.616  0.00  0.00    +0.000 NA
ATOM      8  N   UNL     1       2.620   4.064  19.000  0.00  0.00    +0.000 NA
ATOM      9  C   UNL     1       3.515   4.823  18.360  0.00  0.00    +0.000 A 
ATOM     10  C   UNL     1       4.594   4.220  17.729  0.00  0.00    +0.000 A 
ATOM     11  C   UNL     1       5.561   4.961  17.037  0.00  0.00    +0.000 A 
ATOM     12  H   UNL     1       1.964   8.507  18.154  0.00  0.00    +0.000 HD
ENDROOT
BRANCH   5  13
ATOM     13  C   UNL     1       1.407   8.792  20.089  0.00  0.00    +0.000 A 
ATOM     14  C   UNL     1       1.680   8.557  21.444  0.00  0.00    +0.000 A 
ATOM     15  C   UNL     1       0.891   9.117  22.444  0.00  0.00    +0.000 A 
ATOM     16  C   UNL     1      -0.173   9.953  22.107  0.00  0.00    +0.000 A 
ATOM     17  C   UNL     1      -1.093  10.471  23.170  0.00  0.00    +0.000 C 
ATOM     18  C   UNL     1      -0.381  10.285  20.761  0.00  0.00    +0.000 A 
ATOM     19  C   UNL     1       0.413   9.718  19.760  0.00  0.00    +0.000 A 
ENDBRANCH   5  13
BRANCH   1  21
ATOM     20  C   UNL     1       7.358   7.735  17.182  0.00  0.00    +0.000 C 
ATOM     21  O   UNL     1       6.419   7.071  16.338  0.00  0.00    +0.000 OA
ENDBRANCH   1  21
BRANCH  11  22
ATOM     22  O   UNL     1       6.654   4.406  16.426  0.00  0.00    +0.000 OA
BRANCH  22  23
ATOM     23  C   UNL     1       6.403   3.523  15.330  0.00  0.00    +0.000 C 
BRANCH  23  24
ATOM     24  C   UNL     1       5.931   4.344  14.135  0.00  0.00    +0.000 C 
BRANCH  24  25
ATOM     25  C   UNL     1       6.276   3.648  12.823  0.00  0.00    +0.000 C 
ATOM     26 CL   UNL     1       4.800   3.340  11.881  0.00  0.00    +0.000 Cl
ENDBRANCH  24  25
ENDBRANCH  23  24
ENDBRANCH  22  23
ENDBRANCH  11  22
TORSDOF 6
ENDMDL
MODEL 3
REMARK VINA RESULT:      -7.3      1.097      1.145
REMARK  Name = 
REMARK  8 active torsions:
REMARK  status: ('A' for Active; 'I' for Inactive)
REMARK    1  A    between atoms: C_1  and  O_2
REMARK    2  A    between atoms: O_2  and  C_3
REMARK    3  A    between atoms: N_7  and  C_8
REMARK    4  A    between atoms: C_11  and  C_12
REMARK    5  A    between atoms: C_20  and  O_21
REMARK    6  A    between atoms: O_21  and  C_22
REMARK    7  A    between atoms: C_22  and  C_23
REMARK    8  A    between atoms: C_23  and  C_24
REMARK                            x       y       z     vdW  Elec       q    Type
REMARK                         _______ _______ _______ _____ _____    ______ ____
ROOT
ATOM      1  C   UNL     1       5.495   6.464  17.316  0.00  0.00    +0.000 A 
ATOM      2  C   UNL     1       4.383   7.031  17.934  0.00  0.00    +0.000 A 
ATOM      3  C   UNL     1       3.480   6.231  18.669  0.00  0.00    +0.000 A 
ATOM      4  C   UNL     1       2.350   6.710  19.323  0.00  0.00    +0.000 A 
ATOM      5  N   UNL     1       2.039   8.098  19.266  0.00  0.00    +0.000 N 
ATOM      6  N   UNL     1       1.557   5.872  20.021  0.00  0.00    +0.000 NA
ATOM      7  N   UNL     1       1.843   4.603  20.101  0.00  0.00    +0.000 NA
ATOM      8  N   UNL     1       2.897   4.090  19.531  0.00  0.00    +0.000 NA
ATOM      9  C   UNL     1       3.716   4.874  18.823  0.00  0.00    +0.000 A 
ATOM     10  C   UNL     1       4.851   4.324  18.241  0.00  0.00    +0.000 A 
ATOM     11  C   UNL     1       5.745   5.092  17.483  0.00  0.00    +0.000 A 
ATOM     12  H   UNL     1       1.820   8.360  18.307  0.00  0.00    +0.000 HD
ENDROOT
BRANCH   5  13
ATOM     13  C   UNL     1       1.232   8.757  20.213  0.00  0.00    +0.000 A 
ATOM     14  C   UNL     1       0.206   9.618  19.797  0.00  0.00    +0.000 A 
ATOM     15  C   UNL     1      -0.537  10.348  20.720  0.00  0.00    +0.000 A 
ATOM     16  C   UNL     1      -0.286  10.207  22.085  0.00  0.00    +0.000 A 
ATOM     17  C   UNL     1      -1.005  11.069  23.078  0.00  0.00    +0.000 C 
ATOM     18  C   UNL     1       0.658   9.264  22.512  0.00  0.00    +0.000 A 
ATOM     19  C   UNL     1       1.403   8.534  21.581  0.00  0.00    +0.000 A 
ENDBRANCH   5  13
BRANCH   1  21
ATOM     20  C   UNL     1       7.415   7.842  17.373  0.00  0.00    +0.000 C 
ATOM     21  O   UNL     1       6.399   7.206  16.600  0.00  0.00    +0.000 OA
ENDBRANCH   1  21
BRANCH  11  22
ATOM     22  O   UNL     1       6.888   4.593  16.917  0.00  0.00    +0.000 OA
BRANCH  22  23
ATOM     23  C   UNL     1       6.727   3.707  15.807  0.00  0.00    +0.000 C 
BRANCH  23  24
ATOM     24  C   UNL     1       6.735   4.526  14.519  0.00  0.00    +0.000 C 
BRANCH  24  25
ATOM     25  C   UNL     1       5.613   4.086  13.585  0.00  0.00    +0.000 C 
ATOM     26 CL   UNL     1       6.287   3.298  12.140  0.00  0.00    +0.000 Cl
ENDBRANCH  24  25
ENDBRANCH  23  24
ENDBRANCH  22  23
ENDBRANCH  11  22
TORSDOF 6
ENDMDL
MODEL 4
REMARK VINA RESULT:      -7.2      2.848      4.286
REMARK  Name = 
REMARK  8 active torsions:
REMARK  status: ('A' for Active; 'I' for Inactive)
REMARK    1  A    between atoms: C_1  and  O_2
REMARK    2  A    between atoms: O_2  and  C_3
REMARK    3  A    between atoms: N_7  and  C_8
REMARK    4  A    between atoms: C_11  and  C_12
REMARK    5  A    between atoms: C_20  and  O_21
REMARK    6  A    between atoms: O_21  and  C_22
REMARK    7  A    between atoms: C_22  and  C_23
REMARK    8  A    between atoms: C_23  and  C_24
REMARK                            x       y       z     vdW  Elec       q    Type
REMARK                         _______ _______ _______ _____ _____    ______ ____
ROOT
ATOM      1  C   UNL     1       2.590   5.438  19.914  0.00  0.00    +0.000 A 
ATOM      2  C   UNL     1       2.005   6.624  20.351  0.00  0.00    +0.000 A 
ATOM      3  C   UNL     1       1.973   7.764  19.516  0.00  0.00    +0.000 A 
ATOM      4  C   UNL     1       1.406   8.984  19.864  0.00  0.00    +0.000 A 
ATOM      5  N   UNL     1       0.812   9.143  21.148  0.00  0.00    +0.000 N 
ATOM      6  N   UNL     1       1.403  10.011  18.990  0.00  0.00    +0.000 NA
ATOM      7  N   UNL     1       1.922   9.871  17.803  0.00  0.00    +0.000 NA
ATOM      8  N   UNL     1       2.451   8.749  17.403  0.00  0.00    +0.000 NA
ATOM      9  C   UNL     1       2.485   7.699  18.229  0.00  0.00    +0.000 A 
ATOM     10  C   UNL     1       3.027   6.500  17.786  0.00  0.00    +0.000 A 
ATOM     11  C   UNL     1       3.096   5.366  18.606  0.00  0.00    +0.000 A 
ATOM     12  H   UNL     1       1.527   9.062  21.867  0.00  0.00    +0.000 HD
ENDROOT
BRANCH   5  13
ATOM     13  C   UNL     1      -0.156  10.122  21.444  0.00  0.00    +0.000 A 
ATOM     14  C   UNL     1      -0.756  10.864  20.417  0.00  0.00    +0.000 A 
ATOM     15  C   UNL     1      -1.643  11.898  20.701  0.00  0.00    +0.000 A 
ATOM     16  C   UNL     1      -1.972  12.190  22.024  0.00  0.00    +0.000 A 
ATOM     17  C   UNL     1      -2.839  13.371  22.345  0.00  0.00    +0.000 C 
ATOM     18  C   UNL     1      -1.466  11.379  23.050  0.00  0.00    +0.000 A 
ATOM     19  C   UNL     1      -0.574  10.343  22.759  0.00  0.00    +0.000 A 
ENDBRANCH   5  13
BRANCH   1  21
ATOM     20  C   UNL     1       1.392   3.627  20.849  0.00  0.00    +0.000 C 
ATOM     21  O   UNL     1       2.635   4.309  20.691  0.00  0.00    +0.000 OA
ENDBRANCH   1  21
BRANCH  11  22
ATOM     22  O   UNL     1       3.597   4.158  18.197  0.00  0.00    +0.000 OA
BRANCH  22  23
ATOM     23  C   UNL     1       5.007   4.085  17.977  0.00  0.00    +0.000 C 
BRANCH  23  24
ATOM     24  C   UNL     1       5.268   4.010  16.476  0.00  0.00    +0.000 C 
BRANCH  24  25
ATOM     25  C   UNL     1       6.714   4.370  16.154  0.00  0.00    +0.000 C 
ATOM     26 CL   UNL     1       7.655   4.545  17.652  0.00  0.00    +0.000 Cl
ENDBRANCH  24  25
ENDBRANCH  23  24
ENDBRANCH  22  23
ENDBRANCH  11  22
TORSDOF 6
ENDMDL
MODEL 5
REMARK VINA RESULT:      -7.0      3.319      4.675
REMARK  Name = 
REMARK  8 active torsions:
REMARK  status: ('A' for Active; 'I' for Inactive)
REMARK    1  A    between atoms: C_1  and  O_2
REMARK    2  A    between atoms: O_2  and  C_3
REMARK    3  A    between atoms: N_7  and  C_8
REMARK    4  A    between atoms: C_11  and  C_12
REMARK    5  A    between atoms: C_20  and  O_21
REMARK    6  A    between atoms: O_21  and  C_22
REMARK    7  A    between atoms: C_22  and  C_23
REMARK    8  A    between atoms: C_23  and  C_24
REMARK                            x       y       z     vdW  Elec       q    Type
REMARK                         _______ _______ _______ _____ _____    ______ ____
ROOT
ATOM      1  C   UNL     1       3.632   6.448  17.730  0.00  0.00    +0.000 A 
ATOM      2  C   UNL     1       3.014   7.694  17.800  0.00  0.00    +0.000 A 
ATOM      3  C   UNL     1       2.196   8.034  18.901  0.00  0.00    +0.000 A 
ATOM      4  C   UNL     1       1.548   9.253  19.057  0.00  0.00    +0.000 A 
ATOM      5  N   UNL     1       1.683  10.257  18.056  0.00  0.00    +0.000 N 
ATOM      6  N   UNL     1       0.804   9.497  20.156  0.00  0.00    +0.000 NA
ATOM      7  N   UNL     1       0.691   8.596  21.091  0.00  0.00    +0.000 NA
ATOM      8  N   UNL     1       1.289   7.440  21.019  0.00  0.00    +0.000 NA
ATOM      9  C   UNL     1       2.036   7.144  19.951  0.00  0.00    +0.000 A 
ATOM     10  C   UNL     1       2.690   5.920  19.895  0.00  0.00    +0.000 A 
ATOM     11  C   UNL     1       3.482   5.550  18.800  0.00  0.00    +0.000 A 
ATOM     12  H   UNL     1       1.258   9.934  17.189  0.00  0.00    +0.000 HD
ENDROOT
BRANCH   5  13
ATOM     13  C   UNL     1       1.473  11.629  18.292  0.00  0.00    +0.000 A 
ATOM     14  C   UNL     1       2.539  12.536  18.210  0.00  0.00    +0.000 A 
ATOM     15  C   UNL     1       2.365  13.879  18.533  0.00  0.00    +0.000 A 
ATOM     16  C   UNL     1       1.109  14.347  18.916  0.00  0.00    +0.000 A 
ATOM     17  C   UNL     1       0.937  15.765  19.371  0.00  0.00    +0.000 C 
ATOM     18  C   UNL     1       0.016  13.471  18.889  0.00  0.00    +0.000 A 
ATOM     19  C   UNL     1       0.195  12.123  18.566  0.00  0.00    +0.000 A 
ENDBRANCH   5  13
BRANCH   1  21
ATOM     20  C   UNL     1       5.746   6.652  16.692  0.00  0.00    +0.000 C 
ATOM     21  O   UNL     1       4.438   6.082  16.683  0.00  0.00    +0.000 OA
ENDBRANCH   1  21
BRANCH  11  22
ATOM     22  O   UNL     1       4.166   4.365  18.720  0.00  0.00    +0.000 OA
BRANCH  22  23
ATOM     23  C   UNL     1       3.827   3.358  19.676  0.00  0.00    +0.000 C 
BRANCH  23  24
ATOM     24  C   UNL     1       3.580   2.045  18.940  0.00  0.00    +0.000 C 
BRANCH  24  25
ATOM     25  C   UNL     1       2.473   2.199  17.904  0.00  0.00    +0.000 C 
ATOM     26 CL   UNL     1       0.933   2.597  18.701  0.00  0.00    +0.000 Cl
ENDBRANCH  24  25
ENDBRANCH  23  24
ENDBRANCH  22  23
ENDBRANCH  11  22
TORSDOF 6
ENDMDL
MODEL 6
REMARK VINA RESULT:      -7.0      2.603      4.268
REMARK  Name = 
REMARK  8 active torsions:
REMARK  status: ('A' for Active; 'I' for Inactive)
REMARK    1  A    between atoms: C_1  and  O_2
REMARK    2  A    between atoms: O_2  and  C_3
REMARK    3  A    between atoms: N_7  and  C_8
REMARK    4  A    between atoms: C_11  and  C_12
REMARK    5  A    between atoms: C_20  and  O_21
REMARK    6  A    between atoms: O_21  and  C_22
REMARK    7  A    between atoms: C_22  and  C_23
REMARK    8  A    between atoms: C_23  and  C_24
REMARK                            x       y       z     vdW  Elec       q    Type
REMARK                         _______ _______ _______ _____ _____    ______ ____
ROOT
ATOM      1  C   UNL     1       2.522   5.532  20.068  0.00  0.00    +0.000 A 
ATOM      2  C   UNL     1       1.953   6.738  20.468  0.00  0.00    +0.000 A 
ATOM      3  C   UNL     1       1.924   7.848  19.593  0.00  0.00    +0.000 A 
ATOM      4  C   UNL     1       1.371   9.085  19.904  0.00  0.00    +0.000 A 
ATOM      5  N   UNL     1       0.790   9.295  21.186  0.00  0.00    +0.000 N 
ATOM      6  N   UNL     1       1.369  10.081  18.994  0.00  0.00    +0.000 NA
ATOM      7  N   UNL     1       1.876   9.894  17.807  0.00  0.00    +0.000 NA
ATOM      8  N   UNL     1       2.392   8.754  17.443  0.00  0.00    +0.000 NA
ATOM      9  C   UNL     1       2.423   7.734  18.305  0.00  0.00    +0.000 A 
ATOM     10  C   UNL     1       2.950   6.514  17.900  0.00  0.00    +0.000 A 
ATOM     11  C   UNL     1       3.016   5.409  18.759  0.00  0.00    +0.000 A 
ATOM     12  H   UNL     1       1.511   9.233  21.902  0.00  0.00    +0.000 HD
ENDROOT
BRANCH   5  13
ATOM     13  C   UNL     1      -0.166  10.293  21.456  0.00  0.00    +0.000 A 
ATOM     14  C   UNL     1      -0.610  10.517  22.767  0.00  0.00    +0.000 A 
ATOM     15  C   UNL     1      -1.622  11.433  23.037  0.00  0.00    +0.000 A 
ATOM     16  C   UNL     1      -2.192  12.168  21.997  0.00  0.00    +0.000 A 
ATOM     17  C   UNL     1      -3.356  13.075  22.262  0.00  0.00    +0.000 C 
ATOM     18  C   UNL     1      -1.675  12.033  20.701  0.00  0.00    +0.000 A 
ATOM     19  C   UNL     1      -0.659  11.110  20.436  0.00  0.00    +0.000 A 
ENDBRANCH   5  13
BRANCH   1  21
ATOM     20  C   UNL     1       1.326   3.742  21.043  0.00  0.00    +0.000 C 
ATOM     21  O   UNL     1       2.565   4.431  20.884  0.00  0.00    +0.000 OA
ENDBRANCH   1  21
BRANCH  11  22
ATOM     22  O   UNL     1       3.502   4.183  18.388  0.00  0.00    +0.000 OA
BRANCH  22  23
ATOM     23  C   UNL     1       4.861   4.133  17.949  0.00  0.00    +0.000 C 
BRANCH  23  24
ATOM     24  C   UNL     1       4.889   3.700  16.486  0.00  0.00    +0.000 C 
BRANCH  24  25
ATOM     25  C   UNL     1       6.196   4.116  15.819  0.00  0.00    +0.000 C 
ATOM     26 CL   UNL     1       6.110   3.832  14.065  0.00  0.00    +0.000 Cl
ENDBRANCH  24  25
ENDBRANCH  23  24
ENDBRANCH  22  23
ENDBRANCH  11  22
TORSDOF 6
ENDMDL
MODEL 7
REMARK VINA RESULT:      -7.0      3.442      4.816
REMARK  Name = 
REMARK  8 active torsions:
REMARK  status: ('A' for Active; 'I' for Inactive)
REMARK    1  A    between atoms: C_1  and  O_2
REMARK    2  A    between atoms: O_2  and  C_3
REMARK    3  A    between atoms: N_7  and  C_8
REMARK    4  A    between atoms: C_11  and  C_12
REMARK    5  A    between atoms: C_20  and  O_21
REMARK    6  A    between atoms: O_21  and  C_22
REMARK    7  A    between atoms: C_22  and  C_23
REMARK    8  A    between atoms: C_23  and  C_24
REMARK                            x       y       z     vdW  Elec       q    Type
REMARK                         _______ _______ _______ _____ _____    ______ ____
ROOT
ATOM      1  C   UNL     1       3.632   6.682  17.745  0.00  0.00    +0.000 A 
ATOM      2  C   UNL     1       2.950   7.892  17.850  0.00  0.00    +0.000 A 
ATOM      3  C   UNL     1       2.117   8.158  18.960  0.00  0.00    +0.000 A 
ATOM      4  C   UNL     1       1.406   9.337  19.150  0.00  0.00    +0.000 A 
ATOM      5  N   UNL     1       1.488  10.374  18.177  0.00  0.00    +0.000 N 
ATOM      6  N   UNL     1       0.653   9.511  20.255  0.00  0.00    +0.000 NA
ATOM      7  N   UNL     1       0.588   8.580  21.165  0.00  0.00    +0.000 NA
ATOM      8  N   UNL     1       1.245   7.459  21.060  0.00  0.00    +0.000 NA
ATOM      9  C   UNL     1       2.005   7.232  19.985  0.00  0.00    +0.000 A 
ATOM     10  C   UNL     1       2.722   6.046  19.895  0.00  0.00    +0.000 A 
ATOM     11  C   UNL     1       3.531   5.748  18.790  0.00  0.00    +0.000 A 
ATOM     12  H   UNL     1       1.079  10.053  17.302  0.00  0.00    +0.000 HD
ENDROOT
BRANCH   5  13
ATOM     13  C   UNL     1       1.207  11.726  18.451  0.00  0.00    +0.000 A 
ATOM     14  C   UNL     1      -0.119  12.171  18.553  0.00  0.00    +0.000 A 
ATOM     15  C   UNL     1      -0.412  13.520  18.730  0.00  0.00    +0.000 A 
ATOM     16  C   UNL     1       0.621  14.450  18.837  0.00  0.00    +0.000 A 
ATOM     17  C   UNL     1       0.315  15.915  18.916  0.00  0.00    +0.000 C 
ATOM     18  C   UNL     1       1.948  13.999  18.851  0.00  0.00    +0.000 A 
ATOM     19  C   UNL     1       2.238  12.643  18.672  0.00  0.00    +0.000 A 
ENDBRANCH   5  13
BRANCH   1  21
ATOM     20  C   UNL     1       5.799   6.848  16.816  0.00  0.00    +0.000 C 
ATOM     21  O   UNL     1       4.455   6.388  16.689  0.00  0.00    +0.000 OA
ENDBRANCH   1  21
BRANCH  11  22
ATOM     22  O   UNL     1       4.275   4.603  18.677  0.00  0.00    +0.000 OA
BRANCH  22  23
ATOM     23  C   UNL     1       3.619   3.458  18.128  0.00  0.00    +0.000 C 
BRANCH  23  24
ATOM     24  C   UNL     1       3.339   2.466  19.252  0.00  0.00    +0.000 C 
BRANCH  24  25
ATOM     25  C   UNL     1       1.898   1.973  19.200  0.00  0.00    +0.000 C 
ATOM     26 CL   UNL     1       0.805   3.186  19.905  0.00  0.00    +0.000 Cl
ENDBRANCH  24  25
ENDBRANCH  23  24
ENDBRANCH  22  23
ENDBRANCH  11  22
TORSDOF 6
ENDMDL
MODEL 8
REMARK VINA RESULT:      -7.0      3.103      4.529
REMARK  Name = 
REMARK  8 active torsions:
REMARK  status: ('A' for Active; 'I' for Inactive)
REMARK    1  A    between atoms: C_1  and  O_2
REMARK    2  A    between atoms: O_2  and  C_3
REMARK    3  A    between atoms: N_7  and  C_8
REMARK    4  A    between atoms: C_11  and  C_12
REMARK    5  A    between atoms: C_20  and  O_21
REMARK    6  A    between atoms: O_21  and  C_22
REMARK    7  A    between atoms: C_22  and  C_23
REMARK    8  A    between atoms: C_23  and  C_24
REMARK                            x       y       z     vdW  Elec       q    Type
REMARK                         _______ _______ _______ _____ _____    ______ ____
ROOT
ATOM      1  C   UNL     1       2.666   5.423  19.871  0.00  0.00    +0.000 A 
ATOM      2  C   UNL     1       2.091   6.611  20.315  0.00  0.00    +0.000 A 
ATOM      3  C   UNL     1       2.043   7.747  19.477  0.00  0.00    +0.000 A 
ATOM      4  C   UNL     1       1.484   8.969  19.832  0.00  0.00    +0.000 A 
ATOM      5  N   UNL     1       0.915   9.133  21.127  0.00  0.00    +0.000 N 
ATOM      6  N   UNL     1       1.463   9.993  18.955  0.00  0.00    +0.000 NA
ATOM      7  N   UNL     1       1.959   9.849  17.758  0.00  0.00    +0.000 NA
ATOM      8  N   UNL     1       2.480   8.725  17.352  0.00  0.00    +0.000 NA
ATOM      9  C   UNL     1       2.530   7.678  18.180  0.00  0.00    +0.000 A 
ATOM     10  C   UNL     1       3.062   6.477  17.730  0.00  0.00    +0.000 A 
ATOM     11  C   UNL     1       3.147   5.346  18.553  0.00  0.00    +0.000 A 
ATOM     12  H   UNL     1       1.644   9.054  21.832  0.00  0.00    +0.000 HD
ENDROOT
BRANCH   5  13
ATOM     13  C   UNL     1      -0.047  10.113  21.439  0.00  0.00    +0.000 A 
ATOM     14  C   UNL     1      -0.453  10.315  22.766  0.00  0.00    +0.000 A 
ATOM     15  C   UNL     1      -1.469  11.213  23.078  0.00  0.00    +0.000 A 
ATOM     16  C   UNL     1      -2.081  11.952  22.066  0.00  0.00    +0.000 A 
ATOM     17  C   UNL     1      -3.249  12.838  22.377  0.00  0.00    +0.000 C 
ATOM     18  C   UNL     1      -1.602  11.840  20.753  0.00  0.00    +0.000 A 
ATOM     19  C   UNL     1      -0.582  10.936  20.445  0.00  0.00    +0.000 A 
ENDBRANCH   5  13
BRANCH   1  21
ATOM     20  C   UNL     1       1.468   3.799  21.103  0.00  0.00    +0.000 C 
ATOM     21  O   UNL     1       2.727   4.296  20.650  0.00  0.00    +0.000 OA
ENDBRANCH   1  21
BRANCH  11  22
ATOM     22  O   UNL     1       3.639   4.137  18.138  0.00  0.00    +0.000 OA
BRANCH  22  23
ATOM     23  C   UNL     1       4.824   4.161  17.341  0.00  0.00    +0.000 C 
BRANCH  23  24
ATOM     24  C   UNL     1       6.024   4.406  18.250  0.00  0.00    +0.000 C 
BRANCH  24  25
ATOM     25  C   UNL     1       7.090   5.232  17.538  0.00  0.00    +0.000 C 
ATOM     26 CL   UNL     1       7.882   6.337  18.684  0.00  0.00    +0.000 Cl
ENDBRANCH  24  25
ENDBRANCH  23  24
ENDBRANCH  22  23
ENDBRANCH  11  22
TORSDOF 6
ENDMDL
MODEL 9
REMARK VINA RESULT:      -6.9      3.901      5.759
REMARK  Name = 
REMARK  8 active torsions:
REMARK  status: ('A' for Active; 'I' for Inactive)
REMARK    1  A    between atoms: C_1  and  O_2
REMARK    2  A    between atoms: O_2  and  C_3
REMARK    3  A    between atoms: N_7  and  C_8
REMARK    4  A    between atoms: C_11  and  C_12
REMARK    5  A    between atoms: C_20  and  O_21
REMARK    6  A    between atoms: O_21  and  C_22
REMARK    7  A    between atoms: C_22  and  C_23
REMARK    8  A    between atoms: C_23  and  C_24
REMARK                            x       y       z     vdW  Elec       q    Type
REMARK                         _______ _______ _______ _____ _____    ______ ____
ROOT
ATOM      1  C   UNL     1       2.568   6.957  18.531  0.00  0.00    +0.000 A 
ATOM      2  C   UNL     1       2.168   8.289  18.462  0.00  0.00    +0.000 A 
ATOM      3  C   UNL     1       1.502   8.900  19.549  0.00  0.00    +0.000 A 
ATOM      4  C   UNL     1       1.074  10.222  19.572  0.00  0.00    +0.000 A 
ATOM      5  N   UNL     1       1.294  11.054  18.438  0.00  0.00    +0.000 N 
ATOM      6  N   UNL     1       0.466  10.725  20.666  0.00  0.00    +0.000 NA
ATOM      7  N   UNL     1       0.280   9.982  21.721  0.00  0.00    +0.000 NA
ATOM      8  N   UNL     1       0.675   8.741  21.775  0.00  0.00    +0.000 NA
ATOM      9  C   UNL     1       1.280   8.190  20.719  0.00  0.00    +0.000 A 
ATOM     10  C   UNL     1       1.721   6.875  20.795  0.00  0.00    +0.000 A 
ATOM     11  C   UNL     1       2.357   6.240  19.720  0.00  0.00    +0.000 A 
ATOM     12  H   UNL     1       0.757  10.702  17.648  0.00  0.00    +0.000 HD
ENDROOT
BRANCH   5  13
ATOM     13  C   UNL     1       1.328  12.460  18.495  0.00  0.00    +0.000 A 
ATOM     14  C   UNL     1       2.551  13.144  18.468  0.00  0.00    +0.000 A 
ATOM     15  C   UNL     1       2.605  14.527  18.619  0.00  0.00    +0.000 A 
ATOM     16  C   UNL     1       1.427  15.258  18.770  0.00  0.00    +0.000 A 
ATOM     17  C   UNL     1       1.481  16.731  19.043  0.00  0.00    +0.000 C 
ATOM     18  C   UNL     1       0.195  14.595  18.683  0.00  0.00    +0.000 A 
ATOM     19  C   UNL     1       0.147  13.206  18.533  0.00  0.00    +0.000 A 
ENDBRANCH   5  13
BRANCH   1  21
ATOM     20  C   UNL     1       4.572   6.742  17.296  0.00  0.00    +0.000 C 
ATOM     21  O   UNL     1       3.222   6.330  17.502  0.00  0.00    +0.000 OA
ENDBRANCH   1  21
BRANCH  11  22
ATOM     22  O   UNL     1       2.831   4.955  19.765  0.00  0.00    +0.000 OA
BRANCH  22  23
ATOM     23  C   UNL     1       2.268   4.094  20.757  0.00  0.00    +0.000 C 
BRANCH  23  24
ATOM     24  C   UNL     1       1.180   3.243  20.109  0.00  0.00    +0.000 C 
BRANCH  24  25
ATOM     25  C   UNL     1       1.549   2.883  18.675  0.00  0.00    +0.000 C 
ATOM     26 CL   UNL     1       2.920   1.749  18.657  0.00  0.00    +0.000 Cl
ENDBRANCH  24  25
ENDBRANCH  23  24
ENDBRANCH  22  23
ENDBRANCH  11  22
TORSDOF 6
ENDMDL
