MODEL 1
REMARK VINA RESULT:     -10.3      0.000      0.000
REMARK  Name = 
REMARK  5 active torsions:
REMARK  status: ('A' for Active; 'I' for Inactive)
REMARK    1  A    between atoms: C_1  and  C_2
REMARK    2  A    between atoms: C_5  and  C_6
REMARK    3  A    between atoms: C_15  and  C_16
REMARK    4  A    between atoms: N_21  and  C_22
REMARK    5  A    between atoms: N_31  and  C_32
REMARK                            x       y       z     vdW  Elec       q    Type
REMARK                         _______ _______ _______ _____ _____    ______ ____
ROOT
ATOM      1  C   UNL     1       2.028   7.724  19.424  0.00  0.00    +0.000 A 
ATOM      2  C   UNL     1       1.667   7.758  20.718  0.00  0.00    +0.000 A 
ATOM      3  C   UNL     1       1.127   8.942  21.267  0.00  0.00    +0.000 A 
ATOM      4  C   UNL     1       0.725   9.269  22.556  0.00  0.00    +0.000 A 
ATOM      5  N   UNL     1       0.358  10.544  22.640  0.00  0.00    +0.000 NA
ATOM      6  N   UNL     1       0.436  11.035  21.363  0.00  0.00    +0.000 N 
ATOM      7  C   UNL     1       0.989  10.079  20.496  0.00  0.00    +0.000 A 
ATOM      8  N   UNL     1       1.413  10.140  19.155  0.00  0.00    +0.000 N 
ATOM      9  C   UNL     1       1.488  11.294  18.283  0.00  0.00    +0.000 C 
ATOM     10  C   UNL     1       1.834   8.941  18.553  0.00  0.00    +0.000 A 
ATOM     11  O   UNL     1       2.076   8.856  17.346  0.00  0.00    +0.000 OA
ENDROOT
BRANCH   6  12
ATOM     12  C   UNL     1      -0.082  12.328  21.124  0.00  0.00    +0.000 A 
ATOM     13  C   UNL     1      -1.434  12.506  20.820  0.00  0.00    +0.000 A 
ATOM     14  F   UNL     1      -2.291  11.477  20.757  0.00  0.00    +0.000 F 
ATOM     15  C   UNL     1      -1.962  13.785  20.631  0.00  0.00    +0.000 A 
ATOM     16  C   UNL     1      -1.145  14.906  20.768  0.00  0.00    +0.000 A 
ATOM     17  C   UNL     1       0.210  14.736  21.030  0.00  0.00    +0.000 A 
ATOM     18  C   UNL     1       0.737  13.451  21.146  0.00  0.00    +0.000 A 
ATOM     19  F   UNL     1       2.068  13.337  21.238  0.00  0.00    +0.000 F 
ENDBRANCH   6  12
BRANCH   1  26
ATOM     20  C   UNL     1       1.264   4.998  20.370  0.00  0.00    +0.000 C 
ATOM     21  C   UNL     1       2.303   5.227  19.304  0.00  0.00    +0.000 A 
ATOM     22  C   UNL     1       2.959   4.118  18.757  0.00  0.00    +0.000 A 
ATOM     23  C   UNL     1       3.923   4.286  17.765  0.00  0.00    +0.000 A 
ATOM     24  C   UNL     1       4.260   5.565  17.309  0.00  0.00    +0.000 A 
ATOM     25  C   UNL     1       3.627   6.686  17.851  0.00  0.00    +0.000 A 
ATOM     26  C   UNL     1       2.650   6.520  18.847  0.00  0.00    +0.000 A 
BRANCH  24  27
ATOM     27  C   UNL     1       5.225   5.656  16.182  0.00  0.00    +0.000 C 
ATOM     28  O   UNL     1       5.870   6.697  16.105  0.00  0.00    +0.000 OA
ATOM     29  N   UNL     1       5.265   4.598  15.301  0.00  0.00    +0.000 N 
ATOM     30  C   UNL     1       6.147   4.577  14.221  0.00  0.00    +0.000 A 
ATOM     31  C   UNL     1       6.060   3.684  13.123  0.00  0.00    +0.000 A 
ATOM     32  C   UNL     1       7.112   4.032  12.315  0.00  0.00    +0.000 A 
ATOM     33  O   UNL     1       7.801   5.050  12.887  0.00  0.00    +0.000 OA
ATOM     34  N   UNL     1       7.196   5.387  14.078  0.00  0.00    +0.000 NA
ATOM     35  H   UNL     1       4.564   3.871  15.342  0.00  0.00    +0.000 HD
ENDBRANCH  24  27
ENDBRANCH   1  26
TORSDOF 3
ENDMDL
MODEL 2
REMARK VINA RESULT:     -10.2      0.303      1.432
REMARK  Name = 
REMARK  5 active torsions:
REMARK  status: ('A' for Active; 'I' for Inactive)
REMARK    1  A    between atoms: C_1  and  C_2
REMARK    2  A    between atoms: C_5  and  C_6
REMARK    3  A    between atoms: C_15  and  C_16
REMARK    4  A    between atoms: N_21  and  C_22
REMARK    5  A    between atoms: N_31  and  C_32
REMARK                            x       y       z     vdW  Elec       q    Type
REMARK                         _______ _______ _______ _____ _____    ______ ____
ROOT
ATOM      1  C   UNL     1       1.980   7.703  19.520  0.00  0.00    +0.000 A 
ATOM      2  C   UNL     1       1.637   7.722  20.819  0.00  0.00    +0.000 A 
ATOM      3  C   UNL     1       1.083   8.891  21.384  0.00  0.00    +0.000 A 
ATOM      4  C   UNL     1       0.694   9.202  22.681  0.00  0.00    +0.000 A 
ATOM      5  N   UNL     1       0.304  10.469  22.779  0.00  0.00    +0.000 NA
ATOM      6  N   UNL     1       0.355  10.971  21.505  0.00  0.00    +0.000 N 
ATOM      7  C   UNL     1       0.913  10.030  20.624  0.00  0.00    +0.000 A 
ATOM      8  N   UNL     1       1.317  10.109  19.277  0.00  0.00    +0.000 N 
ATOM      9  C   UNL     1       1.358  11.269  18.413  0.00  0.00    +0.000 C 
ATOM     10  C   UNL     1       1.752   8.921  18.660  0.00  0.00    +0.000 A 
ATOM     11  O   UNL     1       1.979   8.850  17.450  0.00  0.00    +0.000 OA
ENDROOT
BRANCH   6  12
ATOM     12  C   UNL     1      -0.190  12.255  21.282  0.00  0.00    +0.000 A 
ATOM     13  C   UNL     1       0.646  13.357  21.081  0.00  0.00    +0.000 A 
ATOM     14  F   UNL     1       1.983  13.244  21.076  0.00  0.00    +0.000 F 
ATOM     15  C   UNL     1       0.114  14.619  20.811  0.00  0.00    +0.000 A 
ATOM     16  C   UNL     1      -1.266  14.790  20.716  0.00  0.00    +0.000 A 
ATOM     17  C   UNL     1      -2.106  13.708  20.954  0.00  0.00    +0.000 A 
ATOM     18  C   UNL     1      -1.564  12.470  21.292  0.00  0.00    +0.000 A 
ATOM     19  F   UNL     1      -2.413  11.506  21.667  0.00  0.00    +0.000 F 
ENDBRANCH   6  12
BRANCH   1  26
ATOM     20  C   UNL     1       1.085   4.952  20.258  0.00  0.00    +0.000 C 
ATOM     21  C   UNL     1       2.206   5.209  19.285  0.00  0.00    +0.000 A 
ATOM     22  C   UNL     1       2.877   4.113  18.728  0.00  0.00    +0.000 A 
ATOM     23  C   UNL     1       3.916   4.308  17.821  0.00  0.00    +0.000 A 
ATOM     24  C   UNL     1       4.316   5.599  17.462  0.00  0.00    +0.000 A 
ATOM     25  C   UNL     1       3.669   6.707  18.015  0.00  0.00    +0.000 A 
ATOM     26  C   UNL     1       2.617   6.515  18.926  0.00  0.00    +0.000 A 
BRANCH  24  27
ATOM     27  C   UNL     1       5.364   5.724  16.416  0.00  0.00    +0.000 C 
ATOM     28  O   UNL     1       6.088   6.711  16.490  0.00  0.00    +0.000 OA
ATOM     29  N   UNL     1       5.390   4.759  15.433  0.00  0.00    +0.000 N 
ATOM     30  C   UNL     1       6.345   4.775  14.417  0.00  0.00    +0.000 A 
ATOM     31  C   UNL     1       6.272   4.005  13.226  0.00  0.00    +0.000 A 
ATOM     32  C   UNL     1       7.403   4.346  12.530  0.00  0.00    +0.000 A 
ATOM     33  O   UNL     1       8.122   5.242  13.249  0.00  0.00    +0.000 OA
ATOM     34  N   UNL     1       7.458   5.506  14.427  0.00  0.00    +0.000 NA
ATOM     35  H   UNL     1       4.636   4.091  15.351  0.00  0.00    +0.000 HD
ENDBRANCH  24  27
ENDBRANCH   1  26
TORSDOF 3
ENDMDL
MODEL 3
REMARK VINA RESULT:      -9.6      3.929      6.690
REMARK  Name = 
REMARK  5 active torsions:
REMARK  status: ('A' for Active; 'I' for Inactive)
REMARK    1  A    between atoms: C_1  and  C_2
REMARK    2  A    between atoms: C_5  and  C_6
REMARK    3  A    between atoms: C_15  and  C_16
REMARK    4  A    between atoms: N_21  and  C_22
REMARK    5  A    between atoms: N_31  and  C_32
REMARK                            x       y       z     vdW  Elec       q    Type
REMARK                         _______ _______ _______ _____ _____    ______ ____
ROOT
ATOM      1  C   UNL     1      -1.435  12.079  19.590  0.00  0.00    +0.000 A 
ATOM      2  C   UNL     1      -2.505  12.054  18.777  0.00  0.00    +0.000 A 
ATOM      3  C   UNL     1      -3.795  12.279  19.304  0.00  0.00    +0.000 A 
ATOM      4  C   UNL     1      -5.054  12.261  18.718  0.00  0.00    +0.000 A 
ATOM      5  N   UNL     1      -6.013  12.442  19.622  0.00  0.00    +0.000 NA
ATOM      6  N   UNL     1      -5.363  12.672  20.807  0.00  0.00    +0.000 N 
ATOM      7  C   UNL     1      -3.978  12.498  20.655  0.00  0.00    +0.000 A 
ATOM      8  N   UNL     1      -2.915  12.466  21.578  0.00  0.00    +0.000 N 
ATOM      9  C   UNL     1      -2.972  12.509  23.024  0.00  0.00    +0.000 C 
ATOM     10  C   UNL     1      -1.610  12.371  21.060  0.00  0.00    +0.000 A 
ATOM     11  O   UNL     1      -0.607  12.490  21.769  0.00  0.00    +0.000 OA
ENDROOT
BRANCH   6  12
ATOM     12  C   UNL     1      -6.140  13.086  21.912  0.00  0.00    +0.000 A 
ATOM     13  C   UNL     1      -7.176  12.280  22.394  0.00  0.00    +0.000 A 
ATOM     14  F   UNL     1      -7.465  11.090  21.848  0.00  0.00    +0.000 F 
ATOM     15  C   UNL     1      -7.914  12.660  23.516  0.00  0.00    +0.000 A 
ATOM     16  C   UNL     1      -7.609  13.845  24.186  0.00  0.00    +0.000 A 
ATOM     17  C   UNL     1      -6.608  14.671  23.689  0.00  0.00    +0.000 A 
ATOM     18  C   UNL     1      -5.926  14.314  22.528  0.00  0.00    +0.000 A 
ATOM     19  F   UNL     1      -5.087  15.215  22.003  0.00  0.00    +0.000 F 
ENDBRANCH   6  12
BRANCH   1  26
ATOM     20  C   UNL     1       0.430  14.282  18.829  0.00  0.00    +0.000 C 
ATOM     21  C   UNL     1       0.793  12.826  18.696  0.00  0.00    +0.000 A 
ATOM     22  C   UNL     1       2.044  12.492  18.164  0.00  0.00    +0.000 A 
ATOM     23  C   UNL     1       2.421  11.158  18.028  0.00  0.00    +0.000 A 
ATOM     24  C   UNL     1       1.552  10.130  18.408  0.00  0.00    +0.000 A 
ATOM     25  C   UNL     1       0.293  10.441  18.929  0.00  0.00    +0.000 A 
ATOM     26  C   UNL     1      -0.088  11.785  19.072  0.00  0.00    +0.000 A 
BRANCH  24  27
ATOM     27  C   UNL     1       2.062   8.737  18.324  0.00  0.00    +0.000 C 
ATOM     28  O   UNL     1       2.527   8.395  17.241  0.00  0.00    +0.000 OA
ATOM     29  N   UNL     1       1.915   7.945  19.441  0.00  0.00    +0.000 N 
ATOM     30  C   UNL     1       2.376   6.629  19.472  0.00  0.00    +0.000 A 
ATOM     31  C   UNL     1       2.019   5.669  20.454  0.00  0.00    +0.000 A 
ATOM     32  C   UNL     1       2.691   4.533  20.082  0.00  0.00    +0.000 A 
ATOM     33  O   UNL     1       3.419   4.786  18.967  0.00  0.00    +0.000 OA
ATOM     34  N   UNL     1       3.221   6.096  18.590  0.00  0.00    +0.000 NA
ATOM     35  H   UNL     1       1.351   8.257  20.220  0.00  0.00    +0.000 HD
ENDBRANCH  24  27
ENDBRANCH   1  26
TORSDOF 3
ENDMDL
MODEL 4
REMARK VINA RESULT:      -9.4      4.202      9.598
REMARK  Name = 
REMARK  5 active torsions:
REMARK  status: ('A' for Active; 'I' for Inactive)
REMARK    1  A    between atoms: C_1  and  C_2
REMARK    2  A    between atoms: C_5  and  C_6
REMARK    3  A    between atoms: C_15  and  C_16
REMARK    4  A    between atoms: N_21  and  C_22
REMARK    5  A    between atoms: N_31  and  C_32
REMARK                            x       y       z     vdW  Elec       q    Type
REMARK                         _______ _______ _______ _____ _____    ______ ____
ROOT
ATOM      1  C   UNL     1       1.328   9.615  19.118  0.00  0.00    +0.000 A 
ATOM      2  C   UNL     1       2.142   9.430  18.065  0.00  0.00    +0.000 A 
ATOM      3  C   UNL     1       2.750   8.173  17.857  0.00  0.00    +0.000 A 
ATOM      4  C   UNL     1       3.655   7.725  16.903  0.00  0.00    +0.000 A 
ATOM      5  N   UNL     1       4.033   6.473  17.144  0.00  0.00    +0.000 NA
ATOM      6  N   UNL     1       3.294   6.066  18.223  0.00  0.00    +0.000 N 
ATOM      7  C   UNL     1       2.540   7.133  18.739  0.00  0.00    +0.000 A 
ATOM      8  N   UNL     1       1.760   7.273  19.903  0.00  0.00    +0.000 N 
ATOM      9  C   UNL     1       1.588   6.337  20.994  0.00  0.00    +0.000 C 
ATOM     10  C   UNL     1       1.044   8.474  20.063  0.00  0.00    +0.000 A 
ATOM     11  O   UNL     1       0.216   8.635  20.963  0.00  0.00    +0.000 OA
ENDROOT
BRANCH   6  12
ATOM     12  C   UNL     1       3.355   4.702  18.584  0.00  0.00    +0.000 A 
ATOM     13  C   UNL     1       2.296   3.839  18.285  0.00  0.00    +0.000 A 
ATOM     14  F   UNL     1       1.198   4.258  17.640  0.00  0.00    +0.000 F 
ATOM     15  C   UNL     1       2.371   2.480  18.595  0.00  0.00    +0.000 A 
ATOM     16  C   UNL     1       3.521   1.960  19.189  0.00  0.00    +0.000 A 
ATOM     17  C   UNL     1       4.561   2.818  19.527  0.00  0.00    +0.000 A 
ATOM     18  C   UNL     1       4.445   4.184  19.276  0.00  0.00    +0.000 A 
ATOM     19  F   UNL     1       5.400   4.985  19.762  0.00  0.00    +0.000 F 
ENDBRANCH   6  12
BRANCH   1  26
ATOM     20  C   UNL     1      -1.299  10.388  17.929  0.00  0.00    +0.000 C 
ATOM     21  C   UNL     1      -0.503  11.312  18.814  0.00  0.00    +0.000 A 
ATOM     22  C   UNL     1      -1.001  12.596  19.064  0.00  0.00    +0.000 A 
ATOM     23  C   UNL     1      -0.299  13.479  19.881  0.00  0.00    +0.000 A 
ATOM     24  C   UNL     1       0.920  13.103  20.454  0.00  0.00    +0.000 A 
ATOM     25  C   UNL     1       1.442  11.831  20.207  0.00  0.00    +0.000 A 
ATOM     26  C   UNL     1       0.734  10.935  19.388  0.00  0.00    +0.000 A 
BRANCH  24  27
ATOM     27  C   UNL     1       1.561  14.063  21.391  0.00  0.00    +0.000 C 
ATOM     28  O   UNL     1       0.894  14.394  22.365  0.00  0.00    +0.000 OA
ATOM     29  N   UNL     1       2.810  14.535  21.052  0.00  0.00    +0.000 N 
ATOM     30  C   UNL     1       3.504  15.424  21.871  0.00  0.00    +0.000 A 
ATOM     31  C   UNL     1       4.643  16.170  21.473  0.00  0.00    +0.000 A 
ATOM     32  C   UNL     1       4.975  16.905  22.582  0.00  0.00    +0.000 A 
ATOM     33  O   UNL     1       4.114  16.616  23.588  0.00  0.00    +0.000 OA
ATOM     34  N   UNL     1       3.198  15.690  23.141  0.00  0.00    +0.000 NA
ATOM     35  H   UNL     1       3.197  14.348  20.137  0.00  0.00    +0.000 HD
ENDBRANCH  24  27
ENDBRANCH   1  26
TORSDOF 3
ENDMDL
MODEL 5
REMARK VINA RESULT:      -9.4      4.221      9.715
REMARK  Name = 
REMARK  5 active torsions:
REMARK  status: ('A' for Active; 'I' for Inactive)
REMARK    1  A    between atoms: C_1  and  C_2
REMARK    2  A    between atoms: C_5  and  C_6
REMARK    3  A    between atoms: C_15  and  C_16
REMARK    4  A    between atoms: N_21  and  C_22
REMARK    5  A    between atoms: N_31  and  C_32
REMARK                            x       y       z     vdW  Elec       q    Type
REMARK                         _______ _______ _______ _____ _____    ______ ____
ROOT
ATOM      1  C   UNL     1       1.291   9.624  19.124  0.00  0.00    +0.000 A 
ATOM      2  C   UNL     1       2.112   9.455  18.073  0.00  0.00    +0.000 A 
ATOM      3  C   UNL     1       2.739   8.208  17.863  0.00  0.00    +0.000 A 
ATOM      4  C   UNL     1       3.654   7.777  16.911  0.00  0.00    +0.000 A 
ATOM      5  N   UNL     1       4.050   6.531  17.148  0.00  0.00    +0.000 NA
ATOM      6  N   UNL     1       3.314   6.108  18.225  0.00  0.00    +0.000 N 
ATOM      7  C   UNL     1       2.543   7.162  18.741  0.00  0.00    +0.000 A 
ATOM      8  N   UNL     1       1.756   7.286  19.903  0.00  0.00    +0.000 N 
ATOM      9  C   UNL     1       1.596   6.344  20.990  0.00  0.00    +0.000 C 
ATOM     10  C   UNL     1       1.022   8.475  20.064  0.00  0.00    +0.000 A 
ATOM     11  O   UNL     1       0.188   8.621  20.962  0.00  0.00    +0.000 OA
ENDROOT
BRANCH   6  12
ATOM     12  C   UNL     1       3.395   4.744  18.581  0.00  0.00    +0.000 A 
ATOM     13  C   UNL     1       4.515   4.251  19.257  0.00  0.00    +0.000 A 
ATOM     14  F   UNL     1       5.541   5.042  19.604  0.00  0.00    +0.000 F 
ATOM     15  C   UNL     1       4.580   2.915  19.656  0.00  0.00    +0.000 A 
ATOM     16  C   UNL     1       3.510   2.057  19.403  0.00  0.00    +0.000 A 
ATOM     17  C   UNL     1       2.409   2.528  18.696  0.00  0.00    +0.000 A 
ATOM     18  C   UNL     1       2.388   3.846  18.242  0.00  0.00    +0.000 A 
ATOM     19  F   UNL     1       1.385   4.204  17.433  0.00  0.00    +0.000 F 
ENDBRANCH   6  12
BRANCH   1  26
ATOM     20  C   UNL     1      -1.358  10.348  17.954  0.00  0.00    +0.000 C 
ATOM     21  C   UNL     1      -0.572  11.287  18.831  0.00  0.00    +0.000 A 
ATOM     22  C   UNL     1      -1.091  12.563  19.083  0.00  0.00    +0.000 A 
ATOM     23  C   UNL     1      -0.398  13.460  19.892  0.00  0.00    +0.000 A 
ATOM     24  C   UNL     1       0.832  13.107  20.457  0.00  0.00    +0.000 A 
ATOM     25  C   UNL     1       1.374  11.843  20.208  0.00  0.00    +0.000 A 
ATOM     26  C   UNL     1       0.676  10.934  19.397  0.00  0.00    +0.000 A 
BRANCH  24  27
ATOM     27  C   UNL     1       1.463  14.080  21.387  0.00  0.00    +0.000 C 
ATOM     28  O   UNL     1       0.826  14.351  22.399  0.00  0.00    +0.000 OA
ATOM     29  N   UNL     1       2.667  14.628  21.003  0.00  0.00    +0.000 N 
ATOM     30  C   UNL     1       3.349  15.536  21.811  0.00  0.00    +0.000 A 
ATOM     31  C   UNL     1       4.426  16.353  21.380  0.00  0.00    +0.000 A 
ATOM     32  C   UNL     1       4.769  17.081  22.491  0.00  0.00    +0.000 A 
ATOM     33  O   UNL     1       3.973  16.721  23.528  0.00  0.00    +0.000 OA
ATOM     34  N   UNL     1       3.089  15.755  23.100  0.00  0.00    +0.000 NA
ATOM     35  H   UNL     1       3.019  14.484  20.066  0.00  0.00    +0.000 HD
ENDBRANCH  24  27
ENDBRANCH   1  26
TORSDOF 3
ENDMDL
MODEL 6
REMARK VINA RESULT:      -9.3      4.202     10.040
REMARK  Name = 
REMARK  5 active torsions:
REMARK  status: ('A' for Active; 'I' for Inactive)
REMARK    1  A    between atoms: C_1  and  C_2
REMARK    2  A    between atoms: C_5  and  C_6
REMARK    3  A    between atoms: C_15  and  C_16
REMARK    4  A    between atoms: N_21  and  C_22
REMARK    5  A    between atoms: N_31  and  C_32
REMARK                            x       y       z     vdW  Elec       q    Type
REMARK                         _______ _______ _______ _____ _____    ______ ____
ROOT
ATOM      1  C   UNL     1       1.233   9.635  19.112  0.00  0.00    +0.000 A 
ATOM      2  C   UNL     1       2.052   9.468  18.060  0.00  0.00    +0.000 A 
ATOM      3  C   UNL     1       2.695   8.227  17.859  0.00  0.00    +0.000 A 
ATOM      4  C   UNL     1       3.612   7.800  16.907  0.00  0.00    +0.000 A 
ATOM      5  N   UNL     1       4.026   6.561  17.155  0.00  0.00    +0.000 NA
ATOM      6  N   UNL     1       3.299   6.138  18.237  0.00  0.00    +0.000 N 
ATOM      7  C   UNL     1       2.515   7.186  18.748  0.00  0.00    +0.000 A 
ATOM      8  N   UNL     1       1.732   7.311  19.911  0.00  0.00    +0.000 N 
ATOM      9  C   UNL     1       1.587   6.376  21.007  0.00  0.00    +0.000 C 
ATOM     10  C   UNL     1       0.982   8.491  20.064  0.00  0.00    +0.000 A 
ATOM     11  O   UNL     1       0.150   8.634  20.963  0.00  0.00    +0.000 OA
ENDROOT
BRANCH   6  12
ATOM     12  C   UNL     1       3.399   4.778  18.606  0.00  0.00    +0.000 A 
ATOM     13  C   UNL     1       2.354   3.890  18.336  0.00  0.00    +0.000 A 
ATOM     14  F   UNL     1       1.233   4.279  17.710  0.00  0.00    +0.000 F 
ATOM     15  C   UNL     1       2.468   2.535  18.653  0.00  0.00    +0.000 A 
ATOM     16  C   UNL     1       3.641   2.046  19.225  0.00  0.00    +0.000 A 
ATOM     17  C   UNL     1       4.669   2.930  19.535  0.00  0.00    +0.000 A 
ATOM     18  C   UNL     1       4.515   4.291  19.278  0.00  0.00    +0.000 A 
ATOM     19  F   UNL     1       5.462   5.117  19.738  0.00  0.00    +0.000 F 
ENDBRANCH   6  12
BRANCH   1  26
ATOM     20  C   UNL     1      -1.391  10.345  17.880  0.00  0.00    +0.000 C 
ATOM     21  C   UNL     1      -0.635  11.286  18.781  0.00  0.00    +0.000 A 
ATOM     22  C   UNL     1      -1.169  12.557  19.025  0.00  0.00    +0.000 A 
ATOM     23  C   UNL     1      -0.502  13.455  19.856  0.00  0.00    +0.000 A 
ATOM     24  C   UNL     1       0.716  13.108  20.449  0.00  0.00    +0.000 A 
ATOM     25  C   UNL     1       1.273  11.850  20.209  0.00  0.00    +0.000 A 
ATOM     26  C   UNL     1       0.602  10.939  19.376  0.00  0.00    +0.000 A 
BRANCH  24  27
ATOM     27  C   UNL     1       1.315  14.081  21.399  0.00  0.00    +0.000 C 
ATOM     28  O   UNL     1       2.488  13.889  21.703  0.00  0.00    +0.000 OA
ATOM     29  N   UNL     1       0.490  15.068  21.893  0.00  0.00    +0.000 N 
ATOM     30  C   UNL     1       0.960  16.040  22.776  0.00  0.00    +0.000 A 
ATOM     31  C   UNL     1       0.134  16.902  23.543  0.00  0.00    +0.000 A 
ATOM     32  C   UNL     1       1.015  17.670  24.261  0.00  0.00    +0.000 A 
ATOM     33  O   UNL     1       2.284  17.316  23.941  0.00  0.00    +0.000 OA
ATOM     34  N   UNL     1       2.245  16.300  23.012  0.00  0.00    +0.000 NA
ATOM     35  H   UNL     1      -0.506  15.032  21.729  0.00  0.00    +0.000 HD
ENDBRANCH  24  27
ENDBRANCH   1  26
TORSDOF 3
ENDMDL
MODEL 7
REMARK VINA RESULT:      -9.3      3.964      6.681
REMARK  Name = 
REMARK  5 active torsions:
REMARK  status: ('A' for Active; 'I' for Inactive)
REMARK    1  A    between atoms: C_1  and  C_2
REMARK    2  A    between atoms: C_5  and  C_6
REMARK    3  A    between atoms: C_15  and  C_16
REMARK    4  A    between atoms: N_21  and  C_22
REMARK    5  A    between atoms: N_31  and  C_32
REMARK                            x       y       z     vdW  Elec       q    Type
REMARK                         _______ _______ _______ _____ _____    ______ ____
ROOT
ATOM      1  C   UNL     1      -0.797  12.609  20.646  0.00  0.00    +0.000 A 
ATOM      2  C   UNL     1      -0.531  13.079  21.876  0.00  0.00    +0.000 A 
ATOM      3  C   UNL     1      -1.589  13.497  22.714  0.00  0.00    +0.000 A 
ATOM      4  C   UNL     1      -1.601  14.059  23.984  0.00  0.00    +0.000 A 
ATOM      5  N   UNL     1      -2.834  14.383  24.359  0.00  0.00    +0.000 NA
ATOM      6  N   UNL     1      -3.654  13.943  23.352  0.00  0.00    +0.000 N 
ATOM      7  C   UNL     1      -2.896  13.455  22.274  0.00  0.00    +0.000 A 
ATOM      8  N   UNL     1      -3.245  13.045  20.973  0.00  0.00    +0.000 N 
ATOM      9  C   UNL     1      -4.537  13.107  20.322  0.00  0.00    +0.000 C 
ATOM     10  C   UNL     1      -2.225  12.505  20.169  0.00  0.00    +0.000 A 
ATOM     11  O   UNL     1      -2.453  11.978  19.077  0.00  0.00    +0.000 OA
ENDROOT
BRANCH   6  12
ATOM     12  C   UNL     1      -5.048  13.987  23.572  0.00  0.00    +0.000 A 
ATOM     13  C   UNL     1      -5.789  15.116  23.211  0.00  0.00    +0.000 A 
ATOM     14  F   UNL     1      -5.221  16.185  22.634  0.00  0.00    +0.000 F 
ATOM     15  C   UNL     1      -7.174  15.147  23.381  0.00  0.00    +0.000 A 
ATOM     16  C   UNL     1      -7.841  14.036  23.895  0.00  0.00    +0.000 A 
ATOM     17  C   UNL     1      -7.108  12.925  24.295  0.00  0.00    +0.000 A 
ATOM     18  C   UNL     1      -5.718  12.934  24.185  0.00  0.00    +0.000 A 
ATOM     19  F   UNL     1      -5.049  11.910  24.729  0.00  0.00    +0.000 F 
ENDBRANCH   6  12
BRANCH   1  26
ATOM     20  C   UNL     1       0.801  14.683  19.212  0.00  0.00    +0.000 C 
ATOM     21  C   UNL     1       1.044  13.207  19.040  0.00  0.00    +0.000 A 
ATOM     22  C   UNL     1       2.038  12.789  18.147  0.00  0.00    +0.000 A 
ATOM     23  C   UNL     1       2.297  11.433  17.962  0.00  0.00    +0.000 A 
ATOM     24  C   UNL     1       1.561  10.466  18.654  0.00  0.00    +0.000 A 
ATOM     25  C   UNL     1       0.555  10.860  19.540  0.00  0.00    +0.000 A 
ATOM     26  C   UNL     1       0.294  12.227  19.733  0.00  0.00    +0.000 A 
BRANCH  24  27
ATOM     27  C   UNL     1       1.961   9.046  18.478  0.00  0.00    +0.000 C 
ATOM     28  O   UNL     1       2.293   8.714  17.345  0.00  0.00    +0.000 OA
ATOM     29  N   UNL     1       1.868   8.224  19.580  0.00  0.00    +0.000 N 
ATOM     30  C   UNL     1       2.236   6.881  19.525  0.00  0.00    +0.000 A 
ATOM     31  C   UNL     1       1.909   5.911  20.508  0.00  0.00    +0.000 A 
ATOM     32  C   UNL     1       2.460   4.747  20.037  0.00  0.00    +0.000 A 
ATOM     33  O   UNL     1       3.092   4.992  18.863  0.00  0.00    +0.000 OA
ATOM     34  N   UNL     1       2.951   6.325  18.548  0.00  0.00    +0.000 NA
ATOM     35  H   UNL     1       1.406   8.545  20.420  0.00  0.00    +0.000 HD
ENDBRANCH  24  27
ENDBRANCH   1  26
TORSDOF 3
ENDMDL
MODEL 8
REMARK VINA RESULT:      -9.3      1.029      1.585
REMARK  Name = 
REMARK  5 active torsions:
REMARK  status: ('A' for Active; 'I' for Inactive)
REMARK    1  A    between atoms: C_1  and  C_2
REMARK    2  A    between atoms: C_5  and  C_6
REMARK    3  A    between atoms: C_15  and  C_16
REMARK    4  A    between atoms: N_21  and  C_22
REMARK    5  A    between atoms: N_31  and  C_32
REMARK                            x       y       z     vdW  Elec       q    Type
REMARK                         _______ _______ _______ _____ _____    ______ ____
ROOT
ATOM      1  C   UNL     1       2.208   7.278  19.501  0.00  0.00    +0.000 A 
ATOM      2  C   UNL     1       1.627   7.232  20.712  0.00  0.00    +0.000 A 
ATOM      3  C   UNL     1       0.811   8.301  21.142  0.00  0.00    +0.000 A 
ATOM      4  C   UNL     1       0.143   8.537  22.337  0.00  0.00    +0.000 A 
ATOM      5  N   UNL     1      -0.440   9.732  22.338  0.00  0.00    +0.000 NA
ATOM      6  N   UNL     1      -0.223  10.250  21.088  0.00  0.00    +0.000 N 
ATOM      7  C   UNL     1       0.623   9.411  20.344  0.00  0.00    +0.000 A 
ATOM      8  N   UNL     1       1.258   9.563  19.096  0.00  0.00    +0.000 N 
ATOM      9  C   UNL     1       1.291  10.726  18.235  0.00  0.00    +0.000 C 
ATOM     10  C   UNL     1       1.970   8.459  18.593  0.00  0.00    +0.000 A 
ATOM     11  O   UNL     1       2.430   8.435  17.448  0.00  0.00    +0.000 OA
ENDROOT
BRANCH   6  12
ATOM     12  C   UNL     1      -0.898  11.442  20.745  0.00  0.00    +0.000 A 
ATOM     13  C   UNL     1      -0.800  12.574  21.559  0.00  0.00    +0.000 A 
ATOM     14  F   UNL     1      -0.060  12.584  22.677  0.00  0.00    +0.000 F 
ATOM     15  C   UNL     1      -1.424  13.770  21.199  0.00  0.00    +0.000 A 
ATOM     16  C   UNL     1      -2.138  13.855  20.005  0.00  0.00    +0.000 A 
ATOM     17  C   UNL     1      -2.275  12.723  19.209  0.00  0.00    +0.000 A 
ATOM     18  C   UNL     1      -1.706  11.517  19.615  0.00  0.00    +0.000 A 
ATOM     19  F   UNL     1      -1.999  10.425  18.900  0.00  0.00    +0.000 F 
ENDBRANCH   6  12
BRANCH   1  26
ATOM     20  C   UNL     1       2.241   4.633  20.885  0.00  0.00    +0.000 C 
ATOM     21  C   UNL     1       3.142   4.953  19.721  0.00  0.00    +0.000 A 
ATOM     22  C   UNL     1       4.055   3.982  19.292  0.00  0.00    +0.000 A 
ATOM     23  C   UNL     1       4.903   4.237  18.216  0.00  0.00    +0.000 A 
ATOM     24  C   UNL     1       4.867   5.470  17.557  0.00  0.00    +0.000 A 
ATOM     25  C   UNL     1       3.973   6.458  17.978  0.00  0.00    +0.000 A 
ATOM     26  C   UNL     1       3.113   6.203  19.058  0.00  0.00    +0.000 A 
BRANCH  24  27
ATOM     27  C   UNL     1       5.732   5.630  16.359  0.00  0.00    +0.000 C 
ATOM     28  O   UNL     1       6.378   6.670  16.293  0.00  0.00    +0.000 OA
ATOM     29  N   UNL     1       5.686   4.631  15.412  0.00  0.00    +0.000 N 
ATOM     30  C   UNL     1       6.472   4.677  14.261  0.00  0.00    +0.000 A 
ATOM     31  C   UNL     1       6.282   3.856  13.118  0.00  0.00    +0.000 A 
ATOM     32  C   UNL     1       7.264   4.252  12.247  0.00  0.00    +0.000 A 
ATOM     33  O   UNL     1       8.009   5.228  12.821  0.00  0.00    +0.000 OA
ATOM     34  N   UNL     1       7.512   5.489  14.079  0.00  0.00    +0.000 NA
ATOM     35  H   UNL     1       4.984   3.906  15.466  0.00  0.00    +0.000 HD
ENDBRANCH  24  27
ENDBRANCH   1  26
TORSDOF 3
ENDMDL
MODEL 9
REMARK VINA RESULT:      -9.3      3.926      6.736
REMARK  Name = 
REMARK  5 active torsions:
REMARK  status: ('A' for Active; 'I' for Inactive)
REMARK    1  A    between atoms: C_1  and  C_2
REMARK    2  A    between atoms: C_5  and  C_6
REMARK    3  A    between atoms: C_15  and  C_16
REMARK    4  A    between atoms: N_21  and  C_22
REMARK    5  A    between atoms: N_31  and  C_32
REMARK                            x       y       z     vdW  Elec       q    Type
REMARK                         _______ _______ _______ _____ _____    ______ ____
ROOT
ATOM      1  C   UNL     1      -1.355  11.964  19.601  0.00  0.00    +0.000 A 
ATOM      2  C   UNL     1      -2.425  12.001  18.789  0.00  0.00    +0.000 A 
ATOM      3  C   UNL     1      -3.709  12.238  19.327  0.00  0.00    +0.000 A 
ATOM      4  C   UNL     1      -4.968  12.278  18.742  0.00  0.00    +0.000 A 
ATOM      5  N   UNL     1      -5.921  12.447  19.654  0.00  0.00    +0.000 NA
ATOM      6  N   UNL     1      -5.266  12.610  20.847  0.00  0.00    +0.000 N 
ATOM      7  C   UNL     1      -3.885  12.406  20.685  0.00  0.00    +0.000 A 
ATOM      8  N   UNL     1      -2.823  12.307  21.605  0.00  0.00    +0.000 N 
ATOM      9  C   UNL     1      -2.879  12.292  23.051  0.00  0.00    +0.000 C 
ATOM     10  C   UNL     1      -1.522  12.200  21.082  0.00  0.00    +0.000 A 
ATOM     11  O   UNL     1      -0.516  12.262  21.794  0.00  0.00    +0.000 OA
ENDROOT
BRANCH   6  12
ATOM     12  C   UNL     1      -6.030  12.997  21.969  0.00  0.00    +0.000 A 
ATOM     13  C   UNL     1      -5.723  14.168  22.669  0.00  0.00    +0.000 A 
ATOM     14  F   UNL     1      -4.713  14.971  22.303  0.00  0.00    +0.000 F 
ATOM     15  C   UNL     1      -6.505  14.582  23.748  0.00  0.00    +0.000 A 
ATOM     16  C   UNL     1      -7.623  13.840  24.128  0.00  0.00    +0.000 A 
ATOM     17  C   UNL     1      -7.912  12.653  23.464  0.00  0.00    +0.000 A 
ATOM     18  C   UNL     1      -7.083  12.215  22.433  0.00  0.00    +0.000 A 
ATOM     19  F   UNL     1      -7.310  10.994  21.935  0.00  0.00    +0.000 F 
ENDBRANCH   6  12
BRANCH   1  26
ATOM     20  C   UNL     1       0.482  14.145  18.715  0.00  0.00    +0.000 C 
ATOM     21  C   UNL     1       0.851  12.686  18.634  0.00  0.00    +0.000 A 
ATOM     22  C   UNL     1       2.094  12.338  18.091  0.00  0.00    +0.000 A 
ATOM     23  C   UNL     1       2.476  11.001  18.002  0.00  0.00    +0.000 A 
ATOM     24  C   UNL     1       1.621   9.985  18.441  0.00  0.00    +0.000 A 
ATOM     25  C   UNL     1       0.371  10.310  18.973  0.00  0.00    +0.000 A 
ATOM     26  C   UNL     1      -0.016  11.657  19.069  0.00  0.00    +0.000 A 
BRANCH  24  27
ATOM     27  C   UNL     1       2.138   8.592  18.404  0.00  0.00    +0.000 C 
ATOM     28  O   UNL     1       2.665   8.238  17.354  0.00  0.00    +0.000 OA
ATOM     29  N   UNL     1       1.929   7.814  19.521  0.00  0.00    +0.000 N 
ATOM     30  C   UNL     1       2.391   6.500  19.595  0.00  0.00    +0.000 A 
ATOM     31  C   UNL     1       1.980   5.552  20.567  0.00  0.00    +0.000 A 
ATOM     32  C   UNL     1       2.675   4.413  20.248  0.00  0.00    +0.000 A 
ATOM     33  O   UNL     1       3.465   4.654  19.173  0.00  0.00    +0.000 OA
ATOM     34  N   UNL     1       3.286   5.959  18.769  0.00  0.00    +0.000 NA
ATOM     35  H   UNL     1       1.321   8.135  20.262  0.00  0.00    +0.000 HD
ENDBRANCH  24  27
ENDBRANCH   1  26
TORSDOF 3
ENDMDL
