MODEL 1
REMARK VINA RESULT:      -8.2      0.000      0.000
REMARK  Name = 
REMARK  6 active torsions:
REMARK  status: ('A' for Active; 'I' for Inactive)
REMARK    1  A    between atoms: C_1  and  C_2
REMARK    2  A    between atoms: C_2  and  C_3
REMARK    3  A    between atoms: C_2  and  S_4
REMARK    4  A    between atoms: S_4  and  N_7
REMARK    5  A    between atoms: C_14  and  N_15
REMARK    6  A    between atoms: C_16  and  C_18
REMARK                            x       y       z     vdW  Elec       q    Type
REMARK                         _______ _______ _______ _____ _____    ______ ____
ROOT
ATOM      1  N   UNL     1       4.422   4.395  19.002  0.00  0.00    +0.000 N 
ATOM      2  C   UNL     1       4.182   3.182  19.611  0.00  0.00    +0.000 A 
ATOM      3  N   UNL     1       4.980   2.099  19.548  0.00  0.00    +0.000 N 
ATOM      4  N   UNL     1       3.088   3.228  20.330  0.00  0.00    +0.000 NA
ATOM      5  C   UNL     1       2.654   4.522  20.252  0.00  0.00    +0.000 A 
ATOM      6  C   UNL     1       1.578   5.107  20.925  0.00  0.00    +0.000 A 
ATOM      7  C   UNL     1       1.314   6.466  20.739  0.00  0.00    +0.000 A 
ATOM      8  C   UNL     1       2.091   7.250  19.881  0.00  0.00    +0.000 A 
ATOM      9  C   UNL     1       3.174   6.664  19.186  0.00  0.00    +0.000 A 
ATOM     10  C   UNL     1       3.448   5.294  19.398  0.00  0.00    +0.000 A 
ATOM     11  H   UNL     1       5.994   2.270  19.501  0.00  0.00    +0.000 HD
ATOM     12  H   UNL     1       4.771   1.400  20.260  0.00  0.00    +0.000 HD
ENDROOT
BRANCH   8  13
ATOM     13  N   UNL     1       1.852   8.630  19.687  0.00  0.00    +0.000 N 
ATOM     14  C   UNL     1       1.483   9.257  18.505  0.00  0.00    +0.000 C 
ATOM     15  O   UNL     1       1.358   8.706  17.413  0.00  0.00    +0.000 OA
ATOM     16  H   UNL     1       1.916   9.215  20.513  0.00  0.00    +0.000 HD
BRANCH  14  17
ATOM     17  C   UNL     1       1.268  10.736  18.535  0.00  0.00    +0.000 A 
ATOM     18  C   UNL     1       2.392  11.525  18.212  0.00  0.00    +0.000 A 
ATOM     19  C   UNL     1       2.309  12.919  18.161  0.00  0.00    +0.000 A 
ATOM     20  C   UNL     1       1.098  13.545  18.429  0.00  0.00    +0.000 A 
ATOM     21  C   UNL     1      -0.025  12.779  18.744  0.00  0.00    +0.000 A 
ATOM     22  C   UNL     1       0.052  11.378  18.798  0.00  0.00    +0.000 A 
ATOM     23 CL   UNL     1      -1.419  10.543  19.152  0.00  0.00    +0.000 Cl
ENDBRANCH  14  17
ENDBRANCH   8  13
BRANCH   1  24
ATOM     24  S   UNL     1       5.718   4.677  17.953  0.00  0.00    +0.000 S 
ATOM     25  O   UNL     1       5.467   3.816  16.806  0.00  0.00    +0.000 OA
ATOM     26  O   UNL     1       6.909   4.472  18.757  0.00  0.00    +0.000 OA
BRANCH  24  28
ATOM     27  C   UNL     1       7.189   6.907  17.443  0.00  0.00    +0.000 C 
ATOM     28  C   UNL     1       5.747   6.386  17.390  0.00  0.00    +0.000 C 
ATOM     29  C   UNL     1       5.180   6.592  15.992  0.00  0.00    +0.000 C 
ENDBRANCH  24  28
ENDBRANCH   1  24
TORSDOF 4
ENDMDL
MODEL 2
REMARK VINA RESULT:      -7.9      2.483      4.043
REMARK  Name = 
REMARK  6 active torsions:
REMARK  status: ('A' for Active; 'I' for Inactive)
REMARK    1  A    between atoms: C_1  and  C_2
REMARK    2  A    between atoms: C_2  and  C_3
REMARK    3  A    between atoms: C_2  and  S_4
REMARK    4  A    between atoms: S_4  and  N_7
REMARK    5  A    between atoms: C_14  and  N_15
REMARK    6  A    between atoms: C_16  and  C_18
REMARK                            x       y       z     vdW  Elec       q    Type
REMARK                         _______ _______ _______ _____ _____    ______ ____
ROOT
ATOM      1  N   UNL     1       4.013   4.095  18.130  0.00  0.00    +0.000 N 
ATOM      2  C   UNL     1       4.732   3.993  16.958  0.00  0.00    +0.000 A 
ATOM      3  N   UNL     1       5.173   2.848  16.404  0.00  0.00    +0.000 N 
ATOM      4  N   UNL     1       4.884   5.168  16.399  0.00  0.00    +0.000 NA
ATOM      5  C   UNL     1       4.178   6.039  17.183  0.00  0.00    +0.000 A 
ATOM      6  C   UNL     1       3.947   7.399  16.957  0.00  0.00    +0.000 A 
ATOM      7  C   UNL     1       3.163   8.116  17.864  0.00  0.00    +0.000 A 
ATOM      8  C   UNL     1       2.619   7.510  19.000  0.00  0.00    +0.000 A 
ATOM      9  C   UNL     1       2.858   6.137  19.242  0.00  0.00    +0.000 A 
ATOM     10  C   UNL     1       3.633   5.413  18.308  0.00  0.00    +0.000 A 
ATOM     11  H   UNL     1       4.581   2.015  16.521  0.00  0.00    +0.000 HD
ATOM     12  H   UNL     1       5.450   2.952  15.427  0.00  0.00    +0.000 HD
ENDROOT
BRANCH   8  13
ATOM     13  N   UNL     1       1.811   8.211  19.924  0.00  0.00    +0.000 N 
ATOM     14  C   UNL     1       0.905   9.225  19.642  0.00  0.00    +0.000 C 
ATOM     15  O   UNL     1       0.704   9.715  18.532  0.00  0.00    +0.000 OA
ATOM     16  H   UNL     1       1.869   7.907  20.890  0.00  0.00    +0.000 HD
BRANCH  14  17
ATOM     17  C   UNL     1       0.142   9.817  20.782  0.00  0.00    +0.000 A 
ATOM     18  C   UNL     1       0.205   9.105  21.998  0.00  0.00    +0.000 A 
ATOM     19  C   UNL     1      -0.429   9.578  23.150  0.00  0.00    +0.000 A 
ATOM     20  C   UNL     1      -1.132  10.776  23.104  0.00  0.00    +0.000 A 
ATOM     21  C   UNL     1      -1.200  11.496  21.910  0.00  0.00    +0.000 A 
ATOM     22  C   UNL     1      -0.566  11.025  20.749  0.00  0.00    +0.000 A 
ATOM     23 CL   UNL     1      -0.684  12.032  19.350  0.00  0.00    +0.000 Cl
ENDBRANCH  14  17
ENDBRANCH   8  13
BRANCH   1  24
ATOM     24  S   UNL     1       3.679   2.782  19.141  0.00  0.00    +0.000 S 
ATOM     25  O   UNL     1       4.842   2.671  20.010  0.00  0.00    +0.000 OA
ATOM     26  O   UNL     1       3.345   1.688  18.246  0.00  0.00    +0.000 OA
BRANCH  24  28
ATOM     27  C   UNL     1       0.991   2.519  19.463  0.00  0.00    +0.000 C 
ATOM     28  C   UNL     1       2.230   3.091  20.163  0.00  0.00    +0.000 C 
ATOM     29  C   UNL     1       2.328   2.526  21.573  0.00  0.00    +0.000 C 
ENDBRANCH  24  28
ENDBRANCH   1  24
TORSDOF 4
ENDMDL
MODEL 3
REMARK VINA RESULT:      -7.8      1.210      1.250
REMARK  Name = 
REMARK  6 active torsions:
REMARK  status: ('A' for Active; 'I' for Inactive)
REMARK    1  A    between atoms: C_1  and  C_2
REMARK    2  A    between atoms: C_2  and  C_3
REMARK    3  A    between atoms: C_2  and  S_4
REMARK    4  A    between atoms: S_4  and  N_7
REMARK    5  A    between atoms: C_14  and  N_15
REMARK    6  A    between atoms: C_16  and  C_18
REMARK                            x       y       z     vdW  Elec       q    Type
REMARK                         _______ _______ _______ _____ _____    ______ ____
ROOT
ATOM      1  N   UNL     1       4.449   4.363  19.037  0.00  0.00    +0.000 N 
ATOM      2  C   UNL     1       4.281   3.159  19.688  0.00  0.00    +0.000 A 
ATOM      3  N   UNL     1       5.136   2.120  19.651  0.00  0.00    +0.000 N 
ATOM      4  N   UNL     1       3.193   3.170  20.417  0.00  0.00    +0.000 NA
ATOM      5  C   UNL     1       2.689   4.436  20.302  0.00  0.00    +0.000 A 
ATOM      6  C   UNL     1       1.589   4.983  20.968  0.00  0.00    +0.000 A 
ATOM      7  C   UNL     1       1.250   6.320  20.741  0.00  0.00    +0.000 A 
ATOM      8  C   UNL     1       1.974   7.116  19.849  0.00  0.00    +0.000 A 
ATOM      9  C   UNL     1       3.081   6.566  19.161  0.00  0.00    +0.000 A 
ATOM     10  C   UNL     1       3.431   5.220  19.415  0.00  0.00    +0.000 A 
ATOM     11  H   UNL     1       6.138   2.344  19.587  0.00  0.00    +0.000 HD
ATOM     12  H   UNL     1       4.972   1.434  20.388  0.00  0.00    +0.000 HD
ENDROOT
BRANCH   8  13
ATOM     13  N   UNL     1       1.660   8.474  19.613  0.00  0.00    +0.000 N 
ATOM     14  C   UNL     1       0.802   9.274  20.355  0.00  0.00    +0.000 C 
ATOM     15  O   UNL     1       0.129   8.903  21.315  0.00  0.00    +0.000 OA
ATOM     16  H   UNL     1       2.150   8.919  18.845  0.00  0.00    +0.000 HD
BRANCH  14  17
ATOM     17  C   UNL     1       0.630  10.696  19.930  0.00  0.00    +0.000 A 
ATOM     18  C   UNL     1       1.305  11.657  20.712  0.00  0.00    +0.000 A 
ATOM     19  C   UNL     1       1.260  13.016  20.392  0.00  0.00    +0.000 A 
ATOM     20  C   UNL     1       0.542  13.436  19.279  0.00  0.00    +0.000 A 
ATOM     21  C   UNL     1      -0.127  12.498  18.490  0.00  0.00    +0.000 A 
ATOM     22  C   UNL     1      -0.086  11.131  18.808  0.00  0.00    +0.000 A 
ATOM     23 CL   UNL     1      -0.915  10.068  17.726  0.00  0.00    +0.000 Cl
ENDBRANCH  14  17
ENDBRANCH   8  13
BRANCH   1  24
ATOM     24  S   UNL     1       5.718   4.679  17.965  0.00  0.00    +0.000 S 
ATOM     25  O   UNL     1       5.471   3.810  16.823  0.00  0.00    +0.000 OA
ATOM     26  O   UNL     1       6.928   4.510  18.748  0.00  0.00    +0.000 OA
BRANCH  24  28
ATOM     27  C   UNL     1       7.117   6.946  17.417  0.00  0.00    +0.000 C 
ATOM     28  C   UNL     1       5.689   6.387  17.399  0.00  0.00    +0.000 C 
ATOM     29  C   UNL     1       5.082   6.577  16.016  0.00  0.00    +0.000 C 
ENDBRANCH  24  28
ENDBRANCH   1  24
TORSDOF 4
ENDMDL
MODEL 4
REMARK VINA RESULT:      -7.8      2.456      3.799
REMARK  Name = 
REMARK  6 active torsions:
REMARK  status: ('A' for Active; 'I' for Inactive)
REMARK    1  A    between atoms: C_1  and  C_2
REMARK    2  A    between atoms: C_2  and  C_3
REMARK    3  A    between atoms: C_2  and  S_4
REMARK    4  A    between atoms: S_4  and  N_7
REMARK    5  A    between atoms: C_14  and  N_15
REMARK    6  A    between atoms: C_16  and  C_18
REMARK                            x       y       z     vdW  Elec       q    Type
REMARK                         _______ _______ _______ _____ _____    ______ ____
ROOT
ATOM      1  N   UNL     1       3.625   4.086  19.705  0.00  0.00    +0.000 N 
ATOM      2  C   UNL     1       4.836   3.502  19.403  0.00  0.00    +0.000 A 
ATOM      3  N   UNL     1       5.222   2.262  19.759  0.00  0.00    +0.000 N 
ATOM      4  N   UNL     1       5.563   4.295  18.655  0.00  0.00    +0.000 NA
ATOM      5  C   UNL     1       4.772   5.380  18.396  0.00  0.00    +0.000 A 
ATOM      6  C   UNL     1       5.052   6.464  17.560  0.00  0.00    +0.000 A 
ATOM      7  C   UNL     1       4.092   7.466  17.398  0.00  0.00    +0.000 A 
ATOM      8  C   UNL     1       2.865   7.417  18.066  0.00  0.00    +0.000 A 
ATOM      9  C   UNL     1       2.578   6.330  18.924  0.00  0.00    +0.000 A 
ATOM     10  C   UNL     1       3.546   5.309  19.064  0.00  0.00    +0.000 A 
ATOM     11  H   UNL     1       4.490   1.541  19.801  0.00  0.00    +0.000 HD
ATOM     12  H   UNL     1       6.027   1.922  19.233  0.00  0.00    +0.000 HD
ENDROOT
BRANCH   8  13
ATOM     13  N   UNL     1       1.872   8.411  17.907  0.00  0.00    +0.000 N 
ATOM     14  C   UNL     1       1.246   9.137  18.911  0.00  0.00    +0.000 C 
ATOM     15  O   UNL     1       1.423   8.984  20.119  0.00  0.00    +0.000 OA
ATOM     16  H   UNL     1       1.625   8.647  16.952  0.00  0.00    +0.000 HD
BRANCH  14  17
ATOM     17  C   UNL     1       0.230  10.155  18.508  0.00  0.00    +0.000 A 
ATOM     18  C   UNL     1      -0.878   9.662  17.787  0.00  0.00    +0.000 A 
ATOM     19  C   UNL     1      -1.919  10.506  17.391  0.00  0.00    +0.000 A 
ATOM     20  C   UNL     1      -1.871  11.856  17.716  0.00  0.00    +0.000 A 
ATOM     21  C   UNL     1      -0.785  12.358  18.435  0.00  0.00    +0.000 A 
ATOM     22  C   UNL     1       0.265  11.516  18.835  0.00  0.00    +0.000 A 
ATOM     23 CL   UNL     1       1.526  12.250  19.760  0.00  0.00    +0.000 Cl
ENDBRANCH  14  17
ENDBRANCH   8  13
BRANCH   1  24
ATOM     24  S   UNL     1       2.462   3.368  20.701  0.00  0.00    +0.000 S 
ATOM     25  O   UNL     1       1.714   4.482  21.268  0.00  0.00    +0.000 OA
ATOM     26  O   UNL     1       3.206   2.482  21.576  0.00  0.00    +0.000 OA
BRANCH  24  28
ATOM     27  C   UNL     1       0.244   3.236  19.131  0.00  0.00    +0.000 C 
ATOM     28  C   UNL     1       1.326   2.344  19.752  0.00  0.00    +0.000 C 
ATOM     29  C   UNL     1       1.995   1.516  18.662  0.00  0.00    +0.000 C 
ENDBRANCH  24  28
ENDBRANCH   1  24
TORSDOF 4
ENDMDL
MODEL 5
REMARK VINA RESULT:      -7.8      1.069      1.308
REMARK  Name = 
REMARK  6 active torsions:
REMARK  status: ('A' for Active; 'I' for Inactive)
REMARK    1  A    between atoms: C_1  and  C_2
REMARK    2  A    between atoms: C_2  and  C_3
REMARK    3  A    between atoms: C_2  and  S_4
REMARK    4  A    between atoms: S_4  and  N_7
REMARK    5  A    between atoms: C_14  and  N_15
REMARK    6  A    between atoms: C_16  and  C_18
REMARK                            x       y       z     vdW  Elec       q    Type
REMARK                         _______ _______ _______ _____ _____    ______ ____
ROOT
ATOM      1  N   UNL     1       4.577   4.665  19.090  0.00  0.00    +0.000 N 
ATOM      2  C   UNL     1       4.346   3.419  19.631  0.00  0.00    +0.000 A 
ATOM      3  N   UNL     1       5.206   2.382  19.612  0.00  0.00    +0.000 N 
ATOM      4  N   UNL     1       3.186   3.379  20.237  0.00  0.00    +0.000 NA
ATOM      5  C   UNL     1       2.690   4.652  20.159  0.00  0.00    +0.000 A 
ATOM      6  C   UNL     1       1.522   5.153  20.740  0.00  0.00    +0.000 A 
ATOM      7  C   UNL     1       1.203   6.503  20.573  0.00  0.00    +0.000 A 
ATOM      8  C   UNL     1       2.015   7.359  19.825  0.00  0.00    +0.000 A 
ATOM      9  C   UNL     1       3.193   6.858  19.223  0.00  0.00    +0.000 A 
ATOM     10  C   UNL     1       3.520   5.496  19.416  0.00  0.00    +0.000 A 
ATOM     11  H   UNL     1       6.208   2.608  19.674  0.00  0.00    +0.000 HD
ATOM     12  H   UNL     1       4.967   1.646  20.276  0.00  0.00    +0.000 HD
ENDROOT
BRANCH   8  13
ATOM     13  N   UNL     1       1.720   8.731  19.654  0.00  0.00    +0.000 N 
ATOM     14  C   UNL     1       1.675   9.434  18.458  0.00  0.00    +0.000 C 
ATOM     15  O   UNL     1       1.943   8.976  17.349  0.00  0.00    +0.000 OA
ATOM     16  H   UNL     1       1.472   9.243  20.494  0.00  0.00    +0.000 HD
BRANCH  14  17
ATOM     17  C   UNL     1       1.324  10.886  18.513  0.00  0.00    +0.000 A 
ATOM     18  C   UNL     1       2.375  11.781  18.222  0.00  0.00    +0.000 A 
ATOM     19  C   UNL     1       2.165  13.163  18.197  0.00  0.00    +0.000 A 
ATOM     20  C   UNL     1       0.898  13.670  18.458  0.00  0.00    +0.000 A 
ATOM     21  C   UNL     1      -0.154  12.797  18.742  0.00  0.00    +0.000 A 
ATOM     22  C   UNL     1       0.051  11.409  18.770  0.00  0.00    +0.000 A 
ATOM     23 CL   UNL     1      -1.341  10.435  19.086  0.00  0.00    +0.000 Cl
ENDBRANCH  14  17
ENDBRANCH   8  13
BRANCH   1  24
ATOM     24  S   UNL     1       5.953   5.055  18.187  0.00  0.00    +0.000 S 
ATOM     25  O   UNL     1       7.075   4.606  18.999  0.00  0.00    +0.000 OA
ATOM     26  O   UNL     1       5.813   6.465  17.871  0.00  0.00    +0.000 OA
BRANCH  24  28
ATOM     27  C   UNL     1       4.582   4.181  16.006  0.00  0.00    +0.000 C 
ATOM     28  C   UNL     1       5.986   4.164  16.624  0.00  0.00    +0.000 C 
ATOM     29  C   UNL     1       6.994   4.704  15.619  0.00  0.00    +0.000 C 
ENDBRANCH  24  28
ENDBRANCH   1  24
TORSDOF 4
ENDMDL
MODEL 6
REMARK VINA RESULT:      -7.7      2.375      3.051
REMARK  Name = 
REMARK  6 active torsions:
REMARK  status: ('A' for Active; 'I' for Inactive)
REMARK    1  A    between atoms: C_1  and  C_2
REMARK    2  A    between atoms: C_2  and  C_3
REMARK    3  A    between atoms: C_2  and  S_4
REMARK    4  A    between atoms: S_4  and  N_7
REMARK    5  A    between atoms: C_14  and  N_15
REMARK    6  A    between atoms: C_16  and  C_18
REMARK                            x       y       z     vdW  Elec       q    Type
REMARK                         _______ _______ _______ _____ _____    ______ ____
ROOT
ATOM      1  N   UNL     1       5.153   5.082  16.899  0.00  0.00    +0.000 N 
ATOM      2  C   UNL     1       5.243   3.763  16.509  0.00  0.00    +0.000 A 
ATOM      3  N   UNL     1       6.258   3.217  15.813  0.00  0.00    +0.000 N 
ATOM      4  N   UNL     1       4.226   3.072  16.961  0.00  0.00    +0.000 NA
ATOM      5  C   UNL     1       3.506   3.943  17.731  0.00  0.00    +0.000 A 
ATOM      6  C   UNL     1       2.382   3.666  18.514  0.00  0.00    +0.000 A 
ATOM      7  C   UNL     1       1.803   4.694  19.264  0.00  0.00    +0.000 A 
ATOM      8  C   UNL     1       2.313   5.995  19.236  0.00  0.00    +0.000 A 
ATOM      9  C   UNL     1       3.443   6.287  18.437  0.00  0.00    +0.000 A 
ATOM     10  C   UNL     1       4.035   5.237  17.699  0.00  0.00    +0.000 A 
ATOM     11  H   UNL     1       7.199   3.590  15.992  0.00  0.00    +0.000 HD
ATOM     12  H   UNL     1       6.268   2.197  15.847  0.00  0.00    +0.000 HD
ENDROOT
BRANCH   8  13
ATOM     13  N   UNL     1       1.754   7.047  19.997  0.00  0.00    +0.000 N 
ATOM     14  C   UNL     1       1.439   8.324  19.553  0.00  0.00    +0.000 C 
ATOM     15  O   UNL     1       1.653   8.762  18.424  0.00  0.00    +0.000 OA
ATOM     16  H   UNL     1       1.518   6.827  20.958  0.00  0.00    +0.000 HD
BRANCH  14  17
ATOM     17  C   UNL     1       0.838   9.277  20.535  0.00  0.00    +0.000 A 
ATOM     18  C   UNL     1       0.355   8.702  21.730  0.00  0.00    +0.000 A 
ATOM     19  C   UNL     1      -0.189   9.492  22.746  0.00  0.00    +0.000 A 
ATOM     20  C   UNL     1      -0.253  10.870  22.586  0.00  0.00    +0.000 A 
ATOM     21  C   UNL     1       0.226  11.456  21.413  0.00  0.00    +0.000 A 
ATOM     22  C   UNL     1       0.773  10.668  20.387  0.00  0.00    +0.000 A 
ATOM     23 CL   UNL     1       1.375  11.516  19.007  0.00  0.00    +0.000 Cl
ENDBRANCH  14  17
ENDBRANCH   8  13
BRANCH   1  24
ATOM     24  S   UNL     1       6.266   6.272  16.444  0.00  0.00    +0.000 S 
ATOM     25  O   UNL     1       5.492   7.235  15.674  0.00  0.00    +0.000 OA
ATOM     26  O   UNL     1       7.353   5.551  15.807  0.00  0.00    +0.000 OA
BRANCH  24  28
ATOM     27  C   UNL     1       7.726   6.093  18.732  0.00  0.00    +0.000 C 
ATOM     28  C   UNL     1       6.956   7.109  17.879  0.00  0.00    +0.000 C 
ATOM     29  C   UNL     1       7.863   8.284  17.540  0.00  0.00    +0.000 C 
ENDBRANCH  24  28
ENDBRANCH   1  24
TORSDOF 4
ENDMDL
MODEL 7
REMARK VINA RESULT:      -7.7      0.944      1.236
REMARK  Name = 
REMARK  6 active torsions:
REMARK  status: ('A' for Active; 'I' for Inactive)
REMARK    1  A    between atoms: C_1  and  C_2
REMARK    2  A    between atoms: C_2  and  C_3
REMARK    3  A    between atoms: C_2  and  S_4
REMARK    4  A    between atoms: S_4  and  N_7
REMARK    5  A    between atoms: C_14  and  N_15
REMARK    6  A    between atoms: C_16  and  C_18
REMARK                            x       y       z     vdW  Elec       q    Type
REMARK                         _______ _______ _______ _____ _____    ______ ____
ROOT
ATOM      1  N   UNL     1       4.316   4.879  18.524  0.00  0.00    +0.000 N 
ATOM      2  C   UNL     1       4.261   3.655  19.155  0.00  0.00    +0.000 A 
ATOM      3  N   UNL     1       5.112   2.630  18.957  0.00  0.00    +0.000 N 
ATOM      4  N   UNL     1       3.295   3.627  20.039  0.00  0.00    +0.000 NA
ATOM      5  C   UNL     1       2.767   4.888  20.041  0.00  0.00    +0.000 A 
ATOM      6  C   UNL     1       1.774   5.399  20.883  0.00  0.00    +0.000 A 
ATOM      7  C   UNL     1       1.391   6.736  20.751  0.00  0.00    +0.000 A 
ATOM      8  C   UNL     1       1.964   7.569  19.786  0.00  0.00    +0.000 A 
ATOM      9  C   UNL     1       2.960   7.057  18.922  0.00  0.00    +0.000 A 
ATOM     10  C   UNL     1       3.358   5.710  19.078  0.00  0.00    +0.000 A 
ATOM     11  H   UNL     1       6.091   2.870  18.750  0.00  0.00    +0.000 HD
ATOM     12  H   UNL     1       5.068   1.920  19.688  0.00  0.00    +0.000 HD
ENDROOT
BRANCH   8  13
ATOM     13  N   UNL     1       1.603   8.929  19.643  0.00  0.00    +0.000 N 
ATOM     14  C   UNL     1       1.488   9.644  18.458  0.00  0.00    +0.000 C 
ATOM     15  O   UNL     1       1.742   9.211  17.336  0.00  0.00    +0.000 OA
ATOM     16  H   UNL     1       1.359   9.419  20.497  0.00  0.00    +0.000 HD
BRANCH  14  17
ATOM     17  C   UNL     1       1.075  11.077  18.544  0.00  0.00    +0.000 A 
ATOM     18  C   UNL     1       2.119  12.022  18.453  0.00  0.00    +0.000 A 
ATOM     19  C   UNL     1       1.859  13.395  18.476  0.00  0.00    +0.000 A 
ATOM     20  C   UNL     1       0.549  13.844  18.584  0.00  0.00    +0.000 A 
ATOM     21  C   UNL     1      -0.496  12.923  18.668  0.00  0.00    +0.000 A 
ATOM     22  C   UNL     1      -0.241  11.542  18.648  0.00  0.00    +0.000 A 
ATOM     23 CL   UNL     1      -1.623  10.506  18.711  0.00  0.00    +0.000 Cl
ENDBRANCH  14  17
ENDBRANCH   8  13
BRANCH   1  24
ATOM     24  S   UNL     1       5.405   5.247  17.284  0.00  0.00    +0.000 S 
ATOM     25  O   UNL     1       4.829   6.399  16.607  0.00  0.00    +0.000 OA
ATOM     26  O   UNL     1       5.587   4.003  16.557  0.00  0.00    +0.000 OA
BRANCH  24  28
ATOM     27  C   UNL     1       7.341   7.145  17.492  0.00  0.00    +0.000 C 
ATOM     28  C   UNL     1       7.014   5.715  17.940  0.00  0.00    +0.000 C 
ATOM     29  C   UNL     1       7.124   5.616  19.455  0.00  0.00    +0.000 C 
ENDBRANCH  24  28
ENDBRANCH   1  24
TORSDOF 4
ENDMDL
MODEL 8
REMARK VINA RESULT:      -7.6      2.117      2.499
REMARK  Name = 
REMARK  6 active torsions:
REMARK  status: ('A' for Active; 'I' for Inactive)
REMARK    1  A    between atoms: C_1  and  C_2
REMARK    2  A    between atoms: C_2  and  C_3
REMARK    3  A    between atoms: C_2  and  S_4
REMARK    4  A    between atoms: S_4  and  N_7
REMARK    5  A    between atoms: C_14  and  N_15
REMARK    6  A    between atoms: C_16  and  C_18
REMARK                            x       y       z     vdW  Elec       q    Type
REMARK                         _______ _______ _______ _____ _____    ______ ____
ROOT
ATOM      1  N   UNL     1       4.895   5.159  16.857  0.00  0.00    +0.000 N 
ATOM      2  C   UNL     1       4.891   3.788  16.713  0.00  0.00    +0.000 A 
ATOM      3  N   UNL     1       5.816   3.065  16.054  0.00  0.00    +0.000 N 
ATOM      4  N   UNL     1       3.887   3.253  17.362  0.00  0.00    +0.000 NA
ATOM      5  C   UNL     1       3.277   4.291  18.010  0.00  0.00    +0.000 A 
ATOM      6  C   UNL     1       2.213   4.228  18.916  0.00  0.00    +0.000 A 
ATOM      7  C   UNL     1       1.749   5.407  19.505  0.00  0.00    +0.000 A 
ATOM      8  C   UNL     1       2.312   6.649  19.196  0.00  0.00    +0.000 A 
ATOM      9  C   UNL     1       3.380   6.723  18.272  0.00  0.00    +0.000 A 
ATOM     10  C   UNL     1       3.859   5.523  17.699  0.00  0.00    +0.000 A 
ATOM     11  H   UNL     1       6.785   3.407  16.087  0.00  0.00    +0.000 HD
ATOM     12  H   UNL     1       5.783   2.069  16.275  0.00  0.00    +0.000 HD
ENDROOT
BRANCH   8  13
ATOM     13  N   UNL     1       1.869   7.853  19.790  0.00  0.00    +0.000 N 
ATOM     14  C   UNL     1       1.318   8.951  19.144  0.00  0.00    +0.000 C 
ATOM     15  O   UNL     1       1.178   9.068  17.927  0.00  0.00    +0.000 OA
ATOM     16  H   UNL     1       1.921   7.898  20.802  0.00  0.00    +0.000 HD
BRANCH  14  17
ATOM     17  C   UNL     1       0.904  10.119  19.979  0.00  0.00    +0.000 A 
ATOM     18  C   UNL     1       1.278  11.387  19.487  0.00  0.00    +0.000 A 
ATOM     19  C   UNL     1       0.913  12.560  20.153  0.00  0.00    +0.000 A 
ATOM     20  C   UNL     1       0.161  12.482  21.319  0.00  0.00    +0.000 A 
ATOM     21  C   UNL     1      -0.223  11.236  21.816  0.00  0.00    +0.000 A 
ATOM     22  C   UNL     1       0.142  10.054  21.152  0.00  0.00    +0.000 A 
ATOM     23 CL   UNL     1      -0.436   8.578  21.841  0.00  0.00    +0.000 Cl
ENDBRANCH  14  17
ENDBRANCH   8  13
BRANCH   1  24
ATOM     24  S   UNL     1       6.016   6.177  16.105  0.00  0.00    +0.000 S 
ATOM     25  O   UNL     1       5.302   7.428  15.889  0.00  0.00    +0.000 OA
ATOM     26  O   UNL     1       6.507   5.425  14.965  0.00  0.00    +0.000 OA
BRANCH  24  28
ATOM     27  C   UNL     1       7.475   8.000  17.499  0.00  0.00    +0.000 C 
ATOM     28  C   UNL     1       7.428   6.502  17.172  0.00  0.00    +0.000 C 
ATOM     29  C   UNL     1       7.433   5.696  18.464  0.00  0.00    +0.000 C 
ENDBRANCH  24  28
ENDBRANCH   1  24
TORSDOF 4
ENDMDL
MODEL 9
REMARK VINA RESULT:      -7.5      1.389      1.424
REMARK  Name = 
REMARK  6 active torsions:
REMARK  status: ('A' for Active; 'I' for Inactive)
REMARK    1  A    between atoms: C_1  and  C_2
REMARK    2  A    between atoms: C_2  and  C_3
REMARK    3  A    between atoms: C_2  and  S_4
REMARK    4  A    between atoms: S_4  and  N_7
REMARK    5  A    between atoms: C_14  and  N_15
REMARK    6  A    between atoms: C_16  and  C_18
REMARK                            x       y       z     vdW  Elec       q    Type
REMARK                         _______ _______ _______ _____ _____    ______ ____
ROOT
ATOM      1  N   UNL     1       4.388   4.267  18.979  0.00  0.00    +0.000 N 
ATOM      2  C   UNL     1       4.165   3.025  19.533  0.00  0.00    +0.000 A 
ATOM      3  N   UNL     1       4.977   1.957  19.419  0.00  0.00    +0.000 N 
ATOM      4  N   UNL     1       3.072   3.024  20.254  0.00  0.00    +0.000 NA
ATOM      5  C   UNL     1       2.622   4.315  20.236  0.00  0.00    +0.000 A 
ATOM      6  C   UNL     1       1.540   4.855  20.938  0.00  0.00    +0.000 A 
ATOM      7  C   UNL     1       1.259   6.218  20.813  0.00  0.00    +0.000 A 
ATOM      8  C   UNL     1       2.023   7.050  19.991  0.00  0.00    +0.000 A 
ATOM      9  C   UNL     1       3.112   6.510  19.268  0.00  0.00    +0.000 A 
ATOM     10  C   UNL     1       3.404   5.135  19.417  0.00  0.00    +0.000 A 
ATOM     11  H   UNL     1       5.988   2.143  19.378  0.00  0.00    +0.000 HD
ATOM     12  H   UNL     1       4.778   1.223  20.099  0.00  0.00    +0.000 HD
ENDROOT
BRANCH   8  13
ATOM     13  N   UNL     1       1.767   8.434  19.860  0.00  0.00    +0.000 N 
ATOM     14  C   UNL     1       0.794   9.171  20.522  0.00  0.00    +0.000 C 
ATOM     15  O   UNL     1      -0.046   8.713  21.295  0.00  0.00    +0.000 OA
ATOM     16  H   UNL     1       2.392   8.949  19.250  0.00  0.00    +0.000 HD
BRANCH  14  17
ATOM     17  C   UNL     1       0.713  10.636  20.239  0.00  0.00    +0.000 A 
ATOM     18  C   UNL     1       1.222  11.048  18.989  0.00  0.00    +0.000 A 
ATOM     19  C   UNL     1       1.164  12.385  18.587  0.00  0.00    +0.000 A 
ATOM     20  C   UNL     1       0.590  13.330  19.428  0.00  0.00    +0.000 A 
ATOM     21  C   UNL     1       0.076  12.939  20.665  0.00  0.00    +0.000 A 
ATOM     22  C   UNL     1       0.132  11.597  21.075  0.00  0.00    +0.000 A 
ATOM     23 CL   UNL     1      -0.582  11.233  22.607  0.00  0.00    +0.000 Cl
ENDBRANCH  14  17
ENDBRANCH   8  13
BRANCH   1  24
ATOM     24  S   UNL     1       5.678   4.613  17.941  0.00  0.00    +0.000 S 
ATOM     25  O   UNL     1       5.438   3.799  16.758  0.00  0.00    +0.000 OA
ATOM     26  O   UNL     1       6.874   4.392  18.735  0.00  0.00    +0.000 OA
BRANCH  24  28
ATOM     27  C   UNL     1       7.114   6.887  17.534  0.00  0.00    +0.000 C 
ATOM     28  C   UNL     1       5.681   6.345  17.452  0.00  0.00    +0.000 C 
ATOM     29  C   UNL     1       5.116   6.602  16.062  0.00  0.00    +0.000 C 
ENDBRANCH  24  28
ENDBRANCH   1  24
TORSDOF 4
ENDMDL
