MODEL 1
REMARK VINA RESULT:      -9.2      0.000      0.000
REMARK  Name = 
REMARK  7 active torsions:
REMARK  status: ('A' for Active; 'I' for Inactive)
REMARK    1  A    between atoms: C_1  and  O_2
REMARK    2  A    between atoms: O_2  and  C_3
REMARK    3  A    between atoms: C_6  and  C_7
REMARK    4  A    between atoms: N_8  and  N_9
REMARK    5  A    between atoms: N_9  and  C_10
REMARK    6  A    between atoms: C_20  and  O_21
REMARK    7  A    between atoms: O_21  and  C_22
REMARK                            x       y       z     vdW  Elec       q    Type
REMARK                         _______ _______ _______ _____ _____    ______ ____
ROOT
ATOM      1  C   UNL     1       8.742   9.278  18.521  0.00  0.00    +0.000 C 
ATOM      2  N   UNL     1       7.799   8.936  17.522  0.00  0.00    +0.000 NA
ENDROOT
BRANCH   1   6
ATOM      3  C   UNL     1      11.583  13.149  19.414  0.00  0.00    +0.000 A 
ATOM      4  C   UNL     1      11.513  12.660  18.115  0.00  0.00    +0.000 A 
ATOM      5  C   UNL     1      10.634  11.506  17.765  0.00  0.00    +0.000 A 
ATOM      6  C   UNL     1       9.825  10.736  18.729  0.00  0.00    +0.000 A 
ATOM      7  C   UNL     1       9.910  11.354  19.987  0.00  0.00    +0.000 A 
ATOM      8  C   UNL     1      10.758  12.502  20.321  0.00  0.00    +0.000 A 
BRANCH   3  10
ATOM      9  C   UNL     1      11.629  15.474  20.042  0.00  0.00    +0.000 C 
ATOM     10  O   UNL     1      12.333  14.271  19.685  0.00  0.00    +0.000 OA
ENDBRANCH   3  10
BRANCH   7  11
ATOM     11  O   UNL     1       9.049  10.810  20.890  0.00  0.00    +0.000 OA
ATOM     12  C   UNL     1       8.608  11.649  21.928  0.00  0.00    +0.000 C 
ENDBRANCH   7  11
ENDBRANCH   1   6
BRANCH   2  13
ATOM     13  N   UNL     1       7.109   7.375  17.094  0.00  0.00    +0.000 N 
ATOM     14  H   UNL     1       7.855   6.730  17.495  0.00  0.00    +0.000 HD
BRANCH  13  15
ATOM     15  C   UNL     1       5.902   6.360  17.651  0.00  0.00    +0.000 A 
ATOM     16  N   UNL     1       6.904   5.834  18.332  0.00  0.00    +0.000 NA
ATOM     17  N   UNL     1       6.803   4.659  18.627  0.00  0.00    +0.000 NA
ATOM     18  C   UNL     1       5.543   4.493  19.170  0.00  0.00    +0.000 A 
ATOM     19  C   UNL     1       4.120   4.849  18.532  0.00  0.00    +0.000 A 
ATOM     20  C   UNL     1       2.728   5.212  17.892  0.00  0.00    +0.000 A 
ATOM     21  C   UNL     1       1.845   4.147  17.633  0.00  0.00    +0.000 A 
ATOM     22  C   UNL     1       2.562   3.007  17.551  0.00  0.00    +0.000 A 
ATOM     23  C   UNL     1       4.027   3.305  17.395  0.00  0.00    +0.000 A 
ATOM     24  C   UNL     1       4.776   4.897  17.485  0.00  0.00    +0.000 A 
ENDBRANCH  13  15
ENDBRANCH   2  13
TORSDOF 5
ENDMDL
MODEL 2
REMARK VINA RESULT:      -8.8      1.420      1.683
REMARK  Name = 
REMARK  7 active torsions:
REMARK  status: ('A' for Active; 'I' for Inactive)
REMARK    1  A    between atoms: C_1  and  O_2
REMARK    2  A    between atoms: O_2  and  C_3
REMARK    3  A    between atoms: C_6  and  C_7
REMARK    4  A    between atoms: N_8  and  N_9
REMARK    5  A    between atoms: N_9  and  C_10
REMARK    6  A    between atoms: C_20  and  O_21
REMARK    7  A    between atoms: O_21  and  C_22
REMARK                            x       y       z     vdW  Elec       q    Type
REMARK                         _______ _______ _______ _____ _____    ______ ____
ROOT
ATOM      1  C   UNL     1       8.818   9.629  18.610  0.00  0.00    +0.000 C 
ATOM      2  N   UNL     1       7.994   9.137  17.569  0.00  0.00    +0.000 NA
ENDROOT
BRANCH   1   6
ATOM      3  C   UNL     1      11.268  13.846  18.852  0.00  0.00    +0.000 A 
ATOM      4  C   UNL     1      11.835  12.713  19.423  0.00  0.00    +0.000 A 
ATOM      5  C   UNL     1      11.160  11.385  19.349  0.00  0.00    +0.000 A 
ATOM      6  C   UNL     1       9.834  11.142  18.751  0.00  0.00    +0.000 A 
ATOM      7  C   UNL     1       9.386  12.327  18.146  0.00  0.00    +0.000 A 
ATOM      8  C   UNL     1      10.065  13.626  18.201  0.00  0.00    +0.000 A 
BRANCH   3  10
ATOM      9  C   UNL     1      11.949  15.821  17.653  0.00  0.00    +0.000 C 
ATOM     10  O   UNL     1      11.960  15.037  18.859  0.00  0.00    +0.000 OA
ENDBRANCH   3  10
BRANCH   7  11
ATOM     11  O   UNL     1       8.252  12.140  17.416  0.00  0.00    +0.000 OA
ATOM     12  C   UNL     1       7.343  13.212  17.375  0.00  0.00    +0.000 C 
ENDBRANCH   7  11
ENDBRANCH   1   6
BRANCH   2  13
ATOM     13  N   UNL     1       7.394   7.512  17.262  0.00  0.00    +0.000 N 
ATOM     14  H   UNL     1       8.075   6.951  17.858  0.00  0.00    +0.000 HD
BRANCH  13  15
ATOM     15  C   UNL     1       6.125   6.544  17.763  0.00  0.00    +0.000 A 
ATOM     16  N   UNL     1       7.107   5.833  18.285  0.00  0.00    +0.000 NA
ATOM     17  N   UNL     1       6.903   4.643  18.421  0.00  0.00    +0.000 NA
ATOM     18  C   UNL     1       5.668   4.518  19.030  0.00  0.00    +0.000 A 
ATOM     19  C   UNL     1       4.253   5.096  18.559  0.00  0.00    +0.000 A 
ATOM     20  C   UNL     1       2.870   5.678  18.084  0.00  0.00    +0.000 A 
ATOM     21  C   UNL     1       1.867   4.751  17.748  0.00  0.00    +0.000 A 
ATOM     22  C   UNL     1       2.454   3.573  17.453  0.00  0.00    +0.000 A 
ATOM     23  C   UNL     1       3.930   3.751  17.229  0.00  0.00    +0.000 A 
ATOM     24  C   UNL     1       4.844   5.234  17.481  0.00  0.00    +0.000 A 
ENDBRANCH  13  15
ENDBRANCH   2  13
TORSDOF 5
ENDMDL
MODEL 3
REMARK VINA RESULT:      -8.8      1.787      2.666
REMARK  Name = 
REMARK  7 active torsions:
REMARK  status: ('A' for Active; 'I' for Inactive)
REMARK    1  A    between atoms: C_1  and  O_2
REMARK    2  A    between atoms: O_2  and  C_3
REMARK    3  A    between atoms: C_6  and  C_7
REMARK    4  A    between atoms: N_8  and  N_9
REMARK    5  A    between atoms: N_9  and  C_10
REMARK    6  A    between atoms: C_20  and  O_21
REMARK    7  A    between atoms: O_21  and  C_22
REMARK                            x       y       z     vdW  Elec       q    Type
REMARK                         _______ _______ _______ _____ _____    ______ ____
ROOT
ATOM      1  C   UNL     1       9.216  10.456  18.170  0.00  0.00    +0.000 C 
ATOM      2  N   UNL     1       8.511   9.260  18.452  0.00  0.00    +0.000 NA
ENDROOT
BRANCH   1   6
ATOM      3  C   UNL     1      10.469  14.449  20.687  0.00  0.00    +0.000 A 
ATOM      4  C   UNL     1      10.006  13.340  21.385  0.00  0.00    +0.000 A 
ATOM      5  C   UNL     1       9.645  12.074  20.683  0.00  0.00    +0.000 A 
ATOM      6  C   UNL     1       9.667  11.883  19.220  0.00  0.00    +0.000 A 
ATOM      7  C   UNL     1      10.213  13.029  18.622  0.00  0.00    +0.000 A 
ATOM      8  C   UNL     1      10.589  14.263  19.320  0.00  0.00    +0.000 A 
BRANCH   3  10
ATOM      9  C   UNL     1       9.961  16.672  21.460  0.00  0.00    +0.000 C 
ATOM     10  O   UNL     1      10.880  15.569  21.375  0.00  0.00    +0.000 OA
ENDBRANCH   3  10
BRANCH   7  11
ATOM     11  O   UNL     1      10.435  12.862  17.289  0.00  0.00    +0.000 OA
ATOM     12  C   UNL     1      11.488  13.603  16.725  0.00  0.00    +0.000 C 
ENDBRANCH   7  11
ENDBRANCH   1   6
BRANCH   2  13
ATOM     13  N   UNL     1       7.707   8.130  17.370  0.00  0.00    +0.000 N 
ATOM     14  H   UNL     1       8.554   7.723  16.870  0.00  0.00    +0.000 HD
BRANCH  13  15
ATOM     15  C   UNL     1       7.005   6.614  17.460  0.00  0.00    +0.000 A 
ATOM     16  N   UNL     1       7.658   6.440  16.326  0.00  0.00    +0.000 NA
ATOM     17  N   UNL     1       7.186   5.636  15.545  0.00  0.00    +0.000 NA
ATOM     18  C   UNL     1       6.909   4.494  16.272  0.00  0.00    +0.000 A 
ATOM     19  C   UNL     1       6.004   4.330  17.580  0.00  0.00    +0.000 A 
ATOM     20  C   UNL     1       5.116   4.188  18.873  0.00  0.00    +0.000 A 
ATOM     21  C   UNL     1       3.956   3.398  18.769  0.00  0.00    +0.000 A 
ATOM     22  C   UNL     1       3.607   3.320  17.468  0.00  0.00    +0.000 A 
ATOM     23  C   UNL     1       4.322   4.364  16.657  0.00  0.00    +0.000 A 
ATOM     24  C   UNL     1       5.586   5.443  17.240  0.00  0.00    +0.000 A 
ENDBRANCH  13  15
ENDBRANCH   2  13
TORSDOF 5
ENDMDL
MODEL 4
REMARK VINA RESULT:      -8.5      1.346      1.753
REMARK  Name = 
REMARK  7 active torsions:
REMARK  status: ('A' for Active; 'I' for Inactive)
REMARK    1  A    between atoms: C_1  and  O_2
REMARK    2  A    between atoms: O_2  and  C_3
REMARK    3  A    between atoms: C_6  and  C_7
REMARK    4  A    between atoms: N_8  and  N_9
REMARK    5  A    between atoms: N_9  and  C_10
REMARK    6  A    between atoms: C_20  and  O_21
REMARK    7  A    between atoms: O_21  and  C_22
REMARK                            x       y       z     vdW  Elec       q    Type
REMARK                         _______ _______ _______ _____ _____    ______ ____
ROOT
ATOM      1  C   UNL     1       8.957   9.744  18.548  0.00  0.00    +0.000 C 
ATOM      2  N   UNL     1       7.900   9.167  17.803  0.00  0.00    +0.000 NA
ENDROOT
BRANCH   1   6
ATOM      3  C   UNL     1      10.418  14.317  19.442  0.00  0.00    +0.000 A 
ATOM      4  C   UNL     1      10.312  13.899  18.121  0.00  0.00    +0.000 A 
ATOM      5  C   UNL     1       9.832  12.529  17.776  0.00  0.00    +0.000 A 
ATOM      6  C   UNL     1       9.498  11.478  18.756  0.00  0.00    +0.000 A 
ATOM      7  C   UNL     1       9.570  12.024  20.047  0.00  0.00    +0.000 A 
ATOM      8  C   UNL     1      10.020  13.379  20.380  0.00  0.00    +0.000 A 
BRANCH   3  10
ATOM      9  C   UNL     1      11.246  16.429  18.632  0.00  0.00    +0.000 C 
ATOM     10  O   UNL     1      10.776  15.617  19.722  0.00  0.00    +0.000 OA
ENDBRANCH   3  10
BRANCH   7  11
ATOM     11  O   UNL     1       9.102  11.169  20.998  0.00  0.00    +0.000 OA
ATOM     12  C   UNL     1       8.555  11.749  22.155  0.00  0.00    +0.000 C 
ENDBRANCH   7  11
ENDBRANCH   1   6
BRANCH   2  13
ATOM     13  N   UNL     1       7.663   7.512  17.256  0.00  0.00    +0.000 N 
ATOM     14  H   UNL     1       8.291   7.001  17.947  0.00  0.00    +0.000 HD
BRANCH  13  15
ATOM     15  C   UNL     1       6.501   6.316  17.395  0.00  0.00    +0.000 A 
ATOM     16  N   UNL     1       6.426   6.486  16.088  0.00  0.00    +0.000 NA
ATOM     17  N   UNL     1       5.359   6.225  15.567  0.00  0.00    +0.000 NA
ATOM     18  C   UNL     1       4.977   4.986  16.044  0.00  0.00    +0.000 A 
ATOM     19  C   UNL     1       4.788   4.507  17.558  0.00  0.00    +0.000 A 
ATOM     20  C   UNL     1       4.613   4.051  19.055  0.00  0.00    +0.000 A 
ATOM     21  C   UNL     1       3.319   3.681  19.465  0.00  0.00    +0.000 A 
ATOM     22  C   UNL     1       2.427   4.245  18.625  0.00  0.00    +0.000 A 
ATOM     23  C   UNL     1       3.071   5.329  17.806  0.00  0.00    +0.000 A 
ATOM     24  C   UNL     1       4.787   5.724  17.778  0.00  0.00    +0.000 A 
ENDBRANCH  13  15
ENDBRANCH   2  13
TORSDOF 5
ENDMDL
MODEL 5
REMARK VINA RESULT:      -8.5      1.908      2.490
REMARK  Name = 
REMARK  7 active torsions:
REMARK  status: ('A' for Active; 'I' for Inactive)
REMARK    1  A    between atoms: C_1  and  O_2
REMARK    2  A    between atoms: O_2  and  C_3
REMARK    3  A    between atoms: C_6  and  C_7
REMARK    4  A    between atoms: N_8  and  N_9
REMARK    5  A    between atoms: N_9  and  C_10
REMARK    6  A    between atoms: C_20  and  O_21
REMARK    7  A    between atoms: O_21  and  C_22
REMARK                            x       y       z     vdW  Elec       q    Type
REMARK                         _______ _______ _______ _____ _____    ______ ____
ROOT
ATOM      1  C   UNL     1       8.994  10.446  18.250  0.00  0.00    +0.000 C 
ATOM      2  N   UNL     1       8.009   9.632  17.640  0.00  0.00    +0.000 NA
ENDROOT
BRANCH   1   6
ATOM      3  C   UNL     1      10.174  15.178  18.001  0.00  0.00    +0.000 A 
ATOM      4  C   UNL     1       8.829  14.829  18.034  0.00  0.00    +0.000 A 
ATOM      5  C   UNL     1       8.400  13.405  18.152  0.00  0.00    +0.000 A 
ATOM      6  C   UNL     1       9.311  12.245  18.172  0.00  0.00    +0.000 A 
ATOM      7  C   UNL     1      10.635  12.710  18.206  0.00  0.00    +0.000 A 
ATOM      8  C   UNL     1      11.052  14.113  18.114  0.00  0.00    +0.000 A 
BRANCH   3  10
ATOM      9  C   UNL     1      11.806  16.844  17.397  0.00  0.00    +0.000 C 
ATOM     10  O   UNL     1      10.536  16.507  17.984  0.00  0.00    +0.000 OA
ENDBRANCH   3  10
BRANCH   7  11
ATOM     11  O   UNL     1      11.532  11.706  18.407  0.00  0.00    +0.000 OA
ATOM     12  C   UNL     1      12.319  11.785  19.569  0.00  0.00    +0.000 C 
ENDBRANCH   7  11
ENDBRANCH   1   6
BRANCH   2  13
ATOM     13  N   UNL     1       7.979   7.895  17.362  0.00  0.00    +0.000 N 
ATOM     14  H   UNL     1       8.600   7.572  18.164  0.00  0.00    +0.000 HD
BRANCH  13  15
ATOM     15  C   UNL     1       6.934   6.616  17.626  0.00  0.00    +0.000 A 
ATOM     16  N   UNL     1       7.362   6.252  16.432  0.00  0.00    +0.000 NA
ATOM     17  N   UNL     1       6.600   5.580  15.764  0.00  0.00    +0.000 NA
ATOM     18  C   UNL     1       6.142   4.566  16.584  0.00  0.00    +0.000 A 
ATOM     19  C   UNL     1       5.410   4.674  18.002  0.00  0.00    +0.000 A 
ATOM     20  C   UNL     1       4.697   4.799  19.400  0.00  0.00    +0.000 A 
ATOM     21  C   UNL     1       3.372   4.335  19.486  0.00  0.00    +0.000 A 
ATOM     22  C   UNL     1       2.842   4.319  18.246  0.00  0.00    +0.000 A 
ATOM     23  C   UNL     1       3.684   5.122  17.293  0.00  0.00    +0.000 A 
ATOM     24  C   UNL     1       5.246   5.849  17.652  0.00  0.00    +0.000 A 
ENDBRANCH  13  15
ENDBRANCH   2  13
TORSDOF 5
ENDMDL
MODEL 6
REMARK VINA RESULT:      -8.3      2.063      2.657
REMARK  Name = 
REMARK  7 active torsions:
REMARK  status: ('A' for Active; 'I' for Inactive)
REMARK    1  A    between atoms: C_1  and  O_2
REMARK    2  A    between atoms: O_2  and  C_3
REMARK    3  A    between atoms: C_6  and  C_7
REMARK    4  A    between atoms: N_8  and  N_9
REMARK    5  A    between atoms: N_9  and  C_10
REMARK    6  A    between atoms: C_20  and  O_21
REMARK    7  A    between atoms: O_21  and  C_22
REMARK                            x       y       z     vdW  Elec       q    Type
REMARK                         _______ _______ _______ _____ _____    ______ ____
ROOT
ATOM      1  C   UNL     1       9.088  10.733  18.159  0.00  0.00    +0.000 C 
ATOM      2  N   UNL     1       8.495   9.482  18.457  0.00  0.00    +0.000 NA
ENDROOT
BRANCH   1   6
ATOM      3  C   UNL     1       9.745  14.825  20.742  0.00  0.00    +0.000 A 
ATOM      4  C   UNL     1      10.398  13.668  21.150  0.00  0.00    +0.000 A 
ATOM      5  C   UNL     1      10.274  12.394  20.384  0.00  0.00    +0.000 A 
ATOM      6  C   UNL     1       9.422  12.202  19.195  0.00  0.00    +0.000 A 
ATOM      7  C   UNL     1       8.869  13.439  18.829  0.00  0.00    +0.000 A 
ATOM      8  C   UNL     1       9.013  14.695  19.572  0.00  0.00    +0.000 A 
BRANCH   3  10
ATOM      9  C   UNL     1      11.298  16.517  21.468  0.00  0.00    +0.000 C 
ATOM     10  O   UNL     1       9.954  16.006  21.419  0.00  0.00    +0.000 OA
ENDBRANCH   3  10
BRANCH   7  11
ATOM     11  O   UNL     1       8.215  13.382  17.636  0.00  0.00    +0.000 OA
ATOM     12  C   UNL     1       6.964  14.019  17.570  0.00  0.00    +0.000 C 
ENDBRANCH   7  11
ENDBRANCH   1   6
BRANCH   2  13
ATOM     13  N   UNL     1       7.783   8.276  17.391  0.00  0.00    +0.000 N 
ATOM     14  H   UNL     1       8.668   7.853  16.979  0.00  0.00    +0.000 HD
BRANCH  13  15
ATOM     15  C   UNL     1       7.092   6.759  17.524  0.00  0.00    +0.000 A 
ATOM     16  N   UNL     1       7.717   6.569  16.377  0.00  0.00    +0.000 NA
ATOM     17  N   UNL     1       7.231   5.750  15.622  0.00  0.00    +0.000 NA
ATOM     18  C   UNL     1       6.978   4.618  16.374  0.00  0.00    +0.000 A 
ATOM     19  C   UNL     1       6.107   4.472  17.707  0.00  0.00    +0.000 A 
ATOM     20  C   UNL     1       5.251   4.347  19.023  0.00  0.00    +0.000 A 
ATOM     21  C   UNL     1       4.094   3.549  18.961  0.00  0.00    +0.000 A 
ATOM     22  C   UNL     1       3.713   3.447  17.671  0.00  0.00    +0.000 A 
ATOM     23  C   UNL     1       4.402   4.482  16.825  0.00  0.00    +0.000 A 
ATOM     24  C   UNL     1       5.674   5.577  17.359  0.00  0.00    +0.000 A 
ENDBRANCH  13  15
ENDBRANCH   2  13
TORSDOF 5
ENDMDL
MODEL 7
REMARK VINA RESULT:      -8.3      1.589      1.973
REMARK  Name = 
REMARK  7 active torsions:
REMARK  status: ('A' for Active; 'I' for Inactive)
REMARK    1  A    between atoms: C_1  and  O_2
REMARK    2  A    between atoms: O_2  and  C_3
REMARK    3  A    between atoms: C_6  and  C_7
REMARK    4  A    between atoms: N_8  and  N_9
REMARK    5  A    between atoms: N_9  and  C_10
REMARK    6  A    between atoms: C_20  and  O_21
REMARK    7  A    between atoms: O_21  and  C_22
REMARK                            x       y       z     vdW  Elec       q    Type
REMARK                         _______ _______ _______ _____ _____    ______ ____
ROOT
ATOM      1  C   UNL     1       9.183  10.134  19.086  0.00  0.00    +0.000 C 
ATOM      2  N   UNL     1       8.591   9.105  18.314  0.00  0.00    +0.000 NA
ENDROOT
BRANCH   1   6
ATOM      3  C   UNL     1      11.103  14.522  18.134  0.00  0.00    +0.000 A 
ATOM      4  C   UNL     1      11.346  13.482  17.245  0.00  0.00    +0.000 A 
ATOM      5  C   UNL     1      10.756  12.128  17.454  0.00  0.00    +0.000 A 
ATOM      6  C   UNL     1       9.941  11.730  18.617  0.00  0.00    +0.000 A 
ATOM      7  C   UNL     1       9.699  12.863  19.409  0.00  0.00    +0.000 A 
ATOM      8  C   UNL     1      10.262  14.199  19.186  0.00  0.00    +0.000 A 
BRANCH   3  10
ATOM      9  C   UNL     1      10.685  16.728  17.264  0.00  0.00    +0.000 C 
ATOM     10  O   UNL     1      11.587  15.782  17.864  0.00  0.00    +0.000 OA
ENDBRANCH   3  10
BRANCH   7  11
ATOM     11  O   UNL     1       8.803  12.618  20.405  0.00  0.00    +0.000 OA
ATOM     12  C   UNL     1       8.411  13.717  21.187  0.00  0.00    +0.000 C 
ENDBRANCH   7  11
ENDBRANCH   1   6
BRANCH   2  13
ATOM     13  N   UNL     1       8.280   7.419  18.709  0.00  0.00    +0.000 N 
ATOM     14  H   UNL     1       7.802   7.539  19.653  0.00  0.00    +0.000 HD
BRANCH  13  15
ATOM     15  C   UNL     1       7.186   6.228  18.282  0.00  0.00    +0.000 A 
ATOM     16  N   UNL     1       7.586   6.547  17.065  0.00  0.00    +0.000 NA
ATOM     17  N   UNL     1       6.791   6.358  16.165  0.00  0.00    +0.000 NA
ATOM     18  C   UNL     1       6.301   5.077  16.330  0.00  0.00    +0.000 A 
ATOM     19  C   UNL     1       5.589   4.431  17.608  0.00  0.00    +0.000 A 
ATOM     20  C   UNL     1       4.897   3.809  18.878  0.00  0.00    +0.000 A 
ATOM     21  C   UNL     1       3.554   3.409  18.743  0.00  0.00    +0.000 A 
ATOM     22  C   UNL     1       3.011   4.074  17.704  0.00  0.00    +0.000 A 
ATOM     23  C   UNL     1       3.875   5.238  17.301  0.00  0.00    +0.000 A 
ATOM     24  C   UNL     1       5.470   5.615  17.945  0.00  0.00    +0.000 A 
ENDBRANCH  13  15
ENDBRANCH   2  13
TORSDOF 5
ENDMDL
MODEL 8
REMARK VINA RESULT:      -8.3      3.477     10.044
REMARK  Name = 
REMARK  7 active torsions:
REMARK  status: ('A' for Active; 'I' for Inactive)
REMARK    1  A    between atoms: C_1  and  O_2
REMARK    2  A    between atoms: O_2  and  C_3
REMARK    3  A    between atoms: C_6  and  C_7
REMARK    4  A    between atoms: N_8  and  N_9
REMARK    5  A    between atoms: N_9  and  C_10
REMARK    6  A    between atoms: C_20  and  O_21
REMARK    7  A    between atoms: O_21  and  C_22
REMARK                            x       y       z     vdW  Elec       q    Type
REMARK                         _______ _______ _______ _____ _____    ______ ____
ROOT
ATOM      1  C   UNL     1       6.752   6.873  17.381  0.00  0.00    +0.000 C 
ATOM      2  N   UNL     1       7.087   8.242  17.526  0.00  0.00    +0.000 NA
ENDROOT
BRANCH   1   6
ATOM      3  C   UNL     1       2.647   4.233  17.553  0.00  0.00    +0.000 A 
ATOM      4  C   UNL     1       2.605   5.557  17.974  0.00  0.00    +0.000 A 
ATOM      5  C   UNL     1       3.812   6.431  17.909  0.00  0.00    +0.000 A 
ATOM      6  C   UNL     1       5.153   5.993  17.478  0.00  0.00    +0.000 A 
ATOM      7  C   UNL     1       5.068   4.672  17.011  0.00  0.00    +0.000 A 
ATOM      8  C   UNL     1       3.873   3.823  17.054  0.00  0.00    +0.000 A 
BRANCH   3  10
ATOM      9  C   UNL     1       1.100   2.843  18.768  0.00  0.00    +0.000 C 
ATOM     10  O   UNL     1       1.493   3.481  17.540  0.00  0.00    +0.000 OA
ENDBRANCH   3  10
BRANCH   7  11
ATOM     11  O   UNL     1       6.225   4.253  16.427  0.00  0.00    +0.000 OA
ATOM     12  C   UNL     1       6.186   4.020  15.042  0.00  0.00    +0.000 C 
ENDBRANCH   7  11
ENDBRANCH   1   6
BRANCH   2  13
ATOM     13  N   UNL     1       8.635   9.004  17.872  0.00  0.00    +0.000 N 
ATOM     14  H   UNL     1       9.019   9.092  16.884  0.00  0.00    +0.000 HD
BRANCH  13  15
ATOM     15  C   UNL     1       9.206  10.530  18.254  0.00  0.00    +0.000 A 
ATOM     16  N   UNL     1       9.324   9.990  19.453  0.00  0.00    +0.000 NA
ATOM     17  N   UNL     1       9.253  10.750  20.400  0.00  0.00    +0.000 NA
ATOM     18  C   UNL     1      10.094  11.810  20.122  0.00  0.00    +0.000 A 
ATOM     19  C   UNL     1      10.097  12.784  18.852  0.00  0.00    +0.000 A 
ATOM     20  C   UNL     1      10.091  13.728  17.593  0.00  0.00    +0.000 A 
ATOM     21  C   UNL     1       9.813  15.089  17.814  0.00  0.00    +0.000 A 
ATOM     22  C   UNL     1       9.151  15.206  18.983  0.00  0.00    +0.000 A 
ATOM     23  C   UNL     1       8.630  13.871  19.440  0.00  0.00    +0.000 A 
ATOM     24  C   UNL     1       8.965  12.316  18.687  0.00  0.00    +0.000 A 
ENDBRANCH  13  15
ENDBRANCH   2  13
TORSDOF 5
ENDMDL
MODEL 9
REMARK VINA RESULT:      -8.3      1.772      2.647
REMARK  Name = 
REMARK  7 active torsions:
REMARK  status: ('A' for Active; 'I' for Inactive)
REMARK    1  A    between atoms: C_1  and  O_2
REMARK    2  A    between atoms: O_2  and  C_3
REMARK    3  A    between atoms: C_6  and  C_7
REMARK    4  A    between atoms: N_8  and  N_9
REMARK    5  A    between atoms: N_9  and  C_10
REMARK    6  A    between atoms: C_20  and  O_21
REMARK    7  A    between atoms: O_21  and  C_22
REMARK                            x       y       z     vdW  Elec       q    Type
REMARK                         _______ _______ _______ _____ _____    ______ ____
ROOT
ATOM      1  C   UNL     1       8.855  10.253  18.241  0.00  0.00    +0.000 C 
ATOM      2  N   UNL     1       8.576   8.875  18.413  0.00  0.00    +0.000 NA
ENDROOT
BRANCH   1   6
ATOM      3  C   UNL     1      10.225  13.935  21.142  0.00  0.00    +0.000 A 
ATOM      4  C   UNL     1       9.636  12.816  21.719  0.00  0.00    +0.000 A 
ATOM      5  C   UNL     1       9.231  11.640  20.896  0.00  0.00    +0.000 A 
ATOM      6  C   UNL     1       9.338  11.557  19.427  0.00  0.00    +0.000 A 
ATOM      7  C   UNL     1      10.006  12.699  18.957  0.00  0.00    +0.000 A 
ATOM      8  C   UNL     1      10.423  13.843  19.774  0.00  0.00    +0.000 A 
BRANCH   3  10
ATOM      9  C   UNL     1      10.170  16.285  21.665  0.00  0.00    +0.000 C 
ATOM     10  O   UNL     1      10.670  14.965  21.941  0.00  0.00    +0.000 OA
ENDBRANCH   3  10
BRANCH   7  11
ATOM     11  O   UNL     1      10.305  12.615  17.632  0.00  0.00    +0.000 OA
ATOM     12  C   UNL     1      10.922  13.737  17.051  0.00  0.00    +0.000 C 
ENDBRANCH   7  11
ENDBRANCH   1   6
BRANCH   2  13
ATOM     13  N   UNL     1       7.698   7.754  17.380  0.00  0.00    +0.000 N 
ATOM     14  H   UNL     1       8.428   6.985  17.284  0.00  0.00    +0.000 HD
BRANCH  13  15
ATOM     15  C   UNL     1       6.485   6.613  17.539  0.00  0.00    +0.000 A 
ATOM     16  N   UNL     1       6.456   6.720  16.224  0.00  0.00    +0.000 NA
ATOM     17  N   UNL     1       5.396   6.474  15.682  0.00  0.00    +0.000 NA
ATOM     18  C   UNL     1       4.949   5.277  16.207  0.00  0.00    +0.000 A 
ATOM     19  C   UNL     1       4.695   4.884  17.736  0.00  0.00    +0.000 A 
ATOM     20  C   UNL     1       4.457   4.511  19.247  0.00  0.00    +0.000 A 
ATOM     21  C   UNL     1       3.137   4.213  19.633  0.00  0.00    +0.000 A 
ATOM     22  C   UNL     1       2.294   4.768  18.738  0.00  0.00    +0.000 A 
ATOM     23  C   UNL     1       3.007   5.784  17.888  0.00  0.00    +0.000 A 
ATOM     24  C   UNL     1       4.737   6.109  17.896  0.00  0.00    +0.000 A 
ENDBRANCH  13  15
ENDBRANCH   2  13
TORSDOF 5
ENDMDL
