MODEL 1
REMARK VINA RESULT:      -7.9      0.000      0.000
REMARK  Name = 
REMARK  6 active torsions:
REMARK  status: ('A' for Active; 'I' for Inactive)
REMARK    1  A    between atoms: C_2  and  C_25
REMARK    2  A    between atoms: N_3  and  C_4
REMARK    3  A    between atoms: C_10  and  C_11
REMARK    4  A    between atoms: N_18  and  C_19
REMARK    5  A    between atoms: C_19  and  C_20
REMARK    6  A    between atoms: C_20  and  O_21
REMARK                            x       y       z     vdW  Elec       q    Type
REMARK                         _______ _______ _______ _____ _____    ______ ____
ROOT
ATOM      1  C   UNL     1       0.349  12.281  20.118  0.00  0.00    +0.000 A 
ATOM      2  C   UNL     1      -0.582  12.327  21.157  0.00  0.00    +0.000 A 
ATOM      3  C   UNL     1      -0.924  11.184  21.889  0.00  0.00    +0.000 A 
ATOM      4  C   UNL     1      -0.295   9.988  21.543  0.00  0.00    +0.000 A 
ATOM      5  N   UNL     1      -0.380   8.735  22.077  0.00  0.00    +0.000 N 
ATOM      6  N   UNL     1       0.404   7.823  21.485  0.00  0.00    +0.000 NA
ATOM      7  C   UNL     1       1.021   8.501  20.499  0.00  0.00    +0.000 A 
ATOM      8  C   UNL     1       0.619   9.881  20.502  0.00  0.00    +0.000 A 
ATOM      9  C   UNL     1       0.937  11.052  19.773  0.00  0.00    +0.000 A 
ATOM     10  H   UNL     1      -0.946   8.442  22.864  0.00  0.00    +0.000 HD
ENDROOT
BRANCH   7  11
ATOM     11  C   UNL     1       1.989   7.827  19.623  0.00  0.00    +0.000 A 
ATOM     12  C   UNL     1       2.367   8.405  18.403  0.00  0.00    +0.000 A 
ATOM     13  C   UNL     1       3.255   7.765  17.522  0.00  0.00    +0.000 A 
ATOM     14  C   UNL     1       3.754   6.506  17.888  0.00  0.00    +0.000 A 
ATOM     15  C   UNL     1       3.411   5.915  19.108  0.00  0.00    +0.000 A 
ATOM     16  C   UNL     1       4.070   4.660  19.179  0.00  0.00    +0.000 A 
ATOM     17  C   UNL     1       4.777   4.500  18.013  0.00  0.00    +0.000 A 
ATOM     18  N   UNL     1       4.593   5.620  17.243  0.00  0.00    +0.000 N 
ATOM     19  C   UNL     1       2.545   6.593  19.985  0.00  0.00    +0.000 A 
BRANCH  18  20
ATOM     20  C   UNL     1       5.170   5.777  15.915  0.00  0.00    +0.000 C 
BRANCH  20  21
ATOM     21  C   UNL     1       6.641   5.375  15.849  0.00  0.00    +0.000 C 
BRANCH  21  22
ATOM     22  O   UNL     1       7.495   6.356  16.432  0.00  0.00    +0.000 OA
ATOM     23  H   UNL     1       8.332   5.909  16.656  0.00  0.00    +0.000 HD
ENDBRANCH  21  22
ENDBRANCH  20  21
ENDBRANCH  18  20
ENDBRANCH   7  11
BRANCH   1  26
ATOM     24  O   UNL     1       1.880  14.662  21.002  0.00  0.00    +0.000 OA
ATOM     25  C   UNL     1       1.470  14.511  19.857  0.00  0.00    +0.000 C 
ATOM     26  N   UNL     1       0.759  13.418  19.385  0.00  0.00    +0.000 N 
ATOM     27  H   UNL     1       0.491  13.426  18.408  0.00  0.00    +0.000 HD
BRANCH  25  28
ATOM     28  C   UNL     1       1.767  15.574  18.854  0.00  0.00    +0.000 A 
ATOM     29  C   UNL     1       0.846  16.618  18.638  0.00  0.00    +0.000 A 
ATOM     30 CL   UNL     1      -0.619  16.814  19.540  0.00  0.00    +0.000 Cl
ATOM     31  C   UNL     1       1.106  17.610  17.679  0.00  0.00    +0.000 A 
ATOM     32  C   UNL     1       2.281  17.585  16.936  0.00  0.00    +0.000 A 
ATOM     33  C   UNL     1       3.195  16.556  17.135  0.00  0.00    +0.000 A 
ATOM     34  C   UNL     1       2.937  15.547  18.075  0.00  0.00    +0.000 A 
ATOM     35 CL   UNL     1       4.122  14.287  18.171  0.00  0.00    +0.000 Cl
ENDBRANCH  25  28
ENDBRANCH   1  26
TORSDOF 6
ENDMDL
MODEL 2
REMARK VINA RESULT:      -7.8      1.547      2.079
REMARK  Name = 
REMARK  6 active torsions:
REMARK  status: ('A' for Active; 'I' for Inactive)
REMARK    1  A    between atoms: C_2  and  C_25
REMARK    2  A    between atoms: N_3  and  C_4
REMARK    3  A    between atoms: C_10  and  C_11
REMARK    4  A    between atoms: N_18  and  C_19
REMARK    5  A    between atoms: C_19  and  C_20
REMARK    6  A    between atoms: C_20  and  O_21
REMARK                            x       y       z     vdW  Elec       q    Type
REMARK                         _______ _______ _______ _____ _____    ______ ____
ROOT
ATOM      1  C   UNL     1       0.273  12.618  21.166  0.00  0.00    +0.000 A 
ATOM      2  C   UNL     1      -0.596  12.840  22.235  0.00  0.00    +0.000 A 
ATOM      3  C   UNL     1      -1.106  11.784  23.001  0.00  0.00    +0.000 A 
ATOM      4  C   UNL     1      -0.709  10.492  22.656  0.00  0.00    +0.000 A 
ATOM      5  N   UNL     1      -0.992   9.281  23.217  0.00  0.00    +0.000 N 
ATOM      6  N   UNL     1      -0.402   8.238  22.616  0.00  0.00    +0.000 NA
ATOM      7  C   UNL     1       0.286   8.784  21.596  0.00  0.00    +0.000 A 
ATOM      8  C   UNL     1       0.132  10.213  21.587  0.00  0.00    +0.000 A 
ATOM      9  C   UNL     1       0.623  11.300  20.824  0.00  0.00    +0.000 A 
ATOM     10  H   UNL     1      -1.571   9.102  24.029  0.00  0.00    +0.000 HD
ENDROOT
BRANCH   7  11
ATOM     11  C   UNL     1       1.087   7.939  20.700  0.00  0.00    +0.000 A 
ATOM     12  C   UNL     1       1.278   6.580  20.985  0.00  0.00    +0.000 A 
ATOM     13  C   UNL     1       2.076   5.756  20.173  0.00  0.00    +0.000 A 
ATOM     14  C   UNL     1       2.701   6.335  19.059  0.00  0.00    +0.000 A 
ATOM     15  C   UNL     1       2.512   7.683  18.738  0.00  0.00    +0.000 A 
ATOM     16  C   UNL     1       3.271   7.958  17.571  0.00  0.00    +0.000 A 
ATOM     17  C   UNL     1       3.914   6.798  17.215  0.00  0.00    +0.000 A 
ATOM     18  N   UNL     1       3.559   5.820  18.109  0.00  0.00    +0.000 N 
ATOM     19  C   UNL     1       1.681   8.476  19.551  0.00  0.00    +0.000 A 
BRANCH  18  20
ATOM     20  C   UNL     1       4.087   4.464  18.055  0.00  0.00    +0.000 C 
BRANCH  20  21
ATOM     21  C   UNL     1       5.343   4.276  18.902  0.00  0.00    +0.000 C 
BRANCH  21  22
ATOM     22  O   UNL     1       5.383   2.996  19.530  0.00  0.00    +0.000 OA
ATOM     23  H   UNL     1       4.611   2.495  19.207  0.00  0.00    +0.000 HD
ENDBRANCH  21  22
ENDBRANCH  20  21
ENDBRANCH  18  20
ENDBRANCH   7  11
BRANCH   1  26
ATOM     24  O   UNL     1      -0.498  13.653  18.497  0.00  0.00    +0.000 OA
ATOM     25  C   UNL     1       0.446  14.093  19.143  0.00  0.00    +0.000 C 
ATOM     26  N   UNL     1       0.847  13.656  20.397  0.00  0.00    +0.000 N 
ATOM     27  H   UNL     1       1.643  14.121  20.817  0.00  0.00    +0.000 HD
BRANCH  25  28
ATOM     28  C   UNL     1       1.239  15.215  18.563  0.00  0.00    +0.000 A 
ATOM     29  C   UNL     1       0.659  16.491  18.422  0.00  0.00    +0.000 A 
ATOM     30 CL   UNL     1      -0.936  16.891  18.965  0.00  0.00    +0.000 Cl
ATOM     31  C   UNL     1       1.390  17.547  17.856  0.00  0.00    +0.000 A 
ATOM     32  C   UNL     1       2.702  17.354  17.437  0.00  0.00    +0.000 A 
ATOM     33  C   UNL     1       3.284  16.098  17.565  0.00  0.00    +0.000 A 
ATOM     34  C   UNL     1       2.557  15.029  18.109  0.00  0.00    +0.000 A 
ATOM     35 CL   UNL     1       3.375  13.502  18.145  0.00  0.00    +0.000 Cl
ENDBRANCH  25  28
ENDBRANCH   1  26
TORSDOF 6
ENDMDL
MODEL 3
REMARK VINA RESULT:      -7.8      1.333      2.514
REMARK  Name = 
REMARK  6 active torsions:
REMARK  status: ('A' for Active; 'I' for Inactive)
REMARK    1  A    between atoms: C_2  and  C_25
REMARK    2  A    between atoms: N_3  and  C_4
REMARK    3  A    between atoms: C_10  and  C_11
REMARK    4  A    between atoms: N_18  and  C_19
REMARK    5  A    between atoms: C_19  and  C_20
REMARK    6  A    between atoms: C_20  and  O_21
REMARK                            x       y       z     vdW  Elec       q    Type
REMARK                         _______ _______ _______ _____ _____    ______ ____
ROOT
ATOM      1  C   UNL     1       0.274  12.658  21.140  0.00  0.00    +0.000 A 
ATOM      2  C   UNL     1      -0.598  12.902  22.201  0.00  0.00    +0.000 A 
ATOM      3  C   UNL     1      -1.113  11.862  22.985  0.00  0.00    +0.000 A 
ATOM      4  C   UNL     1      -0.718  10.563  22.666  0.00  0.00    +0.000 A 
ATOM      5  N   UNL     1      -1.007   9.363  23.249  0.00  0.00    +0.000 N 
ATOM      6  N   UNL     1      -0.417   8.308  22.670  0.00  0.00    +0.000 NA
ATOM      7  C   UNL     1       0.276   8.833  21.643  0.00  0.00    +0.000 A 
ATOM      8  C   UNL     1       0.126  10.262  21.605  0.00  0.00    +0.000 A 
ATOM      9  C   UNL     1       0.623  11.333  20.824  0.00  0.00    +0.000 A 
ATOM     10  H   UNL     1      -1.589   9.201  24.061  0.00  0.00    +0.000 HD
ENDROOT
BRANCH   7  11
ATOM     11  C   UNL     1       1.079   7.969  20.766  0.00  0.00    +0.000 A 
ATOM     12  C   UNL     1       1.285   6.620  21.090  0.00  0.00    +0.000 A 
ATOM     13  C   UNL     1       2.084   5.780  20.296  0.00  0.00    +0.000 A 
ATOM     14  C   UNL     1       2.695   6.332  19.160  0.00  0.00    +0.000 A 
ATOM     15  C   UNL     1       2.491   7.667  18.801  0.00  0.00    +0.000 A 
ATOM     16  C   UNL     1       3.238   7.914  17.620  0.00  0.00    +0.000 A 
ATOM     17  C   UNL     1       3.889   6.751  17.293  0.00  0.00    +0.000 A 
ATOM     18  N   UNL     1       3.550   5.796  18.219  0.00  0.00    +0.000 N 
ATOM     19  C   UNL     1       1.659   8.477  19.596  0.00  0.00    +0.000 A 
BRANCH  18  20
ATOM     20  C   UNL     1       4.092   4.444  18.202  0.00  0.00    +0.000 C 
BRANCH  20  21
ATOM     21  C   UNL     1       5.482   4.362  17.579  0.00  0.00    +0.000 C 
BRANCH  21  22
ATOM     22  O   UNL     1       6.488   4.061  18.544  0.00  0.00    +0.000 OA
ATOM     23  H   UNL     1       6.511   3.090  18.638  0.00  0.00    +0.000 HD
ENDBRANCH  21  22
ENDBRANCH  20  21
ENDBRANCH  18  20
ENDBRANCH   7  11
BRANCH   1  26
ATOM     24  O   UNL     1      -0.493  13.654  18.454  0.00  0.00    +0.000 OA
ATOM     25  C   UNL     1       0.454  14.098  19.093  0.00  0.00    +0.000 C 
ATOM     26  N   UNL     1       0.854  13.680  20.353  0.00  0.00    +0.000 N 
ATOM     27  H   UNL     1       1.653  14.146  20.765  0.00  0.00    +0.000 HD
BRANCH  25  28
ATOM     28  C   UNL     1       1.254  15.206  18.494  0.00  0.00    +0.000 A 
ATOM     29  C   UNL     1       2.581  14.975  18.082  0.00  0.00    +0.000 A 
ATOM     30 CL   UNL     1       3.356  13.428  18.145  0.00  0.00    +0.000 Cl
ATOM     31  C   UNL     1       3.350  16.017  17.538  0.00  0.00    +0.000 A 
ATOM     32  C   UNL     1       2.810  17.289  17.386  0.00  0.00    +0.000 A 
ATOM     33  C   UNL     1       1.503  17.531  17.795  0.00  0.00    +0.000 A 
ATOM     34  C   UNL     1       0.731  16.504  18.359  0.00  0.00    +0.000 A 
ATOM     35 CL   UNL     1      -0.853  16.958  18.892  0.00  0.00    +0.000 Cl
ENDBRANCH  25  28
ENDBRANCH   1  26
TORSDOF 6
ENDMDL
MODEL 4
REMARK VINA RESULT:      -7.8      0.187      1.636
REMARK  Name = 
REMARK  6 active torsions:
REMARK  status: ('A' for Active; 'I' for Inactive)
REMARK    1  A    between atoms: C_2  and  C_25
REMARK    2  A    between atoms: N_3  and  C_4
REMARK    3  A    between atoms: C_10  and  C_11
REMARK    4  A    between atoms: N_18  and  C_19
REMARK    5  A    between atoms: C_19  and  C_20
REMARK    6  A    between atoms: C_20  and  O_21
REMARK                            x       y       z     vdW  Elec       q    Type
REMARK                         _______ _______ _______ _____ _____    ______ ____
ROOT
ATOM      1  C   UNL     1       0.254  12.389  20.140  0.00  0.00    +0.000 A 
ATOM      2  C   UNL     1      -0.662  12.448  21.190  0.00  0.00    +0.000 A 
ATOM      3  C   UNL     1      -0.987  11.317  21.948  0.00  0.00    +0.000 A 
ATOM      4  C   UNL     1      -0.356  10.119  21.615  0.00  0.00    +0.000 A 
ATOM      5  N   UNL     1      -0.426   8.876  22.174  0.00  0.00    +0.000 N 
ATOM      6  N   UNL     1       0.356   7.958  21.588  0.00  0.00    +0.000 NA
ATOM      7  C   UNL     1       0.954   8.621  20.581  0.00  0.00    +0.000 A 
ATOM      8  C   UNL     1       0.544   9.998  20.564  0.00  0.00    +0.000 A 
ATOM      9  C   UNL     1       0.845  11.157  19.808  0.00  0.00    +0.000 A 
ATOM     10  H   UNL     1      -0.979   8.594  22.974  0.00  0.00    +0.000 HD
ENDROOT
BRANCH   7  11
ATOM     11  C   UNL     1       1.914   7.936  19.704  0.00  0.00    +0.000 A 
ATOM     12  C   UNL     1       2.278   8.498  18.472  0.00  0.00    +0.000 A 
ATOM     13  C   UNL     1       3.158   7.848  17.590  0.00  0.00    +0.000 A 
ATOM     14  C   UNL     1       3.662   6.594  17.968  0.00  0.00    +0.000 A 
ATOM     15  C   UNL     1       3.334   6.019  19.199  0.00  0.00    +0.000 A 
ATOM     16  C   UNL     1       3.996   4.766  19.280  0.00  0.00    +0.000 A 
ATOM     17  C   UNL     1       4.691   4.592  18.109  0.00  0.00    +0.000 A 
ATOM     18  N   UNL     1       4.496   5.701  17.326  0.00  0.00    +0.000 N 
ATOM     19  C   UNL     1       2.476   6.709  20.077  0.00  0.00    +0.000 A 
BRANCH  18  20
ATOM     20  C   UNL     1       5.059   5.841  15.990  0.00  0.00    +0.000 C 
BRANCH  20  21
ATOM     21  C   UNL     1       6.446   5.220  15.855  0.00  0.00    +0.000 C 
BRANCH  21  22
ATOM     22  O   UNL     1       7.484   6.191  15.957  0.00  0.00    +0.000 OA
ATOM     23  H   UNL     1       7.115   6.954  16.439  0.00  0.00    +0.000 HD
ENDBRANCH  21  22
ENDBRANCH  20  21
ENDBRANCH  18  20
ENDBRANCH   7  11
BRANCH   1  26
ATOM     24  O   UNL     1       1.776  14.798  20.959  0.00  0.00    +0.000 OA
ATOM     25  C   UNL     1       1.353  14.622  19.822  0.00  0.00    +0.000 C 
ATOM     26  N   UNL     1       0.646  13.515  19.379  0.00  0.00    +0.000 N 
ATOM     27  H   UNL     1       0.367  13.501  18.406  0.00  0.00    +0.000 HD
BRANCH  25  28
ATOM     28  C   UNL     1       1.630  15.667  18.795  0.00  0.00    +0.000 A 
ATOM     29  C   UNL     1       2.852  15.662  18.093  0.00  0.00    +0.000 A 
ATOM     30 CL   UNL     1       4.067  14.442  18.281  0.00  0.00    +0.000 Cl
ATOM     31  C   UNL     1       3.132  16.655  17.141  0.00  0.00    +0.000 A 
ATOM     32  C   UNL     1       2.203  17.652  16.866  0.00  0.00    +0.000 A 
ATOM     33  C   UNL     1       0.995  17.673  17.557  0.00  0.00    +0.000 A 
ATOM     34  C   UNL     1       0.713  16.699  18.525  0.00  0.00    +0.000 A 
ATOM     35 CL   UNL     1      -0.793  16.882  19.361  0.00  0.00    +0.000 Cl
ENDBRANCH  25  28
ENDBRANCH   1  26
TORSDOF 6
ENDMDL
MODEL 5
REMARK VINA RESULT:      -7.7      3.950      6.281
REMARK  Name = 
REMARK  6 active torsions:
REMARK  status: ('A' for Active; 'I' for Inactive)
REMARK    1  A    between atoms: C_2  and  C_25
REMARK    2  A    between atoms: N_3  and  C_4
REMARK    3  A    between atoms: C_10  and  C_11
REMARK    4  A    between atoms: N_18  and  C_19
REMARK    5  A    between atoms: C_19  and  C_20
REMARK    6  A    between atoms: C_20  and  O_21
REMARK                            x       y       z     vdW  Elec       q    Type
REMARK                         _______ _______ _______ _____ _____    ______ ____
ROOT
ATOM      1  C   UNL     1      -1.706  12.727  20.140  0.00  0.00    +0.000 A 
ATOM      2  C   UNL     1      -1.348  13.916  19.503  0.00  0.00    +0.000 A 
ATOM      3  C   UNL     1      -0.184  14.016  18.732  0.00  0.00    +0.000 A 
ATOM      4  C   UNL     1       0.612  12.875  18.621  0.00  0.00    +0.000 A 
ATOM      5  N   UNL     1       1.763  12.642  17.926  0.00  0.00    +0.000 N 
ATOM      6  N   UNL     1       2.239  11.394  18.042  0.00  0.00    +0.000 NA
ATOM      7  C   UNL     1       1.372  10.780  18.869  0.00  0.00    +0.000 A 
ATOM      8  C   UNL     1       0.316  11.675  19.254  0.00  0.00    +0.000 A 
ATOM      9  C   UNL     1      -0.863  11.607  20.036  0.00  0.00    +0.000 A 
ATOM     10  H   UNL     1       2.266  13.294  17.337  0.00  0.00    +0.000 HD
ENDROOT
BRANCH   7  11
ATOM     11  C   UNL     1       1.557   9.367  19.228  0.00  0.00    +0.000 A 
ATOM     12  C   UNL     1       1.228   8.911  20.512  0.00  0.00    +0.000 A 
ATOM     13  C   UNL     1       1.435   7.577  20.902  0.00  0.00    +0.000 A 
ATOM     14  C   UNL     1       2.003   6.698  19.967  0.00  0.00    +0.000 A 
ATOM     15  C   UNL     1       2.321   7.119  18.673  0.00  0.00    +0.000 A 
ATOM     16  C   UNL     1       2.872   6.009  17.981  0.00  0.00    +0.000 A 
ATOM     17  C   UNL     1       2.897   4.951  18.855  0.00  0.00    +0.000 A 
ATOM     18  N   UNL     1       2.362   5.368  20.048  0.00  0.00    +0.000 N 
ATOM     19  C   UNL     1       2.072   8.453  18.300  0.00  0.00    +0.000 A 
BRANCH  18  20
ATOM     20  C   UNL     1       2.266   4.509  21.221  0.00  0.00    +0.000 C 
BRANCH  20  21
ATOM     21  C   UNL     1       1.434   3.254  20.978  0.00  0.00    +0.000 C 
BRANCH  21  22
ATOM     22  O   UNL     1       1.377   2.414  22.129  0.00  0.00    +0.000 OA
ATOM     23  H   UNL     1       2.170   1.847  22.109  0.00  0.00    +0.000 HD
ENDBRANCH  21  22
ENDBRANCH  20  21
ENDBRANCH  18  20
ENDBRANCH   7  11
BRANCH   1  26
ATOM     24  O   UNL     1      -3.753  14.733  20.901  0.00  0.00    +0.000 OA
ATOM     25  C   UNL     1      -3.815  13.552  21.221  0.00  0.00    +0.000 C 
ATOM     26  N   UNL     1      -2.896  12.569  20.888  0.00  0.00    +0.000 N 
ATOM     27  H   UNL     1      -3.081  11.629  21.217  0.00  0.00    +0.000 HD
BRANCH  25  28
ATOM     28  C   UNL     1      -4.987  13.098  22.025  0.00  0.00    +0.000 A 
ATOM     29  C   UNL     1      -6.166  12.678  21.378  0.00  0.00    +0.000 A 
ATOM     30 CL   UNL     1      -6.337  12.568  19.658  0.00  0.00    +0.000 Cl
ATOM     31  C   UNL     1      -7.283  12.271  22.126  0.00  0.00    +0.000 A 
ATOM     32  C   UNL     1      -7.238  12.263  23.515  0.00  0.00    +0.000 A 
ATOM     33  C   UNL     1      -6.082  12.682  24.166  0.00  0.00    +0.000 A 
ATOM     34  C   UNL     1      -4.968  13.111  23.431  0.00  0.00    +0.000 A 
ATOM     35 CL   UNL     1      -3.621  13.674  24.363  0.00  0.00    +0.000 Cl
ENDBRANCH  25  28
ENDBRANCH   1  26
TORSDOF 6
ENDMDL
MODEL 6
REMARK VINA RESULT:      -7.6      3.872      6.231
REMARK  Name = 
REMARK  6 active torsions:
REMARK  status: ('A' for Active; 'I' for Inactive)
REMARK    1  A    between atoms: C_2  and  C_25
REMARK    2  A    between atoms: N_3  and  C_4
REMARK    3  A    between atoms: C_10  and  C_11
REMARK    4  A    between atoms: N_18  and  C_19
REMARK    5  A    between atoms: C_19  and  C_20
REMARK    6  A    between atoms: C_20  and  O_21
REMARK                            x       y       z     vdW  Elec       q    Type
REMARK                         _______ _______ _______ _____ _____    ______ ____
ROOT
ATOM      1  C   UNL     1      -1.641  12.737  20.070  0.00  0.00    +0.000 A 
ATOM      2  C   UNL     1      -1.270  13.920  19.429  0.00  0.00    +0.000 A 
ATOM      3  C   UNL     1      -0.102  14.006  18.663  0.00  0.00    +0.000 A 
ATOM      4  C   UNL     1       0.684  12.858  18.560  0.00  0.00    +0.000 A 
ATOM      5  N   UNL     1       1.836  12.612  17.871  0.00  0.00    +0.000 N 
ATOM      6  N   UNL     1       2.301  11.361  17.994  0.00  0.00    +0.000 NA
ATOM      7  C   UNL     1       1.426  10.758  18.820  0.00  0.00    +0.000 A 
ATOM      8  C   UNL     1       0.376  11.664  19.198  0.00  0.00    +0.000 A 
ATOM      9  C   UNL     1      -0.807  11.609  19.974  0.00  0.00    +0.000 A 
ATOM     10  H   UNL     1       2.347  13.257  17.281  0.00  0.00    +0.000 HD
ENDROOT
BRANCH   7  11
ATOM     11  C   UNL     1       1.598   9.345  19.186  0.00  0.00    +0.000 A 
ATOM     12  C   UNL     1       1.192   8.883  20.446  0.00  0.00    +0.000 A 
ATOM     13  C   UNL     1       1.383   7.549  20.844  0.00  0.00    +0.000 A 
ATOM     14  C   UNL     1       2.014   6.676  19.944  0.00  0.00    +0.000 A 
ATOM     15  C   UNL     1       2.410   7.104  18.673  0.00  0.00    +0.000 A 
ATOM     16  C   UNL     1       3.010   6.000  18.015  0.00  0.00    +0.000 A 
ATOM     17  C   UNL     1       2.987   4.939  18.886  0.00  0.00    +0.000 A 
ATOM     18  N   UNL     1       2.376   5.348  20.044  0.00  0.00    +0.000 N 
ATOM     19  C   UNL     1       2.176   8.438  18.289  0.00  0.00    +0.000 A 
BRANCH  18  20
ATOM     20  C   UNL     1       2.213   4.485  21.206  0.00  0.00    +0.000 C 
BRANCH  20  21
ATOM     21  C   UNL     1       1.764   3.072  20.845  0.00  0.00    +0.000 C 
BRANCH  21  22
ATOM     22  O   UNL     1       0.402   3.030  20.424  0.00  0.00    +0.000 OA
ATOM     23  H   UNL     1       0.180   2.093  20.268  0.00  0.00    +0.000 HD
ENDBRANCH  21  22
ENDBRANCH  20  21
ENDBRANCH  18  20
ENDBRANCH   7  11
BRANCH   1  26
ATOM     24  O   UNL     1      -3.646  14.773  20.860  0.00  0.00    +0.000 OA
ATOM     25  C   UNL     1      -3.734  13.589  21.162  0.00  0.00    +0.000 C 
ATOM     26  N   UNL     1      -2.834  12.592  20.814  0.00  0.00    +0.000 N 
ATOM     27  H   UNL     1      -3.041  11.651  21.128  0.00  0.00    +0.000 HD
BRANCH  25  28
ATOM     28  C   UNL     1      -4.916  13.147  21.956  0.00  0.00    +0.000 A 
ATOM     29  C   UNL     1      -4.869  13.168  23.364  0.00  0.00    +0.000 A 
ATOM     30 CL   UNL     1      -3.523  13.768  24.275  0.00  0.00    +0.000 Cl
ATOM     31  C   UNL     1      -5.968  12.732  24.121  0.00  0.00    +0.000 A 
ATOM     32  C   UNL     1      -7.125  12.284  23.493  0.00  0.00    +0.000 A 
ATOM     33  C   UNL     1      -7.182  12.251  22.104  0.00  0.00    +0.000 A 
ATOM     34  C   UNL     1      -6.083  12.664  21.337  0.00  0.00    +0.000 A 
ATOM     35 CL   UNL     1      -6.259  12.505  19.621  0.00  0.00    +0.000 Cl
ENDBRANCH  25  28
ENDBRANCH   1  26
TORSDOF 6
ENDMDL
MODEL 7
REMARK VINA RESULT:      -7.6      1.073      2.076
REMARK  Name = 
REMARK  6 active torsions:
REMARK  status: ('A' for Active; 'I' for Inactive)
REMARK    1  A    between atoms: C_2  and  C_25
REMARK    2  A    between atoms: N_3  and  C_4
REMARK    3  A    between atoms: C_10  and  C_11
REMARK    4  A    between atoms: N_18  and  C_19
REMARK    5  A    between atoms: C_19  and  C_20
REMARK    6  A    between atoms: C_20  and  O_21
REMARK                            x       y       z     vdW  Elec       q    Type
REMARK                         _______ _______ _______ _____ _____    ______ ____
ROOT
ATOM      1  C   UNL     1       0.138  12.769  20.699  0.00  0.00    +0.000 A 
ATOM      2  C   UNL     1      -0.707  13.056  21.772  0.00  0.00    +0.000 A 
ATOM      3  C   UNL     1      -1.127  12.063  22.664  0.00  0.00    +0.000 A 
ATOM      4  C   UNL     1      -0.666  10.765  22.442  0.00  0.00    +0.000 A 
ATOM      5  N   UNL     1      -0.858   9.607  23.138  0.00  0.00    +0.000 N 
ATOM      6  N   UNL     1      -0.228   8.540  22.628  0.00  0.00    +0.000 NA
ATOM      7  C   UNL     1       0.392   9.010  21.530  0.00  0.00    +0.000 A 
ATOM      8  C   UNL     1       0.154  10.419  21.375  0.00  0.00    +0.000 A 
ATOM      9  C   UNL     1       0.554  11.444  20.484  0.00  0.00    +0.000 A 
ATOM     10  H   UNL     1      -1.398   9.485  23.987  0.00  0.00    +0.000 HD
ENDROOT
BRANCH   7  11
ATOM     11  C   UNL     1       1.212   8.120  20.697  0.00  0.00    +0.000 A 
ATOM     12  C   UNL     1       1.743   8.572  19.481  0.00  0.00    +0.000 A 
ATOM     13  C   UNL     1       2.493   7.733  18.640  0.00  0.00    +0.000 A 
ATOM     14  C   UNL     1       2.689   6.403  19.041  0.00  0.00    +0.000 A 
ATOM     15  C   UNL     1       2.190   5.930  20.258  0.00  0.00    +0.000 A 
ATOM     16  C   UNL     1       2.552   4.562  20.371  0.00  0.00    +0.000 A 
ATOM     17  C   UNL     1       3.240   4.224  19.231  0.00  0.00    +0.000 A 
ATOM     18  N   UNL     1       3.330   5.340  18.438  0.00  0.00    +0.000 N 
ATOM     19  C   UNL     1       1.471   6.802  21.096  0.00  0.00    +0.000 A 
BRANCH  18  20
ATOM     20  C   UNL     1       3.966   5.335  17.128  0.00  0.00    +0.000 C 
BRANCH  20  21
ATOM     21  C   UNL     1       5.460   5.033  17.187  0.00  0.00    +0.000 C 
BRANCH  21  22
ATOM     22  O   UNL     1       5.761   3.711  16.748  0.00  0.00    +0.000 OA
ATOM     23  H   UNL     1       6.598   3.451  17.177  0.00  0.00    +0.000 HD
ENDBRANCH  21  22
ENDBRANCH  20  21
ENDBRANCH  18  20
ENDBRANCH   7  11
BRANCH   1  26
ATOM     24  O   UNL     1       2.169  14.889  21.119  0.00  0.00    +0.000 OA
ATOM     25  C   UNL     1       1.574  14.725  20.060  0.00  0.00    +0.000 C 
ATOM     26  N   UNL     1       0.623  13.749  19.802  0.00  0.00    +0.000 N 
ATOM     27  H   UNL     1       0.219  13.728  18.874  0.00  0.00    +0.000 HD
BRANCH  25  28
ATOM     28  C   UNL     1       1.897  15.632  18.920  0.00  0.00    +0.000 A 
ATOM     29  C   UNL     1       3.000  15.354  18.089  0.00  0.00    +0.000 A 
ATOM     30 CL   UNL     1       3.996  13.946  18.245  0.00  0.00    +0.000 Cl
ATOM     31  C   UNL     1       3.326  16.213  17.027  0.00  0.00    +0.000 A 
ATOM     32  C   UNL     1       2.559  17.345  16.772  0.00  0.00    +0.000 A 
ATOM     33  C   UNL     1       1.472  17.634  17.590  0.00  0.00    +0.000 A 
ATOM     34  C   UNL     1       1.148  16.794  18.666  0.00  0.00    +0.000 A 
ATOM     35 CL   UNL     1      -0.184  17.307  19.647  0.00  0.00    +0.000 Cl
ENDBRANCH  25  28
ENDBRANCH   1  26
TORSDOF 6
ENDMDL
MODEL 8
REMARK VINA RESULT:      -7.6      2.744      3.991
REMARK  Name = 
REMARK  6 active torsions:
REMARK  status: ('A' for Active; 'I' for Inactive)
REMARK    1  A    between atoms: C_2  and  C_25
REMARK    2  A    between atoms: N_3  and  C_4
REMARK    3  A    between atoms: C_10  and  C_11
REMARK    4  A    between atoms: N_18  and  C_19
REMARK    5  A    between atoms: C_19  and  C_20
REMARK    6  A    between atoms: C_20  and  O_21
REMARK                            x       y       z     vdW  Elec       q    Type
REMARK                         _______ _______ _______ _____ _____    ______ ____
ROOT
ATOM      1  C   UNL     1       2.341  14.039  19.117  0.00  0.00    +0.000 A 
ATOM      2  C   UNL     1       1.164  14.782  19.023  0.00  0.00    +0.000 A 
ATOM      3  C   UNL     1      -0.083  14.168  18.854  0.00  0.00    +0.000 A 
ATOM      4  C   UNL     1      -0.107  12.775  18.785  0.00  0.00    +0.000 A 
ATOM      5  N   UNL     1      -1.144  11.896  18.666  0.00  0.00    +0.000 N 
ATOM      6  N   UNL     1      -0.780  10.606  18.655  0.00  0.00    +0.000 NA
ATOM      7  C   UNL     1       0.562  10.635  18.751  0.00  0.00    +0.000 A 
ATOM      8  C   UNL     1       1.036  11.989  18.848  0.00  0.00    +0.000 A 
ATOM      9  C   UNL     1       2.283  12.639  19.008  0.00  0.00    +0.000 A 
ATOM     10  H   UNL     1      -2.130  12.116  18.605  0.00  0.00    +0.000 HD
ENDROOT
BRANCH   7  11
ATOM     11  C   UNL     1       1.335   9.386  18.785  0.00  0.00    +0.000 A 
ATOM     12  C   UNL     1       2.201   9.056  17.732  0.00  0.00    +0.000 A 
ATOM     13  C   UNL     1       2.919   7.849  17.713  0.00  0.00    +0.000 A 
ATOM     14  C   UNL     1       2.739   6.957  18.782  0.00  0.00    +0.000 A 
ATOM     15  C   UNL     1       1.900   7.269  19.855  0.00  0.00    +0.000 A 
ATOM     16  C   UNL     1       1.933   6.176  20.760  0.00  0.00    +0.000 A 
ATOM     17  C   UNL     1       2.763   5.223  20.223  0.00  0.00    +0.000 A 
ATOM     18  N   UNL     1       3.256   5.703  19.036  0.00  0.00    +0.000 N 
ATOM     19  C   UNL     1       1.218   8.500  19.864  0.00  0.00    +0.000 A 
BRANCH  18  20
ATOM     20  C   UNL     1       4.144   4.935  18.175  0.00  0.00    +0.000 C 
BRANCH  20  21
ATOM     21  C   UNL     1       4.925   3.860  18.924  0.00  0.00    +0.000 C 
BRANCH  21  22
ATOM     22  O   UNL     1       6.326   3.932  18.667  0.00  0.00    +0.000 OA
ATOM     23  H   UNL     1       6.637   3.020  18.519  0.00  0.00    +0.000 HD
ENDBRANCH  21  22
ENDBRANCH  20  21
ENDBRANCH  18  20
ENDBRANCH   7  11
BRANCH   1  26
ATOM     24  O   UNL     1       4.064  15.592  17.270  0.00  0.00    +0.000 OA
ATOM     25  C   UNL     1       4.380  15.327  18.424  0.00  0.00    +0.000 C 
ATOM     26  N   UNL     1       3.614  14.615  19.335  0.00  0.00    +0.000 N 
ATOM     27  H   UNL     1       4.001  14.479  20.261  0.00  0.00    +0.000 HD
BRANCH  25  28
ATOM     28  C   UNL     1       5.693  15.823  18.929  0.00  0.00    +0.000 A 
ATOM     29  C   UNL     1       6.884  15.167  18.561  0.00  0.00    +0.000 A 
ATOM     30 CL   UNL     1       6.949  13.831  17.460  0.00  0.00    +0.000 Cl
ATOM     31  C   UNL     1       8.123  15.612  19.049  0.00  0.00    +0.000 A 
ATOM     32  C   UNL     1       8.195  16.713  19.895  0.00  0.00    +0.000 A 
ATOM     33  C   UNL     1       7.026  17.365  20.272  0.00  0.00    +0.000 A 
ATOM     34  C   UNL     1       5.780  16.918  19.807  0.00  0.00    +0.000 A 
ATOM     35 CL   UNL     1       4.400  17.773  20.410  0.00  0.00    +0.000 Cl
ENDBRANCH  25  28
ENDBRANCH   1  26
TORSDOF 6
ENDMDL
MODEL 9
REMARK VINA RESULT:      -7.5      2.751      4.006
REMARK  Name = 
REMARK  6 active torsions:
REMARK  status: ('A' for Active; 'I' for Inactive)
REMARK    1  A    between atoms: C_2  and  C_25
REMARK    2  A    between atoms: N_3  and  C_4
REMARK    3  A    between atoms: C_10  and  C_11
REMARK    4  A    between atoms: N_18  and  C_19
REMARK    5  A    between atoms: C_19  and  C_20
REMARK    6  A    between atoms: C_20  and  O_21
REMARK                            x       y       z     vdW  Elec       q    Type
REMARK                         _______ _______ _______ _____ _____    ______ ____
ROOT
ATOM      1  C   UNL     1       2.189  13.808  19.069  0.00  0.00    +0.000 A 
ATOM      2  C   UNL     1       0.978  14.491  18.952  0.00  0.00    +0.000 A 
ATOM      3  C   UNL     1      -0.234  13.815  18.772  0.00  0.00    +0.000 A 
ATOM      4  C   UNL     1      -0.189  12.422  18.715  0.00  0.00    +0.000 A 
ATOM      5  N   UNL     1      -1.179  11.491  18.588  0.00  0.00    +0.000 N 
ATOM      6  N   UNL     1      -0.751  10.221  18.594  0.00  0.00    +0.000 NA
ATOM      7  C   UNL     1       0.586  10.317  18.708  0.00  0.00    +0.000 A 
ATOM      8  C   UNL     1       0.991  11.694  18.799  0.00  0.00    +0.000 A 
ATOM      9  C   UNL     1       2.202  12.406  18.971  0.00  0.00    +0.000 A 
ATOM     10  H   UNL     1      -2.174  11.661  18.512  0.00  0.00    +0.000 HD
ENDROOT
BRANCH   7  11
ATOM     11  C   UNL     1       1.420   9.109  18.763  0.00  0.00    +0.000 A 
ATOM     12  C   UNL     1       1.385   8.270  19.886  0.00  0.00    +0.000 A 
ATOM     13  C   UNL     1       2.202   7.132  19.989  0.00  0.00    +0.000 A 
ATOM     14  C   UNL     1       3.082   6.855  18.932  0.00  0.00    +0.000 A 
ATOM     15  C   UNL     1       3.123   7.660  17.790  0.00  0.00    +0.000 A 
ATOM     16  C   UNL     1       4.104   7.120  16.918  0.00  0.00    +0.000 A 
ATOM     17  C   UNL     1       4.648   6.023  17.539  0.00  0.00    +0.000 A 
ATOM     18  N   UNL     1       4.021   5.861  18.748  0.00  0.00    +0.000 N 
ATOM     19  C   UNL     1       2.269   8.775  17.700  0.00  0.00    +0.000 A 
BRANCH  18  20
ATOM     20  C   UNL     1       4.376   4.811  19.693  0.00  0.00    +0.000 C 
BRANCH  20  21
ATOM     21  C   UNL     1       4.070   3.408  19.175  0.00  0.00    +0.000 C 
BRANCH  21  22
ATOM     22  O   UNL     1       5.054   2.458  19.578  0.00  0.00    +0.000 OA
ATOM     23  H   UNL     1       5.738   2.443  18.882  0.00  0.00    +0.000 HD
ENDBRANCH  21  22
ENDBRANCH  20  21
ENDBRANCH  18  20
ENDBRANCH   7  11
BRANCH   1  26
ATOM     24  O   UNL     1       3.795  15.539  17.275  0.00  0.00    +0.000 OA
ATOM     25  C   UNL     1       4.140  15.243  18.413  0.00  0.00    +0.000 C 
ATOM     26  N   UNL     1       3.429  14.448  19.299  0.00  0.00    +0.000 N 
ATOM     27  H   UNL     1       3.835  14.295  20.214  0.00  0.00    +0.000 HD
BRANCH  25  28
ATOM     28  C   UNL     1       5.428  15.793  18.927  0.00  0.00    +0.000 A 
ATOM     29  C   UNL     1       6.647  15.178  18.578  0.00  0.00    +0.000 A 
ATOM     30 CL   UNL     1       6.774  13.834  17.493  0.00  0.00    +0.000 Cl
ATOM     31  C   UNL     1       7.863  15.674  19.075  0.00  0.00    +0.000 A 
ATOM     32  C   UNL     1       7.885  16.786  19.909  0.00  0.00    +0.000 A 
ATOM     33  C   UNL     1       6.688  17.398  20.266  0.00  0.00    +0.000 A 
ATOM     34  C   UNL     1       5.465  16.900  19.794  0.00  0.00    +0.000 A 
ATOM     35 CL   UNL     1       4.047  17.709  20.372  0.00  0.00    +0.000 Cl
ENDBRANCH  25  28
ENDBRANCH   1  26
TORSDOF 6
ENDMDL
