MODEL 1
REMARK VINA RESULT:      -7.7      0.000      0.000
REMARK  Name = 
REMARK  8 active torsions:
REMARK  status: ('A' for Active; 'I' for Inactive)
REMARK    1  A    between atoms: C_1  and  C_2
REMARK    2  A    between atoms: C_2  and  N_3
REMARK    3  A    between atoms: C_7  and  C_8
REMARK    4  A    between atoms: C_8  and  N_9
REMARK    5  A    between atoms: C_10  and  C_12
REMARK    6  A    between atoms: C_17  and  O_18
REMARK    7  A    between atoms: O_18  and  C_19
REMARK    8  A    between atoms: C_22  and  C_23
REMARK                            x       y       z     vdW  Elec       q    Type
REMARK                         _______ _______ _______ _____ _____    ______ ____
ROOT
ATOM      1  C   UNL     1       1.746   8.101  19.909  0.00  0.00    +0.000 A 
ATOM      2  N   UNL     1       1.397   7.937  21.235  0.00  0.00    +0.000 N 
ATOM      3  C   UNL     1       0.626   8.976  21.679  0.00  0.00    +0.000 A 
ATOM      4  C   UNL     1       0.090   9.230  22.948  0.00  0.00    +0.000 A 
ATOM      5  C   UNL     1      -0.690  10.386  23.098  0.00  0.00    +0.000 A 
ATOM      6  C   UNL     1      -0.938  11.245  22.026  0.00  0.00    +0.000 A 
ATOM      7  C   UNL     1      -0.398  10.960  20.769  0.00  0.00    +0.000 A 
ATOM      8  C   UNL     1       0.405   9.811  20.591  0.00  0.00    +0.000 A 
ATOM      9  C   UNL     1       1.087   9.243  19.461  0.00  0.00    +0.000 A 
ATOM     10  C   UNL     1       1.029   9.768  18.066  0.00  0.00    +0.000 C 
ATOM     11  H   UNL     1       1.705   7.152  21.797  0.00  0.00    +0.000 HD
ENDROOT
BRANCH   1  13
ATOM     12  N   UNL     1       3.140   6.176  20.065  0.00  0.00    +0.000 N 
ATOM     13  C   UNL     1       2.600   7.136  19.247  0.00  0.00    +0.000 C 
ATOM     14  O   UNL     1       2.769   7.145  18.032  0.00  0.00    +0.000 OA
ATOM     15  H   UNL     1       2.822   6.103  21.019  0.00  0.00    +0.000 HD
BRANCH  12  16
ATOM     16  C   UNL     1       3.954   5.075  19.582  0.00  0.00    +0.000 C 
BRANCH  16  21
ATOM     17  N   UNL     1       1.729   3.889  19.404  0.00  0.00    +0.000 NA
ATOM     18  C   UNL     1       1.436   3.436  18.033  0.00  0.00    +0.000 C 
ATOM     19  C   UNL     1       2.404   2.304  17.775  0.00  0.00    +0.000 C 
ATOM     20  C   UNL     1       3.678   2.804  18.423  0.00  0.00    +0.000 C 
ATOM     21  C   UNL     1       3.210   3.717  19.567  0.00  0.00    +0.000 C 
BRANCH  17  23
ATOM     22  C   UNL     1       1.863   2.749  21.650  0.00  0.00    +0.000 C 
ATOM     23  C   UNL     1       1.014   3.088  20.426  0.00  0.00    +0.000 C 
ENDBRANCH  17  23
ENDBRANCH  16  21
ENDBRANCH  12  16
ENDBRANCH   1  13
BRANCH   6  24
ATOM     24  O   UNL     1      -1.718  12.332  22.328  0.00  0.00    +0.000 OA
ATOM     25  C   UNL     1      -2.791  12.111  23.236  0.00  0.00    +0.000 C 
ENDBRANCH   6  24
TORSDOF 5
ENDMDL
MODEL 2
REMARK VINA RESULT:      -7.5      2.732      7.913
REMARK  Name = 
REMARK  8 active torsions:
REMARK  status: ('A' for Active; 'I' for Inactive)
REMARK    1  A    between atoms: C_1  and  C_2
REMARK    2  A    between atoms: C_2  and  N_3
REMARK    3  A    between atoms: C_7  and  C_8
REMARK    4  A    between atoms: C_8  and  N_9
REMARK    5  A    between atoms: C_10  and  C_12
REMARK    6  A    between atoms: C_17  and  O_18
REMARK    7  A    between atoms: O_18  and  C_19
REMARK    8  A    between atoms: C_22  and  C_23
REMARK                            x       y       z     vdW  Elec       q    Type
REMARK                         _______ _______ _______ _____ _____    ______ ____
ROOT
ATOM      1  C   UNL     1       3.034   6.447  19.440  0.00  0.00    +0.000 A 
ATOM      2  N   UNL     1       4.047   5.560  19.749  0.00  0.00    +0.000 N 
ATOM      3  C   UNL     1       4.937   5.443  18.716  0.00  0.00    +0.000 A 
ATOM      4  C   UNL     1       6.076   4.638  18.588  0.00  0.00    +0.000 A 
ATOM      5  C   UNL     1       6.813   4.750  17.400  0.00  0.00    +0.000 A 
ATOM      6  C   UNL     1       6.439   5.636  16.389  0.00  0.00    +0.000 A 
ATOM      7  C   UNL     1       5.303   6.434  16.549  0.00  0.00    +0.000 A 
ATOM      8  C   UNL     1       4.531   6.332  17.728  0.00  0.00    +0.000 A 
ATOM      9  C   UNL     1       3.344   6.992  18.197  0.00  0.00    +0.000 A 
ATOM     10  C   UNL     1       2.636   8.097  17.489  0.00  0.00    +0.000 C 
ATOM     11  H   UNL     1       4.093   5.053  20.625  0.00  0.00    +0.000 HD
ENDROOT
BRANCH   1  13
ATOM     12  N   UNL     1       1.799   7.997  20.760  0.00  0.00    +0.000 N 
ATOM     13  C   UNL     1       1.956   6.690  20.378  0.00  0.00    +0.000 C 
ATOM     14  O   UNL     1       1.202   5.794  20.746  0.00  0.00    +0.000 OA
ATOM     15  H   UNL     1       2.322   8.718  20.287  0.00  0.00    +0.000 HD
BRANCH  12  16
ATOM     16  C   UNL     1       0.728   8.457  21.626  0.00  0.00    +0.000 C 
BRANCH  16  21
ATOM     17  N   UNL     1       0.586  10.981  21.607  0.00  0.00    +0.000 NA
ATOM     18  C   UNL     1       1.285  11.579  20.456  0.00  0.00    +0.000 C 
ATOM     19  C   UNL     1       0.444  11.221  19.252  0.00  0.00    +0.000 C 
ATOM     20  C   UNL     1       0.029   9.795  19.552  0.00  0.00    +0.000 C 
ATOM     21  C   UNL     1      -0.010   9.707  21.086  0.00  0.00    +0.000 C 
BRANCH  17  23
ATOM     22  C   UNL     1      -1.457  11.151  23.076  0.00  0.00    +0.000 C 
ATOM     23  C   UNL     1      -0.485  11.860  22.134  0.00  0.00    +0.000 C 
ENDBRANCH  17  23
ENDBRANCH  16  21
ENDBRANCH  12  16
ENDBRANCH   1  13
BRANCH   6  24
ATOM     24  O   UNL     1       7.260   5.633  15.289  0.00  0.00    +0.000 OA
ATOM     25  C   UNL     1       6.896   4.757  14.228  0.00  0.00    +0.000 C 
ENDBRANCH   6  24
TORSDOF 5
ENDMDL
MODEL 3
REMARK VINA RESULT:      -7.4      0.855      1.796
REMARK  Name = 
REMARK  8 active torsions:
REMARK  status: ('A' for Active; 'I' for Inactive)
REMARK    1  A    between atoms: C_1  and  C_2
REMARK    2  A    between atoms: C_2  and  N_3
REMARK    3  A    between atoms: C_7  and  C_8
REMARK    4  A    between atoms: C_8  and  N_9
REMARK    5  A    between atoms: C_10  and  C_12
REMARK    6  A    between atoms: C_17  and  O_18
REMARK    7  A    between atoms: O_18  and  C_19
REMARK    8  A    between atoms: C_22  and  C_23
REMARK                            x       y       z     vdW  Elec       q    Type
REMARK                         _______ _______ _______ _____ _____    ______ ____
ROOT
ATOM      1  C   UNL     1       1.407   8.508  20.061  0.00  0.00    +0.000 A 
ATOM      2  N   UNL     1       0.904   8.267  21.324  0.00  0.00    +0.000 N 
ATOM      3  C   UNL     1       0.193   9.339  21.789  0.00  0.00    +0.000 A 
ATOM      4  C   UNL     1      -0.449   9.538  23.018  0.00  0.00    +0.000 A 
ATOM      5  C   UNL     1      -1.124  10.753  23.203  0.00  0.00    +0.000 A 
ATOM      6  C   UNL     1      -1.172  11.723  22.200  0.00  0.00    +0.000 A 
ATOM      7  C   UNL     1      -0.530  11.492  20.980  0.00  0.00    +0.000 A 
ATOM      8  C   UNL     1       0.173  10.285  20.771  0.00  0.00    +0.000 A 
ATOM      9  C   UNL     1       0.914   9.747  19.663  0.00  0.00    +0.000 A 
ATOM     10  C   UNL     1       1.057  10.395  18.327  0.00  0.00    +0.000 C 
ATOM     11  H   UNL     1       1.072   7.408  21.835  0.00  0.00    +0.000 HD
ENDROOT
BRANCH   1  13
ATOM     12  N   UNL     1       2.675   6.496  20.193  0.00  0.00    +0.000 N 
ATOM     13  C   UNL     1       2.231   7.518  19.394  0.00  0.00    +0.000 C 
ATOM     14  O   UNL     1       2.454   7.565  18.189  0.00  0.00    +0.000 OA
ATOM     15  H   UNL     1       2.310   6.405  21.129  0.00  0.00    +0.000 HD
BRANCH  12  16
ATOM     16  C   UNL     1       3.442   5.366  19.699  0.00  0.00    +0.000 C 
BRANCH  16  21
ATOM     17  N   UNL     1       3.393   2.866  20.069  0.00  0.00    +0.000 NA
ATOM     18  C   UNL     1       2.780   2.495  21.356  0.00  0.00    +0.000 C 
ATOM     19  C   UNL     1       1.309   2.806  21.199  0.00  0.00    +0.000 C 
ATOM     20  C   UNL     1       1.327   4.109  20.426  0.00  0.00    +0.000 C 
ATOM     21  C   UNL     1       2.618   4.059  19.593  0.00  0.00    +0.000 C 
BRANCH  17  23
ATOM     22  C   UNL     1       2.859   2.244  17.684  0.00  0.00    +0.000 C 
ATOM     23  C   UNL     1       3.304   1.776  19.069  0.00  0.00    +0.000 C 
ENDBRANCH  17  23
ENDBRANCH  16  21
ENDBRANCH  12  16
ENDBRANCH   1  13
BRANCH   6  24
ATOM     24  O   UNL     1      -1.871  12.856  22.529  0.00  0.00    +0.000 OA
ATOM     25  C   UNL     1      -3.085  12.668  23.247  0.00  0.00    +0.000 C 
ENDBRANCH   6  24
TORSDOF 5
ENDMDL
MODEL 4
REMARK VINA RESULT:      -7.4      2.403      3.590
REMARK  Name = 
REMARK  8 active torsions:
REMARK  status: ('A' for Active; 'I' for Inactive)
REMARK    1  A    between atoms: C_1  and  C_2
REMARK    2  A    between atoms: C_2  and  N_3
REMARK    3  A    between atoms: C_7  and  C_8
REMARK    4  A    between atoms: C_8  and  N_9
REMARK    5  A    between atoms: C_10  and  C_12
REMARK    6  A    between atoms: C_17  and  O_18
REMARK    7  A    between atoms: O_18  and  C_19
REMARK    8  A    between atoms: C_22  and  C_23
REMARK                            x       y       z     vdW  Elec       q    Type
REMARK                         _______ _______ _______ _____ _____    ______ ____
ROOT
ATOM      1  C   UNL     1       2.340   6.982  19.577  0.00  0.00    +0.000 A 
ATOM      2  N   UNL     1       1.790   7.009  20.844  0.00  0.00    +0.000 N 
ATOM      3  C   UNL     1       1.227   8.226  21.115  0.00  0.00    +0.000 A 
ATOM      4  C   UNL     1       0.600   8.696  22.276  0.00  0.00    +0.000 A 
ATOM      5  C   UNL     1       0.095  10.005  22.250  0.00  0.00    +0.000 A 
ATOM      6  C   UNL     1       0.196  10.805  21.111  0.00  0.00    +0.000 A 
ATOM      7  C   UNL     1       0.818  10.304  19.964  0.00  0.00    +0.000 A 
ATOM      8  C   UNL     1       1.351   8.996  19.965  0.00  0.00    +0.000 A 
ATOM      9  C   UNL     1       2.028   8.199  18.979  0.00  0.00    +0.000 A 
ATOM     10  C   UNL     1       2.278   8.607  17.567  0.00  0.00    +0.000 C 
ATOM     11  H   UNL     1       1.831   6.225  21.484  0.00  0.00    +0.000 HD
ENDROOT
BRANCH   1  13
ATOM     12  N   UNL     1       4.288   5.612  19.610  0.00  0.00    +0.000 N 
ATOM     13  C   UNL     1       3.030   5.800  19.099  0.00  0.00    +0.000 C 
ATOM     14  O   UNL     1       2.493   4.997  18.342  0.00  0.00    +0.000 OA
ATOM     15  H   UNL     1       4.608   6.197  20.367  0.00  0.00    +0.000 HD
BRANCH  12  16
ATOM     16  C   UNL     1       5.107   4.449  19.320  0.00  0.00    +0.000 C 
BRANCH  16  21
ATOM     17  N   UNL     1       5.824   5.156  17.001  0.00  0.00    +0.000 NA
ATOM     18  C   UNL     1       6.106   6.599  16.910  0.00  0.00    +0.000 C 
ATOM     19  C   UNL     1       7.381   6.804  17.696  0.00  0.00    +0.000 C 
ATOM     20  C   UNL     1       7.188   5.884  18.885  0.00  0.00    +0.000 C 
ATOM     21  C   UNL     1       6.291   4.749  18.367  0.00  0.00    +0.000 C 
BRANCH  17  23
ATOM     22  C   UNL     1       5.807   4.285  14.634  0.00  0.00    +0.000 C 
ATOM     23  C   UNL     1       6.546   4.375  15.969  0.00  0.00    +0.000 C 
ENDBRANCH  17  23
ENDBRANCH  16  21
ENDBRANCH  12  16
ENDBRANCH   1  13
BRANCH   6  24
ATOM     24  O   UNL     1      -0.346  12.059  21.239  0.00  0.00    +0.000 OA
ATOM     25  C   UNL     1      -1.587  12.284  20.580  0.00  0.00    +0.000 C 
ENDBRANCH   6  24
TORSDOF 5
ENDMDL
MODEL 5
REMARK VINA RESULT:      -7.2      2.724      8.186
REMARK  Name = 
REMARK  8 active torsions:
REMARK  status: ('A' for Active; 'I' for Inactive)
REMARK    1  A    between atoms: C_1  and  C_2
REMARK    2  A    between atoms: C_2  and  N_3
REMARK    3  A    between atoms: C_7  and  C_8
REMARK    4  A    between atoms: C_8  and  N_9
REMARK    5  A    between atoms: C_10  and  C_12
REMARK    6  A    between atoms: C_17  and  O_18
REMARK    7  A    between atoms: O_18  and  C_19
REMARK    8  A    between atoms: C_22  and  C_23
REMARK                            x       y       z     vdW  Elec       q    Type
REMARK                         _______ _______ _______ _____ _____    ______ ____
ROOT
ATOM      1  C   UNL     1       2.830   5.927  19.172  0.00  0.00    +0.000 A 
ATOM      2  N   UNL     1       3.422   6.812  18.293  0.00  0.00    +0.000 N 
ATOM      3  C   UNL     1       4.183   6.156  17.364  0.00  0.00    +0.000 A 
ATOM      4  C   UNL     1       4.975   6.657  16.324  0.00  0.00    +0.000 A 
ATOM      5  C   UNL     1       5.635   5.724  15.510  0.00  0.00    +0.000 A 
ATOM      6  C   UNL     1       5.497   4.350  15.714  0.00  0.00    +0.000 A 
ATOM      7  C   UNL     1       4.691   3.880  16.754  0.00  0.00    +0.000 A 
ATOM      8  C   UNL     1       4.028   4.795  17.601  0.00  0.00    +0.000 A 
ATOM      9  C   UNL     1       3.146   4.647  18.726  0.00  0.00    +0.000 A 
ATOM     10  C   UNL     1       2.634   3.350  19.253  0.00  0.00    +0.000 C 
ATOM     11  H   UNL     1       3.315   7.817  18.360  0.00  0.00    +0.000 HD
ENDROOT
BRANCH   1  13
ATOM     12  N   UNL     1       2.055   7.767  20.471  0.00  0.00    +0.000 N 
ATOM     13  C   UNL     1       2.013   6.412  20.267  0.00  0.00    +0.000 C 
ATOM     14  O   UNL     1       1.288   5.664  20.917  0.00  0.00    +0.000 OA
ATOM     15  H   UNL     1       2.518   8.355  19.795  0.00  0.00    +0.000 HD
BRANCH  12  16
ATOM     16  C   UNL     1       1.248   8.456  21.461  0.00  0.00    +0.000 C 
BRANCH  16  21
ATOM     17  N   UNL     1       0.756  10.935  21.449  0.00  0.00    +0.000 NA
ATOM     18  C   UNL     1       1.455  11.646  20.364  0.00  0.00    +0.000 C 
ATOM     19  C   UNL     1       0.774  11.197  19.092  0.00  0.00    +0.000 C 
ATOM     20  C   UNL     1       0.539   9.722  19.346  0.00  0.00    +0.000 C 
ATOM     21  C   UNL     1       0.388   9.601  20.871  0.00  0.00    +0.000 C 
BRANCH  17  23
ATOM     22  C   UNL     1      -1.199  10.958  23.042  0.00  0.00    +0.000 C 
ATOM     23  C   UNL     1      -0.467  11.646  21.891  0.00  0.00    +0.000 C 
ENDBRANCH  17  23
ENDBRANCH  16  21
ENDBRANCH  12  16
ENDBRANCH   1  13
BRANCH   6  24
ATOM     24  O   UNL     1       6.202   3.565  14.836  0.00  0.00    +0.000 OA
ATOM     25  C   UNL     1       6.094   3.900  13.457  0.00  0.00    +0.000 C 
ENDBRANCH   6  24
TORSDOF 5
ENDMDL
MODEL 6
REMARK VINA RESULT:      -7.2      2.812      8.140
REMARK  Name = 
REMARK  8 active torsions:
REMARK  status: ('A' for Active; 'I' for Inactive)
REMARK    1  A    between atoms: C_1  and  C_2
REMARK    2  A    between atoms: C_2  and  N_3
REMARK    3  A    between atoms: C_7  and  C_8
REMARK    4  A    between atoms: C_8  and  N_9
REMARK    5  A    between atoms: C_10  and  C_12
REMARK    6  A    between atoms: C_17  and  O_18
REMARK    7  A    between atoms: O_18  and  C_19
REMARK    8  A    between atoms: C_22  and  C_23
REMARK                            x       y       z     vdW  Elec       q    Type
REMARK                         _______ _______ _______ _____ _____    ______ ____
ROOT
ATOM      1  C   UNL     1       3.116   6.339  19.405  0.00  0.00    +0.000 A 
ATOM      2  N   UNL     1       4.173   5.515  19.737  0.00  0.00    +0.000 N 
ATOM      3  C   UNL     1       5.084   5.439  18.719  0.00  0.00    +0.000 A 
ATOM      4  C   UNL     1       6.268   4.701  18.615  0.00  0.00    +0.000 A 
ATOM      5  C   UNL     1       7.016   4.843  17.436  0.00  0.00    +0.000 A 
ATOM      6  C   UNL     1       6.607   5.698  16.411  0.00  0.00    +0.000 A 
ATOM      7  C   UNL     1       5.425   6.430  16.547  0.00  0.00    +0.000 A 
ATOM      8  C   UNL     1       4.643   6.295  17.716  0.00  0.00    +0.000 A 
ATOM      9  C   UNL     1       3.413   6.890  18.162  0.00  0.00    +0.000 A 
ATOM     10  C   UNL     1       2.654   7.946  17.432  0.00  0.00    +0.000 C 
ATOM     11  H   UNL     1       4.235   5.019  20.618  0.00  0.00    +0.000 HD
ENDROOT
BRANCH   1  13
ATOM     12  N   UNL     1       1.730   7.834  20.638  0.00  0.00    +0.000 N 
ATOM     13  C   UNL     1       2.012   6.528  20.325  0.00  0.00    +0.000 C 
ATOM     14  O   UNL     1       1.342   5.587  20.737  0.00  0.00    +0.000 OA
ATOM     15  H   UNL     1       2.188   8.574  20.129  0.00  0.00    +0.000 HD
BRANCH  12  16
ATOM     16  C   UNL     1       0.614   8.236  21.474  0.00  0.00    +0.000 C 
BRANCH  16  21
ATOM     17  N   UNL     1       0.274  10.639  20.767  0.00  0.00    +0.000 NA
ATOM     18  C   UNL     1      -1.059  11.152  21.127  0.00  0.00    +0.000 C 
ATOM     19  C   UNL     1      -1.041  11.281  22.633  0.00  0.00    +0.000 C 
ATOM     20  C   UNL     1      -0.287  10.038  23.062  0.00  0.00    +0.000 C 
ATOM     21  C   UNL     1       0.661   9.726  21.893  0.00  0.00    +0.000 C 
BRANCH  17  23
ATOM     22  C   UNL     1       0.807  12.891  19.765  0.00  0.00    +0.000 C 
ATOM     23  C   UNL     1       1.276  11.722  20.630  0.00  0.00    +0.000 C 
ENDBRANCH  17  23
ENDBRANCH  16  21
ENDBRANCH  12  16
ENDBRANCH   1  13
BRANCH   6  24
ATOM     24  O   UNL     1       7.443   5.731  15.323  0.00  0.00    +0.000 OA
ATOM     25  C   UNL     1       7.147   4.825  14.267  0.00  0.00    +0.000 C 
ENDBRANCH   6  24
TORSDOF 5
ENDMDL
MODEL 7
REMARK VINA RESULT:      -7.1      2.493      3.465
REMARK  Name = 
REMARK  8 active torsions:
REMARK  status: ('A' for Active; 'I' for Inactive)
REMARK    1  A    between atoms: C_1  and  C_2
REMARK    2  A    between atoms: C_2  and  N_3
REMARK    3  A    between atoms: C_7  and  C_8
REMARK    4  A    between atoms: C_8  and  N_9
REMARK    5  A    between atoms: C_10  and  C_12
REMARK    6  A    between atoms: C_17  and  O_18
REMARK    7  A    between atoms: O_18  and  C_19
REMARK    8  A    between atoms: C_22  and  C_23
REMARK                            x       y       z     vdW  Elec       q    Type
REMARK                         _______ _______ _______ _____ _____    ______ ____
ROOT
ATOM      1  C   UNL     1       2.136   7.372  19.808  0.00  0.00    +0.000 A 
ATOM      2  N   UNL     1       1.613   7.390  21.087  0.00  0.00    +0.000 N 
ATOM      3  C   UNL     1       0.966   8.569  21.342  0.00  0.00    +0.000 A 
ATOM      4  C   UNL     1       0.331   9.020  22.505  0.00  0.00    +0.000 A 
ATOM      5  C   UNL     1      -0.271  10.287  22.461  0.00  0.00    +0.000 A 
ATOM      6  C   UNL     1      -0.254  11.063  21.301  0.00  0.00    +0.000 A 
ATOM      7  C   UNL     1       0.379  10.581  20.152  0.00  0.00    +0.000 A 
ATOM      8  C   UNL     1       1.008   9.317  20.171  0.00  0.00    +0.000 A 
ATOM      9  C   UNL     1       1.721   8.547  19.189  0.00  0.00    +0.000 A 
ATOM     10  C   UNL     1       1.909   8.936  17.762  0.00  0.00    +0.000 C 
ATOM     11  H   UNL     1       1.726   6.628  21.744  0.00  0.00    +0.000 HD
ENDROOT
BRANCH   1  13
ATOM     12  N   UNL     1       2.868   6.023  17.987  0.00  0.00    +0.000 N 
ATOM     13  C   UNL     1       2.902   6.233  19.342  0.00  0.00    +0.000 C 
ATOM     14  O   UNL     1       3.581   5.551  20.104  0.00  0.00    +0.000 OA
ATOM     15  H   UNL     1       2.449   6.718  17.389  0.00  0.00    +0.000 HD
BRANCH  12  16
ATOM     16  C   UNL     1       3.632   4.986  17.316  0.00  0.00    +0.000 C 
BRANCH  16  21
ATOM     17  N   UNL     1       6.025   5.777  17.513  0.00  0.00    +0.000 NA
ATOM     18  C   UNL     1       7.000   4.708  17.233  0.00  0.00    +0.000 C 
ATOM     19  C   UNL     1       6.888   4.448  15.748  0.00  0.00    +0.000 C 
ATOM     20  C   UNL     1       5.396   4.543  15.507  0.00  0.00    +0.000 C 
ATOM     21  C   UNL     1       4.882   5.522  16.576  0.00  0.00    +0.000 C 
BRANCH  17  23
ATOM     22  C   UNL     1       7.890   7.398  18.016  0.00  0.00    +0.000 C 
ATOM     23  C   UNL     1       6.585   7.127  17.269  0.00  0.00    +0.000 C 
ENDBRANCH  17  23
ENDBRANCH  16  21
ENDBRANCH  12  16
ENDBRANCH   1  13
BRANCH   6  24
ATOM     24  O   UNL     1      -0.885  12.276  21.412  0.00  0.00    +0.000 OA
ATOM     25  C   UNL     1      -1.179  12.721  22.731  0.00  0.00    +0.000 C 
ENDBRANCH   6  24
TORSDOF 5
ENDMDL
MODEL 8
REMARK VINA RESULT:      -7.0      2.323      3.422
REMARK  Name = 
REMARK  8 active torsions:
REMARK  status: ('A' for Active; 'I' for Inactive)
REMARK    1  A    between atoms: C_1  and  C_2
REMARK    2  A    between atoms: C_2  and  N_3
REMARK    3  A    between atoms: C_7  and  C_8
REMARK    4  A    between atoms: C_8  and  N_9
REMARK    5  A    between atoms: C_10  and  C_12
REMARK    6  A    between atoms: C_17  and  O_18
REMARK    7  A    between atoms: O_18  and  C_19
REMARK    8  A    between atoms: C_22  and  C_23
REMARK                            x       y       z     vdW  Elec       q    Type
REMARK                         _______ _______ _______ _____ _____    ______ ____
ROOT
ATOM      1  C   UNL     1       1.909   7.719  19.706  0.00  0.00    +0.000 A 
ATOM      2  N   UNL     1       1.495   7.572  21.015  0.00  0.00    +0.000 N 
ATOM      3  C   UNL     1       0.845   8.691  21.459  0.00  0.00    +0.000 A 
ATOM      4  C   UNL     1       0.300   8.985  22.715  0.00  0.00    +0.000 A 
ATOM      5  C   UNL     1      -0.332  10.227  22.869  0.00  0.00    +0.000 A 
ATOM      6  C   UNL     1      -0.431  11.133  21.811  0.00  0.00    +0.000 A 
ATOM      7  C   UNL     1       0.113  10.808  20.566  0.00  0.00    +0.000 A 
ATOM      8  C   UNL     1       0.771   9.571  20.386  0.00  0.00    +0.000 A 
ATOM      9  C   UNL     1       1.416   8.944  19.265  0.00  0.00    +0.000 A 
ATOM     10  C   UNL     1       1.475   9.501  17.883  0.00  0.00    +0.000 C 
ATOM     11  H   UNL     1       1.681   6.743  21.567  0.00  0.00    +0.000 HD
ENDROOT
BRANCH   1  13
ATOM     12  N   UNL     1       3.873   6.375  19.614  0.00  0.00    +0.000 N 
ATOM     13  C   UNL     1       2.659   6.667  19.048  0.00  0.00    +0.000 C 
ATOM     14  O   UNL     1       2.202   6.044  18.095  0.00  0.00    +0.000 OA
ATOM     15  H   UNL     1       4.117   6.785  20.502  0.00  0.00    +0.000 HD
BRANCH  12  16
ATOM     16  C   UNL     1       4.736   5.301  19.154  0.00  0.00    +0.000 C 
BRANCH  16  21
ATOM     17  N   UNL     1       6.889   5.804  17.929  0.00  0.00    +0.000 NA
ATOM     18  C   UNL     1       7.508   4.597  17.353  0.00  0.00    +0.000 C 
ATOM     19  C   UNL     1       6.601   4.192  16.214  0.00  0.00    +0.000 C 
ATOM     20  C   UNL     1       5.220   4.445  16.785  0.00  0.00    +0.000 C 
ATOM     21  C   UNL     1       5.411   5.592  17.791  0.00  0.00    +0.000 C 
BRANCH  17  23
ATOM     22  C   UNL     1       8.060   8.032  18.082  0.00  0.00    +0.000 C 
ATOM     23  C   UNL     1       7.290   7.038  17.214  0.00  0.00    +0.000 C 
ENDBRANCH  17  23
ENDBRANCH  16  21
ENDBRANCH  12  16
ENDBRANCH   1  13
BRANCH   6  24
ATOM     24  O   UNL     1      -1.079  12.303  22.115  0.00  0.00    +0.000 OA
ATOM     25  C   UNL     1      -2.156  12.673  21.262  0.00  0.00    +0.000 C 
ENDBRANCH   6  24
TORSDOF 5
ENDMDL
MODEL 9
REMARK VINA RESULT:      -7.0      1.160      2.056
REMARK  Name = 
REMARK  8 active torsions:
REMARK  status: ('A' for Active; 'I' for Inactive)
REMARK    1  A    between atoms: C_1  and  C_2
REMARK    2  A    between atoms: C_2  and  N_3
REMARK    3  A    between atoms: C_7  and  C_8
REMARK    4  A    between atoms: C_8  and  N_9
REMARK    5  A    between atoms: C_10  and  C_12
REMARK    6  A    between atoms: C_17  and  O_18
REMARK    7  A    between atoms: O_18  and  C_19
REMARK    8  A    between atoms: C_22  and  C_23
REMARK                            x       y       z     vdW  Elec       q    Type
REMARK                         _______ _______ _______ _____ _____    ______ ____
ROOT
ATOM      1  C   UNL     1       1.679   8.195  20.083  0.00  0.00    +0.000 A 
ATOM      2  N   UNL     1       1.365   8.122  21.426  0.00  0.00    +0.000 N 
ATOM      3  C   UNL     1       0.533   9.142  21.799  0.00  0.00    +0.000 A 
ATOM      4  C   UNL     1       0.003   9.468  23.053  0.00  0.00    +0.000 A 
ATOM      5  C   UNL     1      -0.849  10.580  23.124  0.00  0.00    +0.000 A 
ATOM      6  C   UNL     1      -1.173  11.326  21.989  0.00  0.00    +0.000 A 
ATOM      7  C   UNL     1      -0.636  10.971  20.749  0.00  0.00    +0.000 A 
ATOM      8  C   UNL     1       0.238   9.866  20.649  0.00  0.00    +0.000 A 
ATOM      9  C   UNL     1       0.938   9.249  19.556  0.00  0.00    +0.000 A 
ATOM     10  C   UNL     1       0.821   9.648  18.124  0.00  0.00    +0.000 C 
ATOM     11  H   UNL     1       1.734   7.410  22.045  0.00  0.00    +0.000 HD
ENDROOT
BRANCH   1  13
ATOM     12  N   UNL     1       2.830   6.116  20.239  0.00  0.00    +0.000 N 
ATOM     13  C   UNL     1       2.585   7.235  19.485  0.00  0.00    +0.000 C 
ATOM     14  O   UNL     1       3.042   7.389  18.357  0.00  0.00    +0.000 OA
ATOM     15  H   UNL     1       2.286   5.952  21.072  0.00  0.00    +0.000 HD
BRANCH  12  16
ATOM     16  C   UNL     1       3.642   5.003  19.783  0.00  0.00    +0.000 C 
BRANCH  16  21
ATOM     17  N   UNL     1       4.183   3.475  17.843  0.00  0.00    +0.000 NA
ATOM     18  C   UNL     1       3.631   2.120  18.018  0.00  0.00    +0.000 C 
ATOM     19  C   UNL     1       2.136   2.279  17.868  0.00  0.00    +0.000 C 
ATOM     20  C   UNL     1       1.868   3.581  18.596  0.00  0.00    +0.000 C 
ATOM     21  C   UNL     1       3.162   4.396  18.442  0.00  0.00    +0.000 C 
BRANCH  17  23
ATOM     22  C   UNL     1       5.372   4.972  16.197  0.00  0.00    +0.000 C 
ATOM     23  C   UNL     1       4.395   3.817  16.417  0.00  0.00    +0.000 C 
ENDBRANCH  17  23
ENDBRANCH  16  21
ENDBRANCH  12  16
ENDBRANCH   1  13
BRANCH   6  24
ATOM     24  O   UNL     1      -2.019  12.381  22.217  0.00  0.00    +0.000 OA
ATOM     25  C   UNL     1      -2.913  12.253  23.316  0.00  0.00    +0.000 C 
ENDBRANCH   6  24
TORSDOF 5
ENDMDL
