MODEL 1
REMARK VINA RESULT:      -6.5      0.000      0.000
REMARK  Name = 
REMARK  5 active torsions:
REMARK  status: ('A' for Active; 'I' for Inactive)
REMARK    1  A    between atoms: C_1  and  N_2
REMARK    2  A    between atoms: N_2  and  C_3
REMARK    3  A    between atoms: C_3  and  C_4
REMARK    4  A    between atoms: C_4  and  O_6
REMARK    5  A    between atoms: C_11  and  N_12
REMARK                            x       y       z     vdW  Elec       q    Type
REMARK                         _______ _______ _______ _____ _____    ______ ____
ROOT
ATOM      1  C   UNL     1       1.004   2.038  18.929  0.00  0.00    +0.000 C 
ATOM      2  N   UNL     1       1.507   3.333  19.369  0.00  0.00    +0.000 N 
ATOM      3  C   UNL     1       2.535   3.924  18.697  0.00  0.00    +0.000 A 
ATOM      4  N   UNL     1       3.443   4.681  19.279  0.00  0.00    +0.000 NA
ATOM      5  C   UNL     1       4.399   5.098  18.352  0.00  0.00    +0.000 A 
ATOM      6  C   UNL     1       5.525   5.907  18.617  0.00  0.00    +0.000 A 
ATOM      7  C   UNL     1       6.430   6.178  17.574  0.00  0.00    +0.000 A 
ATOM      8  C   UNL     1       6.222   5.683  16.282  0.00  0.00    +0.000 A 
ATOM      9  C   UNL     1       5.097   4.910  16.003  0.00  0.00    +0.000 A 
ATOM     10  C   UNL     1       4.206   4.630  17.052  0.00  0.00    +0.000 A 
ATOM     11  S   UNL     1       2.771   3.703  17.000  0.00  0.00    +0.000 S 
ENDROOT
BRANCH   7  12
ATOM     12  N   UNL     1       7.626   6.985  17.845  0.00  0.00    +0.000 N 
ATOM     13  O   UNL     1       8.268   6.733  18.873  0.00  0.00    +0.000 OA
ATOM     14  O   UNL     1       7.923   7.867  17.026  0.00  0.00    +0.000 OA
ENDBRANCH   7  12
BRANCH   2  15
ATOM     15  C   UNL     1       1.157   3.761  20.731  0.00  0.00    +0.000 C 
BRANCH  15  16
ATOM     16  C   UNL     1       1.651   2.789  21.799  0.00  0.00    +0.000 C 
ATOM     17  O   UNL     1       0.923   2.228  22.606  0.00  0.00    +0.000 OA
BRANCH  16  18
ATOM     18  O   UNL     1       2.995   2.611  21.782  0.00  0.00    +0.000 OA
ATOM     19  H   UNL     1       3.448   3.422  21.451  0.00  0.00    +0.000 HD
ENDBRANCH  16  18
ENDBRANCH  15  16
ENDBRANCH   2  15
TORSDOF 4
ENDMDL
MODEL 2
REMARK VINA RESULT:      -6.4      2.790      3.336
REMARK  Name = 
REMARK  5 active torsions:
REMARK  status: ('A' for Active; 'I' for Inactive)
REMARK    1  A    between atoms: C_1  and  N_2
REMARK    2  A    between atoms: N_2  and  C_3
REMARK    3  A    between atoms: C_3  and  C_4
REMARK    4  A    between atoms: C_4  and  O_6
REMARK    5  A    between atoms: C_11  and  N_12
REMARK                            x       y       z     vdW  Elec       q    Type
REMARK                         _______ _______ _______ _____ _____    ______ ____
ROOT
ATOM      1  C   UNL     1       2.466   5.392  20.619  0.00  0.00    +0.000 C 
ATOM      2  N   UNL     1       2.495   4.579  19.408  0.00  0.00    +0.000 N 
ATOM      3  C   UNL     1       3.610   4.569  18.626  0.00  0.00    +0.000 A 
ATOM      4  N   UNL     1       3.578   4.434  17.316  0.00  0.00    +0.000 NA
ATOM      5  C   UNL     1       4.864   4.518  16.783  0.00  0.00    +0.000 A 
ATOM      6  C   UNL     1       5.212   4.433  15.418  0.00  0.00    +0.000 A 
ATOM      7  C   UNL     1       6.558   4.607  15.045  0.00  0.00    +0.000 A 
ATOM      8  C   UNL     1       7.554   4.838  15.999  0.00  0.00    +0.000 A 
ATOM      9  C   UNL     1       7.225   4.892  17.353  0.00  0.00    +0.000 A 
ATOM     10  C   UNL     1       5.878   4.733  17.717  0.00  0.00    +0.000 A 
ATOM     11  S   UNL     1       5.196   4.772  19.283  0.00  0.00    +0.000 S 
ENDROOT
BRANCH   7  12
ATOM     12  N   UNL     1       6.927   4.560  13.625  0.00  0.00    +0.000 N 
ATOM     13  O   UNL     1       6.414   3.677  12.926  0.00  0.00    +0.000 OA
ATOM     14  O   UNL     1       7.728   5.410  13.210  0.00  0.00    +0.000 OA
ENDBRANCH   7  12
BRANCH   2  15
ATOM     15  C   UNL     1       1.203   4.119  18.879  0.00  0.00    +0.000 C 
BRANCH  15  16
ATOM     16  C   UNL     1       0.976   2.625  19.096  0.00  0.00    +0.000 C 
ATOM     17  O   UNL     1       0.250   1.933  18.396  0.00  0.00    +0.000 OA
BRANCH  16  18
ATOM     18  O   UNL     1       1.652   2.130  20.162  0.00  0.00    +0.000 OA
ATOM     19  H   UNL     1       1.037   1.669  20.779  0.00  0.00    +0.000 HD
ENDBRANCH  16  18
ENDBRANCH  15  16
ENDBRANCH   2  15
TORSDOF 4
ENDMDL
MODEL 3
REMARK VINA RESULT:      -6.3      5.045      6.736
REMARK  Name = 
REMARK  5 active torsions:
REMARK  status: ('A' for Active; 'I' for Inactive)
REMARK    1  A    between atoms: C_1  and  N_2
REMARK    2  A    between atoms: N_2  and  C_3
REMARK    3  A    between atoms: C_3  and  C_4
REMARK    4  A    between atoms: C_4  and  O_6
REMARK    5  A    between atoms: C_11  and  N_12
REMARK                            x       y       z     vdW  Elec       q    Type
REMARK                         _______ _______ _______ _____ _____    ______ ____
ROOT
ATOM      1  C   UNL     1       4.453   6.551  17.047  0.00  0.00    +0.000 C 
ATOM      2  N   UNL     1       3.538   6.166  18.115  0.00  0.00    +0.000 N 
ATOM      3  C   UNL     1       2.722   7.101  18.676  0.00  0.00    +0.000 A 
ATOM      4  N   UNL     1       2.357   7.080  19.942  0.00  0.00    +0.000 NA
ATOM      5  C   UNL     1       1.569   8.192  20.243  0.00  0.00    +0.000 A 
ATOM      6  C   UNL     1       1.012   8.508  21.501  0.00  0.00    +0.000 A 
ATOM      7  C   UNL     1       0.296   9.710  21.646  0.00  0.00    +0.000 A 
ATOM      8  C   UNL     1       0.106  10.581  20.568  0.00  0.00    +0.000 A 
ATOM      9  C   UNL     1       0.626  10.262  19.314  0.00  0.00    +0.000 A 
ATOM     10  C   UNL     1       1.353   9.068  19.179  0.00  0.00    +0.000 A 
ATOM     11  S   UNL     1       2.108   8.444  17.779  0.00  0.00    +0.000 S 
ENDROOT
BRANCH   7  12
ATOM     12  N   UNL     1      -0.256  10.070  22.958  0.00  0.00    +0.000 N 
ATOM     13  O   UNL     1      -1.268  10.782  22.982  0.00  0.00    +0.000 OA
ATOM     14  O   UNL     1       0.324   9.636  23.964  0.00  0.00    +0.000 OA
ENDBRANCH   7  12
BRANCH   2  15
ATOM     15  C   UNL     1       3.806   4.895  18.802  0.00  0.00    +0.000 C 
BRANCH  15  16
ATOM     16  C   UNL     1       5.293   4.669  19.063  0.00  0.00    +0.000 C 
ATOM     17  O   UNL     1       6.006   5.443  19.687  0.00  0.00    +0.000 OA
BRANCH  16  18
ATOM     18  O   UNL     1       5.765   3.520  18.519  0.00  0.00    +0.000 OA
ATOM     19  H   UNL     1       6.225   3.702  17.667  0.00  0.00    +0.000 HD
ENDBRANCH  16  18
ENDBRANCH  15  16
ENDBRANCH   2  15
TORSDOF 4
ENDMDL
MODEL 4
REMARK VINA RESULT:      -6.2      2.563      3.024
REMARK  Name = 
REMARK  5 active torsions:
REMARK  status: ('A' for Active; 'I' for Inactive)
REMARK    1  A    between atoms: C_1  and  N_2
REMARK    2  A    between atoms: N_2  and  C_3
REMARK    3  A    between atoms: C_3  and  C_4
REMARK    4  A    between atoms: C_4  and  O_6
REMARK    5  A    between atoms: C_11  and  N_12
REMARK                            x       y       z     vdW  Elec       q    Type
REMARK                         _______ _______ _______ _____ _____    ______ ____
ROOT
ATOM      1  C   UNL     1       1.091   4.951  20.548  0.00  0.00    +0.000 C 
ATOM      2  N   UNL     1       2.145   4.084  20.035  0.00  0.00    +0.000 N 
ATOM      3  C   UNL     1       3.070   4.582  19.168  0.00  0.00    +0.000 A 
ATOM      4  N   UNL     1       3.624   3.869  18.208  0.00  0.00    +0.000 NA
ATOM      5  C   UNL     1       4.487   4.659  17.448  0.00  0.00    +0.000 A 
ATOM      6  C   UNL     1       5.241   4.239  16.331  0.00  0.00    +0.000 A 
ATOM      7  C   UNL     1       6.013   5.188  15.635  0.00  0.00    +0.000 A 
ATOM      8  C   UNL     1       6.066   6.525  16.041  0.00  0.00    +0.000 A 
ATOM      9  C   UNL     1       5.350   6.942  17.162  0.00  0.00    +0.000 A 
ATOM     10  C   UNL     1       4.568   5.994  17.843  0.00  0.00    +0.000 A 
ATOM     11  S   UNL     1       3.586   6.230  19.221  0.00  0.00    +0.000 S 
ENDROOT
BRANCH   7  12
ATOM     12  N   UNL     1       6.771   4.773  14.448  0.00  0.00    +0.000 N 
ATOM     13  O   UNL     1       7.782   5.424  14.154  0.00  0.00    +0.000 OA
ATOM     14  O   UNL     1       6.356   3.792  13.814  0.00  0.00    +0.000 OA
ENDBRANCH   7  12
BRANCH   2  15
ATOM     15  C   UNL     1       1.940   2.633  20.162  0.00  0.00    +0.000 C 
BRANCH  15  16
ATOM     16  C   UNL     1       1.390   2.002  18.886  0.00  0.00    +0.000 C 
ATOM     17  O   UNL     1       0.218   2.063  18.540  0.00  0.00    +0.000 OA
BRANCH  16  18
ATOM     18  O   UNL     1       2.331   1.344  18.164  0.00  0.00    +0.000 OA
ATOM     19  H   UNL     1       3.122   1.151  18.720  0.00  0.00    +0.000 HD
ENDBRANCH  16  18
ENDBRANCH  15  16
ENDBRANCH   2  15
TORSDOF 4
ENDMDL
MODEL 5
REMARK VINA RESULT:      -6.2      3.116      3.736
REMARK  Name = 
REMARK  5 active torsions:
REMARK  status: ('A' for Active; 'I' for Inactive)
REMARK    1  A    between atoms: C_1  and  N_2
REMARK    2  A    between atoms: N_2  and  C_3
REMARK    3  A    between atoms: C_3  and  C_4
REMARK    4  A    between atoms: C_4  and  O_6
REMARK    5  A    between atoms: C_11  and  N_12
REMARK                            x       y       z     vdW  Elec       q    Type
REMARK                         _______ _______ _______ _____ _____    ______ ____
ROOT
ATOM      1  C   UNL     1       2.705   5.757  19.977  0.00  0.00    +0.000 C 
ATOM      2  N   UNL     1       2.783   4.670  19.008  0.00  0.00    +0.000 N 
ATOM      3  C   UNL     1       3.795   4.647  18.097  0.00  0.00    +0.000 A 
ATOM      4  N   UNL     1       3.664   4.166  16.877  0.00  0.00    +0.000 NA
ATOM      5  C   UNL     1       4.848   4.328  16.157  0.00  0.00    +0.000 A 
ATOM      6  C   UNL     1       5.072   3.946  14.817  0.00  0.00    +0.000 A 
ATOM      7  C   UNL     1       6.311   4.246  14.221  0.00  0.00    +0.000 A 
ATOM      8  C   UNL     1       7.326   4.891  14.934  0.00  0.00    +0.000 A 
ATOM      9  C   UNL     1       7.126   5.244  16.268  0.00  0.00    +0.000 A 
ATOM     10  C   UNL     1       5.882   4.956  16.852  0.00  0.00    +0.000 A 
ATOM     11  S   UNL     1       5.361   5.289  18.446  0.00  0.00    +0.000 S 
ENDROOT
BRANCH   7  12
ATOM     12  N   UNL     1       6.543   3.890  12.815  0.00  0.00    +0.000 N 
ATOM     13  O   UNL     1       7.425   4.506  12.204  0.00  0.00    +0.000 OA
ATOM     14  O   UNL     1       5.844   2.990  12.327  0.00  0.00    +0.000 OA
ENDBRANCH   7  12
BRANCH   2  15
ATOM     15  C   UNL     1       1.568   3.869  18.800  0.00  0.00    +0.000 C 
BRANCH  15  16
ATOM     16  C   UNL     1       1.584   2.561  19.586  0.00  0.00    +0.000 C 
ATOM     17  O   UNL     1       1.342   2.476  20.782  0.00  0.00    +0.000 OA
BRANCH  16  18
ATOM     18  O   UNL     1       1.910   1.484  18.829  0.00  0.00    +0.000 OA
ATOM     19  H   UNL     1       1.857   1.706  17.870  0.00  0.00    +0.000 HD
ENDBRANCH  16  18
ENDBRANCH  15  16
ENDBRANCH   2  15
TORSDOF 4
ENDMDL
MODEL 6
REMARK VINA RESULT:      -6.1      2.279      2.762
REMARK  Name = 
REMARK  5 active torsions:
REMARK  status: ('A' for Active; 'I' for Inactive)
REMARK    1  A    between atoms: C_1  and  N_2
REMARK    2  A    between atoms: N_2  and  C_3
REMARK    3  A    between atoms: C_3  and  C_4
REMARK    4  A    between atoms: C_4  and  O_6
REMARK    5  A    between atoms: C_11  and  N_12
REMARK                            x       y       z     vdW  Elec       q    Type
REMARK                         _______ _______ _______ _____ _____    ______ ____
ROOT
ATOM      1  C   UNL     1       0.695   4.885  20.216  0.00  0.00    +0.000 C 
ATOM      2  N   UNL     1       1.861   4.097  19.833  0.00  0.00    +0.000 N 
ATOM      3  C   UNL     1       2.750   4.599  18.931  0.00  0.00    +0.000 A 
ATOM      4  N   UNL     1       3.418   3.851  18.076  0.00  0.00    +0.000 NA
ATOM      5  C   UNL     1       4.208   4.645  17.244  0.00  0.00    +0.000 A 
ATOM      6  C   UNL     1       5.044   4.192  16.202  0.00  0.00    +0.000 A 
ATOM      7  C   UNL     1       5.723   5.139  15.412  0.00  0.00    +0.000 A 
ATOM      8  C   UNL     1       5.603   6.511  15.655  0.00  0.00    +0.000 A 
ATOM      9  C   UNL     1       4.804   6.967  16.702  0.00  0.00    +0.000 A 
ATOM     10  C   UNL     1       4.117   6.018  17.477  0.00  0.00    +0.000 A 
ATOM     11  S   UNL     1       3.066   6.292  18.796  0.00  0.00    +0.000 S 
ENDROOT
BRANCH   7  12
ATOM     12  N   UNL     1       6.565   4.683  14.299  0.00  0.00    +0.000 N 
ATOM     13  O   UNL     1       6.171   3.712  13.640  0.00  0.00    +0.000 OA
ATOM     14  O   UNL     1       7.618   5.301  14.084  0.00  0.00    +0.000 OA
ENDBRANCH   7  12
BRANCH   2  15
ATOM     15  C   UNL     1       1.825   2.658  20.129  0.00  0.00    +0.000 C 
BRANCH  15  16
ATOM     16  C   UNL     1       2.357   2.330  21.522  0.00  0.00    +0.000 C 
ATOM     17  O   UNL     1       3.532   2.102  21.771  0.00  0.00    +0.000 OA
BRANCH  16  18
ATOM     18  O   UNL     1       1.390   2.298  22.471  0.00  0.00    +0.000 OA
ATOM     19  H   UNL     1       1.708   2.717  23.305  0.00  0.00    +0.000 HD
ENDBRANCH  16  18
ENDBRANCH  15  16
ENDBRANCH   2  15
TORSDOF 4
ENDMDL
MODEL 7
REMARK VINA RESULT:      -6.1      3.415      4.120
REMARK  Name = 
REMARK  5 active torsions:
REMARK  status: ('A' for Active; 'I' for Inactive)
REMARK    1  A    between atoms: C_1  and  N_2
REMARK    2  A    between atoms: N_2  and  C_3
REMARK    3  A    between atoms: C_3  and  C_4
REMARK    4  A    between atoms: C_4  and  O_6
REMARK    5  A    between atoms: C_11  and  N_12
REMARK                            x       y       z     vdW  Elec       q    Type
REMARK                         _______ _______ _______ _____ _____    ______ ____
ROOT
ATOM      1  C   UNL     1       3.218   4.835  20.085  0.00  0.00    +0.000 C 
ATOM      2  N   UNL     1       3.520   3.780  19.124  0.00  0.00    +0.000 N 
ATOM      3  C   UNL     1       4.398   4.020  18.111  0.00  0.00    +0.000 A 
ATOM      4  N   UNL     1       4.296   3.471  16.917  0.00  0.00    +0.000 NA
ATOM      5  C   UNL     1       5.300   3.946  16.073  0.00  0.00    +0.000 A 
ATOM      6  C   UNL     1       5.494   3.591  14.720  0.00  0.00    +0.000 A 
ATOM      7  C   UNL     1       6.521   4.220  13.992  0.00  0.00    +0.000 A 
ATOM      8  C   UNL     1       7.362   5.166  14.586  0.00  0.00    +0.000 A 
ATOM      9  C   UNL     1       7.199   5.499  15.929  0.00  0.00    +0.000 A 
ATOM     10  C   UNL     1       6.162   4.880  16.647  0.00  0.00    +0.000 A 
ATOM     11  S   UNL     1       5.726   5.110  18.283  0.00  0.00    +0.000 S 
ENDROOT
BRANCH   7  12
ATOM     12  N   UNL     1       6.708   3.889  12.573  0.00  0.00    +0.000 N 
ATOM     13  O   UNL     1       7.490   4.590  11.918  0.00  0.00    +0.000 OA
ATOM     14  O   UNL     1       6.075   2.925  12.119  0.00  0.00    +0.000 OA
ENDBRANCH   7  12
BRANCH   2  15
ATOM     15  C   UNL     1       2.586   2.647  19.056  0.00  0.00    +0.000 C 
BRANCH  15  16
ATOM     16  C   UNL     1       1.245   3.027  18.434  0.00  0.00    +0.000 C 
ATOM     17  O   UNL     1       1.105   3.889  17.578  0.00  0.00    +0.000 OA
BRANCH  16  18
ATOM     18  O   UNL     1       0.202   2.320  18.936  0.00  0.00    +0.000 OA
ATOM     19  H   UNL     1       0.234   1.385  18.625  0.00  0.00    +0.000 HD
ENDBRANCH  16  18
ENDBRANCH  15  16
ENDBRANCH   2  15
TORSDOF 4
ENDMDL
MODEL 8
REMARK VINA RESULT:      -6.0      4.435      5.038
REMARK  Name = 
REMARK  5 active torsions:
REMARK  status: ('A' for Active; 'I' for Inactive)
REMARK    1  A    between atoms: C_1  and  N_2
REMARK    2  A    between atoms: N_2  and  C_3
REMARK    3  A    between atoms: C_3  and  C_4
REMARK    4  A    between atoms: C_4  and  O_6
REMARK    5  A    between atoms: C_11  and  N_12
REMARK                            x       y       z     vdW  Elec       q    Type
REMARK                         _______ _______ _______ _____ _____    ______ ____
ROOT
ATOM      1  C   UNL     1       1.451   8.327  20.629  0.00  0.00    +0.000 C 
ATOM      2  N   UNL     1       1.765   8.423  19.208  0.00  0.00    +0.000 N 
ATOM      3  C   UNL     1       2.512   7.452  18.613  0.00  0.00    +0.000 A 
ATOM      4  N   UNL     1       3.347   7.683  17.621  0.00  0.00    +0.000 NA
ATOM      5  C   UNL     1       4.011   6.511  17.256  0.00  0.00    +0.000 A 
ATOM      6  C   UNL     1       4.986   6.381  16.245  0.00  0.00    +0.000 A 
ATOM      7  C   UNL     1       5.607   5.133  16.053  0.00  0.00    +0.000 A 
ATOM      8  C   UNL     1       5.261   4.020  16.826  0.00  0.00    +0.000 A 
ATOM      9  C   UNL     1       4.276   4.131  17.806  0.00  0.00    +0.000 A 
ATOM     10  C   UNL     1       3.671   5.383  18.003  0.00  0.00    +0.000 A 
ATOM     11  S   UNL     1       2.462   5.805  19.134  0.00  0.00    +0.000 S 
ENDROOT
BRANCH   7  12
ATOM     12  N   UNL     1       6.651   4.994  15.030  0.00  0.00    +0.000 N 
ATOM     13  O   UNL     1       6.462   4.174  14.123  0.00  0.00    +0.000 OA
ATOM     14  O   UNL     1       7.658   5.709  15.135  0.00  0.00    +0.000 OA
ENDBRANCH   7  12
BRANCH   2  15
ATOM     15  C   UNL     1       1.601   9.738  18.573  0.00  0.00    +0.000 C 
BRANCH  15  16
ATOM     16  C   UNL     1       0.145  10.192  18.526  0.00  0.00    +0.000 C 
ATOM     17  O   UNL     1      -0.413  10.803  19.427  0.00  0.00    +0.000 OA
BRANCH  16  18
ATOM     18  O   UNL     1      -0.490   9.839  17.381  0.00  0.00    +0.000 OA
ATOM     19  H   UNL     1      -1.383  10.252  17.338  0.00  0.00    +0.000 HD
ENDBRANCH  16  18
ENDBRANCH  15  16
ENDBRANCH   2  15
TORSDOF 4
ENDMDL
MODEL 9
REMARK VINA RESULT:      -6.0      2.594      3.091
REMARK  Name = 
REMARK  5 active torsions:
REMARK  status: ('A' for Active; 'I' for Inactive)
REMARK    1  A    between atoms: C_1  and  N_2
REMARK    2  A    between atoms: N_2  and  C_3
REMARK    3  A    between atoms: C_3  and  C_4
REMARK    4  A    between atoms: C_4  and  O_6
REMARK    5  A    between atoms: C_11  and  N_12
REMARK                            x       y       z     vdW  Elec       q    Type
REMARK                         _______ _______ _______ _____ _____    ______ ____
ROOT
ATOM      1  C   UNL     1       1.201   4.064  20.162  0.00  0.00    +0.000 C 
ATOM      2  N   UNL     1       2.463   3.477  19.729  0.00  0.00    +0.000 N 
ATOM      3  C   UNL     1       3.222   4.116  18.796  0.00  0.00    +0.000 A 
ATOM      4  N   UNL     1       3.968   3.487  17.911  0.00  0.00    +0.000 NA
ATOM      5  C   UNL     1       4.584   4.399  17.053  0.00  0.00    +0.000 A 
ATOM      6  C   UNL     1       5.442   4.087  15.976  0.00  0.00    +0.000 A 
ATOM      7  C   UNL     1       5.925   5.132  15.166  0.00  0.00    +0.000 A 
ATOM      8  C   UNL     1       5.593   6.466  15.422  0.00  0.00    +0.000 A 
ATOM      9  C   UNL     1       4.773   6.786  16.503  0.00  0.00    +0.000 A 
ATOM     10  C   UNL     1       4.280   5.738  17.298  0.00  0.00    +0.000 A 
ATOM     11  S   UNL     1       3.252   5.838  18.659  0.00  0.00    +0.000 S 
ENDROOT
BRANCH   7  12
ATOM     12  N   UNL     1       6.786   4.818  14.019  0.00  0.00    +0.000 N 
ATOM     13  O   UNL     1       7.835   5.463  13.894  0.00  0.00    +0.000 OA
ATOM     14  O   UNL     1       6.412   3.924  13.247  0.00  0.00    +0.000 OA
ENDBRANCH   7  12
BRANCH   2  15
ATOM     15  C   UNL     1       2.673   2.051  20.018  0.00  0.00    +0.000 C 
BRANCH  15  16
ATOM     16  C   UNL     1       4.150   1.667  20.047  0.00  0.00    +0.000 C 
ATOM     17  O   UNL     1       4.931   2.008  20.925  0.00  0.00    +0.000 OA
BRANCH  16  18
ATOM     18  O   UNL     1       4.529   0.914  18.985  0.00  0.00    +0.000 OA
ATOM     19  H   UNL     1       4.548  -0.041  19.226  0.00  0.00    +0.000 HD
ENDBRANCH  16  18
ENDBRANCH  15  16
ENDBRANCH   2  15
TORSDOF 4
ENDMDL
