MODEL 1
REMARK VINA RESULT:      -8.8      0.000      0.000
REMARK  Name = 
REMARK  8 active torsions:
REMARK  status: ('A' for Active; 'I' for Inactive)
REMARK    1  A    between atoms: C_1  and  C_2
REMARK    2  A    between atoms: C_2  and  C_3
REMARK    3  A    between atoms: C_5  and  O_6
REMARK    4  A    between atoms: O_6  and  C_7
REMARK    5  A    between atoms: C_7  and  C_8
REMARK    6  A    between atoms: C_8  and  N_9
REMARK    7  A    between atoms: C_23  and  O_24
REMARK    8  A    between atoms: C_25  and  C_26
REMARK                            x       y       z     vdW  Elec       q    Type
REMARK                         _______ _______ _______ _____ _____    ______ ____
ROOT
ATOM      1  C   UNL     1       5.289   5.840  15.962  0.00  0.00    +0.000 C 
ATOM      2  C   UNL     1       4.831   5.938  17.415  0.00  0.00    +0.000 C 
ATOM      3  C   UNL     1       6.082   6.133  18.307  0.00  0.00    +0.000 C 
ATOM      4  C   UNL     1       3.945   7.175  17.650  0.00  0.00    +0.000 C 
ATOM      5  C   UNL     1       2.559   6.665  18.017  0.00  0.00    +0.000 C 
ATOM      6  C   UNL     1       2.843   5.314  18.735  0.00  0.00    +0.000 C 
ATOM      7  C   UNL     1       2.948   5.343  20.286  0.00  0.00    +0.000 C 
ATOM      8  C   UNL     1       2.746   3.964  21.034  0.00  0.00    +0.000 C 
ATOM      9  C   UNL     1       1.810   2.872  20.316  0.00  0.00    +0.000 C 
ATOM     10  C   UNL     1       2.261   2.879  18.842  0.00  0.00    +0.000 C 
ATOM     11  C   UNL     1       3.652   2.078  19.091  0.00  0.00    +0.000 C 
ATOM     12  C   UNL     1       2.244   2.560  17.352  0.00  0.00    +0.000 C 
ATOM     13  C   UNL     1       3.425   3.609  16.775  0.00  0.00    +0.000 C 
ATOM     14  C   UNL     1       3.998   4.704  17.886  0.00  0.00    +0.000 C 
ATOM     15  C   UNL     1       1.729   4.369  18.521  0.00  0.00    +0.000 C 
ENDROOT
BRANCH   9  16
ATOM     16  O   UNL     1       0.434   3.146  20.545  0.00  0.00    +0.000 OA
ATOM     17  H   UNL     1      -0.095   2.488  20.060  0.00  0.00    +0.000 HD
ENDBRANCH   9  16
BRANCH   5  18
ATOM     18  O   UNL     1       1.803   7.643  18.752  0.00  0.00    +0.000 OA
BRANCH  18  19
ATOM     19  C   UNL     1       1.504   8.786  17.922  0.00  0.00    +0.000 C 
BRANCH  19  20
ATOM     20  C   UNL     1       1.817  10.139  18.572  0.00  0.00    +0.000 C 
BRANCH  20  21
ATOM     21  N   UNL     1       0.779  10.511  19.538  0.00  0.00    +0.000 N 
ATOM     22  C   UNL     1      -0.172  11.451  19.307  0.00  0.00    +0.000 C 
ATOM     23  O   UNL     1      -0.397  12.101  18.310  0.00  0.00    +0.000 OA
ATOM     24  C   UNL     1      -0.933  11.604  20.564  0.00  0.00    +0.000 A 
ATOM     25  C   UNL     1      -2.027  12.395  20.866  0.00  0.00    +0.000 A 
ATOM     26  C   UNL     1      -2.512  12.336  22.178  0.00  0.00    +0.000 A 
ATOM     27  C   UNL     1      -1.900  11.504  23.138  0.00  0.00    +0.000 A 
ATOM     28  C   UNL     1      -0.796  10.715  22.804  0.00  0.00    +0.000 A 
ATOM     29  C   UNL     1      -0.341  10.786  21.505  0.00  0.00    +0.000 A 
ATOM     30  C   UNL     1       0.790  10.110  20.852  0.00  0.00    +0.000 C 
ATOM     31  O   UNL     1       1.563   9.373  21.428  0.00  0.00    +0.000 OA
ENDBRANCH  20  21
ENDBRANCH  19  20
ENDBRANCH  18  19
ENDBRANCH   5  18
TORSDOF 5
ENDMDL
MODEL 2
REMARK VINA RESULT:      -8.5      1.421      1.834
REMARK  Name = 
REMARK  8 active torsions:
REMARK  status: ('A' for Active; 'I' for Inactive)
REMARK    1  A    between atoms: C_1  and  C_2
REMARK    2  A    between atoms: C_2  and  C_3
REMARK    3  A    between atoms: C_5  and  O_6
REMARK    4  A    between atoms: O_6  and  C_7
REMARK    5  A    between atoms: C_7  and  C_8
REMARK    6  A    between atoms: C_8  and  N_9
REMARK    7  A    between atoms: C_23  and  O_24
REMARK    8  A    between atoms: C_25  and  C_26
REMARK                            x       y       z     vdW  Elec       q    Type
REMARK                         _______ _______ _______ _____ _____    ______ ____
ROOT
ATOM      1  C   UNL     1       5.761   5.511  16.319  0.00  0.00    +0.000 C 
ATOM      2  C   UNL     1       5.118   5.675  17.693  0.00  0.00    +0.000 C 
ATOM      3  C   UNL     1       6.245   5.868  18.738  0.00  0.00    +0.000 C 
ATOM      4  C   UNL     1       4.249   6.945  17.767  0.00  0.00    +0.000 C 
ATOM      5  C   UNL     1       2.810   6.487  17.962  0.00  0.00    +0.000 C 
ATOM      6  C   UNL     1       2.952   5.156  18.756  0.00  0.00    +0.000 C 
ATOM      7  C   UNL     1       2.852   5.238  20.305  0.00  0.00    +0.000 C 
ATOM      8  C   UNL     1       2.508   3.895  21.064  0.00  0.00    +0.000 C 
ATOM      9  C   UNL     1       1.640   2.803  20.263  0.00  0.00    +0.000 C 
ATOM     10  C   UNL     1       2.283   2.743  18.863  0.00  0.00    +0.000 C 
ATOM     11  C   UNL     1       3.602   1.914  19.322  0.00  0.00    +0.000 C 
ATOM     12  C   UNL     1       2.453   2.371  17.395  0.00  0.00    +0.000 C 
ATOM     13  C   UNL     1       3.733   3.365  16.948  0.00  0.00    +0.000 C 
ATOM     14  C   UNL     1       4.190   4.483  18.089  0.00  0.00    +0.000 C 
ATOM     15  C   UNL     1       1.847   4.235  18.426  0.00  0.00    +0.000 C 
ENDROOT
BRANCH   9  16
ATOM     16  O   UNL     1       0.255   3.123  20.297  0.00  0.00    +0.000 OA
ATOM     17  H   UNL     1      -0.196   2.609  19.604  0.00  0.00    +0.000 HD
ENDBRANCH   9  16
BRANCH   5  18
ATOM     18  O   UNL     1       1.996   7.512  18.558  0.00  0.00    +0.000 OA
BRANCH  18  19
ATOM     19  C   UNL     1       2.422   8.820  18.120  0.00  0.00    +0.000 C 
BRANCH  19  20
ATOM     20  C   UNL     1       1.273   9.782  17.790  0.00  0.00    +0.000 C 
BRANCH  20  21
ATOM     21  N   UNL     1       1.081  10.759  18.865  0.00  0.00    +0.000 N 
ATOM     22  C   UNL     1       0.134  10.648  19.832  0.00  0.00    +0.000 C 
ATOM     23  O   UNL     1      -0.662   9.760  20.042  0.00  0.00    +0.000 OA
ATOM     24  C   UNL     1       0.199  11.886  20.634  0.00  0.00    +0.000 A 
ATOM     25  C   UNL     1      -0.512  12.273  21.756  0.00  0.00    +0.000 A 
ATOM     26  C   UNL     1      -0.235  13.541  22.279  0.00  0.00    +0.000 A 
ATOM     27  C   UNL     1       0.727  14.378  21.677  0.00  0.00    +0.000 A 
ATOM     28  C   UNL     1       1.431  13.960  20.543  0.00  0.00    +0.000 A 
ATOM     29  C   UNL     1       1.145  12.705  20.051  0.00  0.00    +0.000 A 
ATOM     30  C   UNL     1       1.686  11.992  18.884  0.00  0.00    +0.000 C 
ATOM     31  O   UNL     1       2.491  12.469  18.112  0.00  0.00    +0.000 OA
ENDBRANCH  20  21
ENDBRANCH  19  20
ENDBRANCH  18  19
ENDBRANCH   5  18
TORSDOF 5
ENDMDL
MODEL 3
REMARK VINA RESULT:      -8.5      1.458      1.729
REMARK  Name = 
REMARK  8 active torsions:
REMARK  status: ('A' for Active; 'I' for Inactive)
REMARK    1  A    between atoms: C_1  and  C_2
REMARK    2  A    between atoms: C_2  and  C_3
REMARK    3  A    between atoms: C_5  and  O_6
REMARK    4  A    between atoms: O_6  and  C_7
REMARK    5  A    between atoms: C_7  and  C_8
REMARK    6  A    between atoms: C_8  and  N_9
REMARK    7  A    between atoms: C_23  and  O_24
REMARK    8  A    between atoms: C_25  and  C_26
REMARK                            x       y       z     vdW  Elec       q    Type
REMARK                         _______ _______ _______ _____ _____    ______ ____
ROOT
ATOM      1  C   UNL     1       5.725   5.381  16.266  0.00  0.00    +0.000 C 
ATOM      2  C   UNL     1       5.142   5.515  17.670  0.00  0.00    +0.000 C 
ATOM      3  C   UNL     1       6.314   5.613  18.677  0.00  0.00    +0.000 C 
ATOM      4  C   UNL     1       4.335   6.817  17.829  0.00  0.00    +0.000 C 
ATOM      5  C   UNL     1       2.886   6.416  18.061  0.00  0.00    +0.000 C 
ATOM      6  C   UNL     1       2.996   5.047  18.794  0.00  0.00    +0.000 C 
ATOM      7  C   UNL     1       2.957   5.069  20.348  0.00  0.00    +0.000 C 
ATOM      8  C   UNL     1       2.579   3.711  21.064  0.00  0.00    +0.000 C 
ATOM      9  C   UNL     1       1.633   2.693  20.255  0.00  0.00    +0.000 C 
ATOM     10  C   UNL     1       2.221   2.664  18.830  0.00  0.00    +0.000 C 
ATOM     11  C   UNL     1       3.516   1.759  19.203  0.00  0.00    +0.000 C 
ATOM     12  C   UNL     1       2.319   2.347  17.342  0.00  0.00    +0.000 C 
ATOM     13  C   UNL     1       3.626   3.301  16.886  0.00  0.00    +0.000 C 
ATOM     14  C   UNL     1       4.175   4.349  18.053  0.00  0.00    +0.000 C 
ATOM     15  C   UNL     1       1.838   4.191  18.470  0.00  0.00    +0.000 C 
ENDROOT
BRANCH   9  16
ATOM     16  O   UNL     1       0.267   3.073  20.355  0.00  0.00    +0.000 OA
ATOM     17  H   UNL     1       0.001   3.488  19.516  0.00  0.00    +0.000 HD
ENDBRANCH   9  16
BRANCH   5  18
ATOM     18  O   UNL     1       2.142   7.450  18.729  0.00  0.00    +0.000 OA
BRANCH  18  19
ATOM     19  C   UNL     1       2.356   8.726  18.089  0.00  0.00    +0.000 C 
BRANCH  19  20
ATOM     20  C   UNL     1       1.069   9.499  17.774  0.00  0.00    +0.000 C 
BRANCH  20  21
ATOM     21  N   UNL     1       0.919  10.654  18.664  0.00  0.00    +0.000 N 
ATOM     22  C   UNL     1       1.739  11.735  18.651  0.00  0.00    +0.000 C 
ATOM     23  O   UNL     1       2.670  11.996  17.920  0.00  0.00    +0.000 OA
ATOM     24  C   UNL     1       1.319  12.601  19.770  0.00  0.00    +0.000 A 
ATOM     25  C   UNL     1       1.788  13.836  20.182  0.00  0.00    +0.000 A 
ATOM     26  C   UNL     1       1.191  14.399  21.316  0.00  0.00    +0.000 A 
ATOM     27  C   UNL     1       0.159  13.723  22.000  0.00  0.00    +0.000 A 
ATOM     28  C   UNL     1      -0.295  12.476  21.561  0.00  0.00    +0.000 A 
ATOM     29  C   UNL     1       0.304  11.946  20.439  0.00  0.00    +0.000 A 
ATOM     30  C   UNL     1       0.074  10.670  19.746  0.00  0.00    +0.000 C 
ATOM     31  O   UNL     1      -0.710   9.825  20.127  0.00  0.00    +0.000 OA
ENDBRANCH  20  21
ENDBRANCH  19  20
ENDBRANCH  18  19
ENDBRANCH   5  18
TORSDOF 5
ENDMDL
MODEL 4
REMARK VINA RESULT:      -8.4      0.147      1.600
REMARK  Name = 
REMARK  8 active torsions:
REMARK  status: ('A' for Active; 'I' for Inactive)
REMARK    1  A    between atoms: C_1  and  C_2
REMARK    2  A    between atoms: C_2  and  C_3
REMARK    3  A    between atoms: C_5  and  O_6
REMARK    4  A    between atoms: O_6  and  C_7
REMARK    5  A    between atoms: C_7  and  C_8
REMARK    6  A    between atoms: C_8  and  N_9
REMARK    7  A    between atoms: C_23  and  O_24
REMARK    8  A    between atoms: C_25  and  C_26
REMARK                            x       y       z     vdW  Elec       q    Type
REMARK                         _______ _______ _______ _____ _____    ______ ____
ROOT
ATOM      1  C   UNL     1       5.234   6.065  15.970  0.00  0.00    +0.000 C 
ATOM      2  C   UNL     1       4.781   6.113  17.427  0.00  0.00    +0.000 C 
ATOM      3  C   UNL     1       6.033   6.293  18.320  0.00  0.00    +0.000 C 
ATOM      4  C   UNL     1       3.883   7.332  17.704  0.00  0.00    +0.000 C 
ATOM      5  C   UNL     1       2.504   6.797  18.060  0.00  0.00    +0.000 C 
ATOM      6  C   UNL     1       2.805   5.426  18.735  0.00  0.00    +0.000 C 
ATOM      7  C   UNL     1       2.917   5.407  20.285  0.00  0.00    +0.000 C 
ATOM      8  C   UNL     1       2.732   4.004  20.990  0.00  0.00    +0.000 C 
ATOM      9  C   UNL     1       1.804   2.925  20.242  0.00  0.00    +0.000 C 
ATOM     10  C   UNL     1       2.249   2.983  18.767  0.00  0.00    +0.000 C 
ATOM     11  C   UNL     1       3.650   2.190  18.985  0.00  0.00    +0.000 C 
ATOM     12  C   UNL     1       2.229   2.711  17.268  0.00  0.00    +0.000 C 
ATOM     13  C   UNL     1       3.396   3.790  16.720  0.00  0.00    +0.000 C 
ATOM     14  C   UNL     1       3.963   4.856  17.863  0.00  0.00    +0.000 C 
ATOM     15  C   UNL     1       1.700   4.476  18.496  0.00  0.00    +0.000 C 
ENDROOT
BRANCH   9  16
ATOM     16  O   UNL     1       0.426   3.176  20.485  0.00  0.00    +0.000 OA
ATOM     17  H   UNL     1       0.164   2.700  21.292  0.00  0.00    +0.000 HD
ENDBRANCH   9  16
BRANCH   5  18
ATOM     18  O   UNL     1       1.741   7.743  18.830  0.00  0.00    +0.000 OA
BRANCH  18  19
ATOM     19  C   UNL     1       1.411   8.900  18.032  0.00  0.00    +0.000 C 
BRANCH  19  20
ATOM     20  C   UNL     1       1.874  10.233  18.630  0.00  0.00    +0.000 C 
BRANCH  20  21
ATOM     21  N   UNL     1       0.915  10.726  19.623  0.00  0.00    +0.000 N 
ATOM     22  C   UNL     1       0.839  10.268  20.898  0.00  0.00    +0.000 C 
ATOM     23  O   UNL     1       1.529   9.456  21.475  0.00  0.00    +0.000 OA
ATOM     24  C   UNL     1      -0.325  10.931  21.520  0.00  0.00    +0.000 A 
ATOM     25  C   UNL     1      -0.827  10.855  22.807  0.00  0.00    +0.000 A 
ATOM     26  C   UNL     1      -1.981  11.596  23.085  0.00  0.00    +0.000 A 
ATOM     27  C   UNL     1      -2.596  12.379  22.087  0.00  0.00    +0.000 A 
ATOM     28  C   UNL     1      -2.066  12.437  20.794  0.00  0.00    +0.000 A 
ATOM     29  C   UNL     1      -0.926  11.704  20.546  0.00  0.00    +0.000 A 
ATOM     30  C   UNL     1      -0.147  11.539  19.310  0.00  0.00    +0.000 C 
ATOM     31  O   UNL     1      -0.454  12.034  18.246  0.00  0.00    +0.000 OA
ENDBRANCH  20  21
ENDBRANCH  19  20
ENDBRANCH  18  19
ENDBRANCH   5  18
TORSDOF 5
ENDMDL
MODEL 5
REMARK VINA RESULT:      -8.3      1.218      1.448
REMARK  Name = 
REMARK  8 active torsions:
REMARK  status: ('A' for Active; 'I' for Inactive)
REMARK    1  A    between atoms: C_1  and  C_2
REMARK    2  A    between atoms: C_2  and  C_3
REMARK    3  A    between atoms: C_5  and  O_6
REMARK    4  A    between atoms: O_6  and  C_7
REMARK    5  A    between atoms: C_7  and  C_8
REMARK    6  A    between atoms: C_8  and  N_9
REMARK    7  A    between atoms: C_23  and  O_24
REMARK    8  A    between atoms: C_25  and  C_26
REMARK                            x       y       z     vdW  Elec       q    Type
REMARK                         _______ _______ _______ _____ _____    ______ ____
ROOT
ATOM      1  C   UNL     1       5.567   5.510  16.028  0.00  0.00    +0.000 C 
ATOM      2  C   UNL     1       5.096   5.644  17.473  0.00  0.00    +0.000 C 
ATOM      3  C   UNL     1       6.344   5.730  18.385  0.00  0.00    +0.000 C 
ATOM      4  C   UNL     1       4.314   6.951  17.699  0.00  0.00    +0.000 C 
ATOM      5  C   UNL     1       2.884   6.560  18.042  0.00  0.00    +0.000 C 
ATOM      6  C   UNL     1       3.041   5.188  18.760  0.00  0.00    +0.000 C 
ATOM      7  C   UNL     1       3.124   5.204  20.312  0.00  0.00    +0.000 C 
ATOM      8  C   UNL     1       2.794   3.846  21.053  0.00  0.00    +0.000 C 
ATOM      9  C   UNL     1       1.780   2.838  20.317  0.00  0.00    +0.000 C 
ATOM     10  C   UNL     1       2.254   2.810  18.850  0.00  0.00    +0.000 C 
ATOM     11  C   UNL     1       3.568   1.894  19.118  0.00  0.00    +0.000 C 
ATOM     12  C   UNL     1       2.233   2.497  17.359  0.00  0.00    +0.000 C 
ATOM     13  C   UNL     1       3.508   3.443  16.804  0.00  0.00    +0.000 C 
ATOM     14  C   UNL     1       4.154   4.484  17.927  0.00  0.00    +0.000 C 
ATOM     15  C   UNL     1       1.855   4.340  18.526  0.00  0.00    +0.000 C 
ENDROOT
BRANCH   9  16
ATOM     16  O   UNL     1       0.429   3.227  20.525  0.00  0.00    +0.000 OA
ATOM     17  H   UNL     1       0.303   4.116  20.149  0.00  0.00    +0.000 HD
ENDBRANCH   9  16
BRANCH   5  18
ATOM     18  O   UNL     1       2.202   7.596  18.769  0.00  0.00    +0.000 OA
BRANCH  18  19
ATOM     19  C   UNL     1       1.413   8.411  17.876  0.00  0.00    +0.000 C 
BRANCH  19  20
ATOM     20  C   UNL     1       1.586   9.921  18.078  0.00  0.00    +0.000 C 
BRANCH  20  21
ATOM     21  N   UNL     1       0.374  10.517  18.648  0.00  0.00    +0.000 N 
ATOM     22  C   UNL     1      -0.856  10.424  18.083  0.00  0.00    +0.000 C 
ATOM     23  O   UNL     1      -1.213   9.825  17.091  0.00  0.00    +0.000 OA
ATOM     24  C   UNL     1      -1.764  11.254  18.899  0.00  0.00    +0.000 A 
ATOM     25  C   UNL     1      -3.125  11.479  18.792  0.00  0.00    +0.000 A 
ATOM     26  C   UNL     1      -3.701  12.355  19.719  0.00  0.00    +0.000 A 
ATOM     27  C   UNL     1      -2.915  12.976  20.712  0.00  0.00    +0.000 A 
ATOM     28  C   UNL     1      -1.542  12.730  20.797  0.00  0.00    +0.000 A 
ATOM     29  C   UNL     1      -0.999  11.859  19.877  0.00  0.00    +0.000 A 
ATOM     30  C   UNL     1       0.389  11.413  19.689  0.00  0.00    +0.000 C 
ATOM     31  O   UNL     1       1.326  11.818  20.345  0.00  0.00    +0.000 OA
ENDBRANCH  20  21
ENDBRANCH  19  20
ENDBRANCH  18  19
ENDBRANCH   5  18
TORSDOF 5
ENDMDL
MODEL 6
REMARK VINA RESULT:      -8.2      1.068      1.810
REMARK  Name = 
REMARK  8 active torsions:
REMARK  status: ('A' for Active; 'I' for Inactive)
REMARK    1  A    between atoms: C_1  and  C_2
REMARK    2  A    between atoms: C_2  and  C_3
REMARK    3  A    between atoms: C_5  and  O_6
REMARK    4  A    between atoms: O_6  and  C_7
REMARK    5  A    between atoms: C_7  and  C_8
REMARK    6  A    between atoms: C_8  and  N_9
REMARK    7  A    between atoms: C_23  and  O_24
REMARK    8  A    between atoms: C_25  and  C_26
REMARK                            x       y       z     vdW  Elec       q    Type
REMARK                         _______ _______ _______ _____ _____    ______ ____
ROOT
ATOM      1  C   UNL     1       5.644   5.717  16.285  0.00  0.00    +0.000 C 
ATOM      2  C   UNL     1       5.082   5.776  17.702  0.00  0.00    +0.000 C 
ATOM      3  C   UNL     1       6.269   5.818  18.695  0.00  0.00    +0.000 C 
ATOM      4  C   UNL     1       4.280   7.068  17.944  0.00  0.00    +0.000 C 
ATOM      5  C   UNL     1       2.833   6.657  18.176  0.00  0.00    +0.000 C 
ATOM      6  C   UNL     1       2.952   5.250  18.832  0.00  0.00    +0.000 C 
ATOM      7  C   UNL     1       2.937   5.187  20.385  0.00  0.00    +0.000 C 
ATOM      8  C   UNL     1       2.568   3.793  21.033  0.00  0.00    +0.000 C 
ATOM      9  C   UNL     1       1.608   2.822  20.184  0.00  0.00    +0.000 C 
ATOM     10  C   UNL     1       2.173   2.869  18.750  0.00  0.00    +0.000 C 
ATOM     11  C   UNL     1       3.473   1.944  19.054  0.00  0.00    +0.000 C 
ATOM     12  C   UNL     1       2.248   2.633  17.247  0.00  0.00    +0.000 C 
ATOM     13  C   UNL     1       3.551   3.609  16.823  0.00  0.00    +0.000 C 
ATOM     14  C   UNL     1       4.119   4.592  18.036  0.00  0.00    +0.000 C 
ATOM     15  C   UNL     1       1.788   4.413  18.480  0.00  0.00    +0.000 C 
ENDROOT
BRANCH   9  16
ATOM     16  O   UNL     1       0.244   3.196  20.325  0.00  0.00    +0.000 OA
ATOM     17  H   UNL     1       0.136   4.099  19.978  0.00  0.00    +0.000 HD
ENDBRANCH   9  16
BRANCH   5  18
ATOM     18  O   UNL     1       2.102   7.654  18.910  0.00  0.00    +0.000 OA
BRANCH  18  19
ATOM     19  C   UNL     1       1.253   8.417  18.027  0.00  0.00    +0.000 C 
BRANCH  19  20
ATOM     20  C   UNL     1       1.516   9.927  18.045  0.00  0.00    +0.000 C 
BRANCH  20  21
ATOM     21  N   UNL     1       0.373  10.652  18.608  0.00  0.00    +0.000 N 
ATOM     22  C   UNL     1       0.371  11.232  19.836  0.00  0.00    +0.000 C 
ATOM     23  O   UNL     1       1.260  11.324  20.654  0.00  0.00    +0.000 OA
ATOM     24  C   UNL     1      -0.996  11.744  20.062  0.00  0.00    +0.000 A 
ATOM     25  C   UNL     1      -1.531  12.449  21.125  0.00  0.00    +0.000 A 
ATOM     26  C   UNL     1      -2.891  12.773  21.054  0.00  0.00    +0.000 A 
ATOM     27  C   UNL     1      -3.669  12.389  19.942  0.00  0.00    +0.000 A 
ATOM     28  C   UNL     1      -3.100  11.678  18.881  0.00  0.00    +0.000 A 
ATOM     29  C   UNL     1      -1.759  11.376  18.972  0.00  0.00    +0.000 A 
ATOM     30  C   UNL     1      -0.883  10.636  18.051  0.00  0.00    +0.000 C 
ATOM     31  O   UNL     1      -1.265  10.113  17.026  0.00  0.00    +0.000 OA
ENDBRANCH  20  21
ENDBRANCH  19  20
ENDBRANCH  18  19
ENDBRANCH   5  18
TORSDOF 5
ENDMDL
MODEL 7
REMARK VINA RESULT:      -8.1      1.045      1.238
REMARK  Name = 
REMARK  8 active torsions:
REMARK  status: ('A' for Active; 'I' for Inactive)
REMARK    1  A    between atoms: C_1  and  C_2
REMARK    2  A    between atoms: C_2  and  C_3
REMARK    3  A    between atoms: C_5  and  O_6
REMARK    4  A    between atoms: O_6  and  C_7
REMARK    5  A    between atoms: C_7  and  C_8
REMARK    6  A    between atoms: C_8  and  N_9
REMARK    7  A    between atoms: C_23  and  O_24
REMARK    8  A    between atoms: C_25  and  C_26
REMARK                            x       y       z     vdW  Elec       q    Type
REMARK                         _______ _______ _______ _____ _____    ______ ____
ROOT
ATOM      1  C   UNL     1       6.672   4.950  15.947  0.00  0.00    +0.000 C 
ATOM      2  C   UNL     1       6.094   5.291  17.317  0.00  0.00    +0.000 C 
ATOM      3  C   UNL     1       7.223   5.159  18.369  0.00  0.00    +0.000 C 
ATOM      4  C   UNL     1       5.618   6.754  17.387  0.00  0.00    +0.000 C 
ATOM      5  C   UNL     1       4.108   6.722  17.572  0.00  0.00    +0.000 C 
ATOM      6  C   UNL     1       3.864   5.405  18.367  0.00  0.00    +0.000 C 
ATOM      7  C   UNL     1       3.782   5.515  19.915  0.00  0.00    +0.000 C 
ATOM      8  C   UNL     1       3.068   4.324  20.672  0.00  0.00    +0.000 C 
ATOM      9  C   UNL     1       1.932   3.521  19.866  0.00  0.00    +0.000 C 
ATOM     10  C   UNL     1       2.540   3.280  18.470  0.00  0.00    +0.000 C 
ATOM     11  C   UNL     1       3.568   2.113  18.936  0.00  0.00    +0.000 C 
ATOM     12  C   UNL     1       2.606   2.872  17.003  0.00  0.00    +0.000 C 
ATOM     13  C   UNL     1       4.118   3.464  16.563  0.00  0.00    +0.000 C 
ATOM     14  C   UNL     1       4.865   4.410  17.707  0.00  0.00    +0.000 C 
ATOM     15  C   UNL     1       2.545   4.833  18.030  0.00  0.00    +0.000 C 
ENDROOT
BRANCH   9  16
ATOM     16  O   UNL     1       0.694   4.219  19.891  0.00  0.00    +0.000 OA
ATOM     17  H   UNL     1       0.287   4.156  19.009  0.00  0.00    +0.000 HD
ENDBRANCH   9  16
BRANCH   5  18
ATOM     18  O   UNL     1       3.613   7.936  18.164  0.00  0.00    +0.000 OA
BRANCH  18  19
ATOM     19  C   UNL     1       2.271   8.214  17.708  0.00  0.00    +0.000 C 
BRANCH  19  20
ATOM     20  C   UNL     1       1.854   9.684  17.829  0.00  0.00    +0.000 C 
BRANCH  20  21
ATOM     21  N   UNL     1       1.065   9.909  19.044  0.00  0.00    +0.000 N 
ATOM     22  C   UNL     1       0.412  11.066  19.323  0.00  0.00    +0.000 C 
ATOM     23  O   UNL     1       0.295  12.072  18.658  0.00  0.00    +0.000 OA
ATOM     24  C   UNL     1      -0.150  10.921  20.680  0.00  0.00    +0.000 A 
ATOM     25  C   UNL     1      -0.933  11.780  21.430  0.00  0.00    +0.000 A 
ATOM     26  C   UNL     1      -1.289  11.359  22.716  0.00  0.00    +0.000 A 
ATOM     27  C   UNL     1      -0.859  10.111  23.213  0.00  0.00    +0.000 A 
ATOM     28  C   UNL     1      -0.069   9.262  22.432  0.00  0.00    +0.000 A 
ATOM     29  C   UNL     1       0.263   9.697  21.168  0.00  0.00    +0.000 A 
ATOM     30  C   UNL     1       1.082   9.061  20.124  0.00  0.00    +0.000 C 
ATOM     31  O   UNL     1       1.656   8.002  20.266  0.00  0.00    +0.000 OA
ENDBRANCH  20  21
ENDBRANCH  19  20
ENDBRANCH  18  19
ENDBRANCH   5  18
TORSDOF 5
ENDMDL
MODEL 8
REMARK VINA RESULT:      -8.1      1.088      1.987
REMARK  Name = 
REMARK  8 active torsions:
REMARK  status: ('A' for Active; 'I' for Inactive)
REMARK    1  A    between atoms: C_1  and  C_2
REMARK    2  A    between atoms: C_2  and  C_3
REMARK    3  A    between atoms: C_5  and  O_6
REMARK    4  A    between atoms: O_6  and  C_7
REMARK    5  A    between atoms: C_7  and  C_8
REMARK    6  A    between atoms: C_8  and  N_9
REMARK    7  A    between atoms: C_23  and  O_24
REMARK    8  A    between atoms: C_25  and  C_26
REMARK                            x       y       z     vdW  Elec       q    Type
REMARK                         _______ _______ _______ _____ _____    ______ ____
ROOT
ATOM      1  C   UNL     1       5.850   4.544  15.084  0.00  0.00    +0.000 C 
ATOM      2  C   UNL     1       5.655   5.010  16.524  0.00  0.00    +0.000 C 
ATOM      3  C   UNL     1       6.998   4.839  17.277  0.00  0.00    +0.000 C 
ATOM      4  C   UNL     1       5.315   6.510  16.596  0.00  0.00    +0.000 C 
ATOM      5  C   UNL     1       3.900   6.618  17.145  0.00  0.00    +0.000 C 
ATOM      6  C   UNL     1       3.768   5.374  18.072  0.00  0.00    +0.000 C 
ATOM      7  C   UNL     1       4.081   5.576  19.581  0.00  0.00    +0.000 C 
ATOM      8  C   UNL     1       3.495   4.496  20.575  0.00  0.00    +0.000 C 
ATOM      9  C   UNL     1       2.141   3.750  20.132  0.00  0.00    +0.000 C 
ATOM     10  C   UNL     1       2.365   3.381  18.652  0.00  0.00    +0.000 C 
ATOM     11  C   UNL     1       3.393   2.156  18.941  0.00  0.00    +0.000 C 
ATOM     12  C   UNL     1       2.037   2.888  17.248  0.00  0.00    +0.000 C 
ATOM     13  C   UNL     1       3.431   3.321  16.411  0.00  0.00    +0.000 C 
ATOM     14  C   UNL     1       4.502   4.261  17.266  0.00  0.00    +0.000 C 
ATOM     15  C   UNL     1       2.371   4.901  18.109  0.00  0.00    +0.000 C 
ENDROOT
BRANCH   9  16
ATOM     16  O   UNL     1       1.000   4.553  20.404  0.00  0.00    +0.000 OA
ATOM     17  H   UNL     1       1.242   5.214  21.076  0.00  0.00    +0.000 HD
ENDBRANCH   9  16
BRANCH   5  18
ATOM     18  O   UNL     1       3.653   7.902  17.746  0.00  0.00    +0.000 OA
BRANCH  18  19
ATOM     19  C   UNL     1       2.235   8.152  17.848  0.00  0.00    +0.000 C 
BRANCH  19  20
ATOM     20  C   UNL     1       1.859   9.637  17.920  0.00  0.00    +0.000 C 
BRANCH  20  21
ATOM     21  N   UNL     1       1.210   9.953  19.195  0.00  0.00    +0.000 N 
ATOM     22  C   UNL     1       1.131   9.092  20.242  0.00  0.00    +0.000 C 
ATOM     23  O   UNL     1       1.593   7.979  20.369  0.00  0.00    +0.000 OA
ATOM     24  C   UNL     1       0.303   9.749  21.272  0.00  0.00    +0.000 A 
ATOM     25  C   UNL     1      -0.059   9.332  22.541  0.00  0.00    +0.000 A 
ATOM     26  C   UNL     1      -0.890  10.183  23.278  0.00  0.00    +0.000 A 
ATOM     27  C   UNL     1      -1.334  11.408  22.737  0.00  0.00    +0.000 A 
ATOM     28  C   UNL     1      -0.952  11.803  21.452  0.00  0.00    +0.000 A 
ATOM     29  C   UNL     1      -0.129  10.951  20.749  0.00  0.00    +0.000 A 
ATOM     30  C   UNL     1       0.426  11.064  19.391  0.00  0.00    +0.000 C 
ATOM     31  O   UNL     1       0.177  11.977  18.632  0.00  0.00    +0.000 OA
ENDBRANCH  20  21
ENDBRANCH  19  20
ENDBRANCH  18  19
ENDBRANCH   5  18
TORSDOF 5
ENDMDL
MODEL 9
REMARK VINA RESULT:      -7.8      1.558      4.041
REMARK  Name = 
REMARK  8 active torsions:
REMARK  status: ('A' for Active; 'I' for Inactive)
REMARK    1  A    between atoms: C_1  and  C_2
REMARK    2  A    between atoms: C_2  and  C_3
REMARK    3  A    between atoms: C_5  and  O_6
REMARK    4  A    between atoms: O_6  and  C_7
REMARK    5  A    between atoms: C_7  and  C_8
REMARK    6  A    between atoms: C_8  and  N_9
REMARK    7  A    between atoms: C_23  and  O_24
REMARK    8  A    between atoms: C_25  and  C_26
REMARK                            x       y       z     vdW  Elec       q    Type
REMARK                         _______ _______ _______ _____ _____    ______ ____
ROOT
ATOM      1  C   UNL     1       2.647   3.562  19.484  0.00  0.00    +0.000 C 
ATOM      2  C   UNL     1       3.062   4.268  18.196  0.00  0.00    +0.000 C 
ATOM      3  C   UNL     1       2.745   3.332  17.004  0.00  0.00    +0.000 C 
ATOM      4  C   UNL     1       2.241   5.549  17.960  0.00  0.00    +0.000 C 
ATOM      5  C   UNL     1       3.210   6.720  18.046  0.00  0.00    +0.000 C 
ATOM      6  C   UNL     1       4.556   6.120  17.544  0.00  0.00    +0.000 C 
ATOM      7  C   UNL     1       4.896   6.298  16.038  0.00  0.00    +0.000 C 
ATOM      8  C   UNL     1       6.416   6.144  15.632  0.00  0.00    +0.000 C 
ATOM      9  C   UNL     1       7.513   6.514  16.748  0.00  0.00    +0.000 C 
ATOM     10  C   UNL     1       6.998   5.846  18.039  0.00  0.00    +0.000 C 
ATOM     11  C   UNL     1       7.392   4.330  17.610  0.00  0.00    +0.000 C 
ATOM     12  C   UNL     1       6.915   5.498  19.520  0.00  0.00    +0.000 C 
ATOM     13  C   UNL     1       5.456   4.665  19.583  0.00  0.00    +0.000 C 
ATOM     14  C   UNL     1       4.563   4.698  18.182  0.00  0.00    +0.000 C 
ATOM     15  C   UNL     1       5.698   6.790  18.197  0.00  0.00    +0.000 C 
ENDROOT
BRANCH   9  16
ATOM     16  O   UNL     1       7.721   7.918  16.817  0.00  0.00    +0.000 OA
ATOM     17  H   UNL     1       7.387   8.320  15.996  0.00  0.00    +0.000 HD
ENDBRANCH   9  16
BRANCH   5  18
ATOM     18  O   UNL     1       2.718   7.878  17.349  0.00  0.00    +0.000 OA
BRANCH  18  19
ATOM     19  C   UNL     1       2.272   8.884  18.283  0.00  0.00    +0.000 C 
BRANCH  19  20
ATOM     20  C   UNL     1       0.859   9.415  18.014  0.00  0.00    +0.000 C 
BRANCH  20  21
ATOM     21  N   UNL     1       0.296  10.043  19.213  0.00  0.00    +0.000 N 
ATOM     22  C   UNL     1       0.352   9.495  20.454  0.00  0.00    +0.000 C 
ATOM     23  O   UNL     1       0.888   8.476  20.831  0.00  0.00    +0.000 OA
ATOM     24  C   UNL     1      -0.428  10.378  21.344  0.00  0.00    +0.000 A 
ATOM     25  C   UNL     1      -0.662  10.309  22.706  0.00  0.00    +0.000 A 
ATOM     26  C   UNL     1      -1.480  11.299  23.262  0.00  0.00    +0.000 A 
ATOM     27  C   UNL     1      -2.038  12.313  22.457  0.00  0.00    +0.000 A 
ATOM     28  C   UNL     1      -1.784  12.358  21.083  0.00  0.00    +0.000 A 
ATOM     29  C   UNL     1      -0.971  11.377  20.560  0.00  0.00    +0.000 A 
ATOM     30  C   UNL     1      -0.534  11.136  19.176  0.00  0.00    +0.000 C 
ATOM     31  O   UNL     1      -0.897  11.798  18.227  0.00  0.00    +0.000 OA
ENDBRANCH  20  21
ENDBRANCH  19  20
ENDBRANCH  18  19
ENDBRANCH   5  18
TORSDOF 5
ENDMDL
