MODEL 1
REMARK VINA RESULT:      -9.0      0.000      0.000
REMARK  Name = 
REMARK  4 active torsions:
REMARK  status: ('A' for Active; 'I' for Inactive)
REMARK    1  A    between atoms: N_10  and  N_11
REMARK    2  A    between atoms: C_12  and  C_14
REMARK    3  A    between atoms: C_18  and  S_19
REMARK    4  A    between atoms: S_19  and  N_22
REMARK                            x       y       z     vdW  Elec       q    Type
REMARK                         _______ _______ _______ _____ _____    ______ ____
ROOT
ATOM      1  N   UNL     1       1.795   7.957  19.675  0.00  0.00    +0.000 N 
ATOM      2  C   UNL     1       2.602   7.692  18.592  0.00  0.00    +0.000 C 
ATOM      3  O   UNL     1       2.713   8.500  17.693  0.00  0.00    +0.000 OA
ATOM      4  H   UNL     1       1.741   7.245  20.415  0.00  0.00    +0.000 HD
ENDROOT
BRANCH   1  14
ATOM      5  N   UNL     1       0.219   9.786  17.714  0.00  0.00    +0.000 NA
ATOM      6  C   UNL     1       0.360   9.972  18.973  0.00  0.00    +0.000 C 
ATOM      7  C   UNL     1      -0.218  11.086  19.689  0.00  0.00    +0.000 A 
ATOM      8  C   UNL     1      -0.961  12.168  19.216  0.00  0.00    +0.000 A 
ATOM      9  C   UNL     1      -1.407  13.120  20.141  0.00  0.00    +0.000 A 
ATOM     10  C   UNL     1      -1.109  12.972  21.510  0.00  0.00    +0.000 A 
ATOM     11  C   UNL     1      -0.360  11.868  21.961  0.00  0.00    +0.000 A 
ATOM     12  C   UNL     1       0.082  10.934  21.020  0.00  0.00    +0.000 A 
ATOM     13  C   UNL     1       0.898   9.681  21.240  0.00  0.00    +0.000 C 
ATOM     14  N   UNL     1       1.053   9.124  19.895  0.00  0.00    +0.000 N 
ATOM     15  H   UNL     1      -0.318  10.430  17.117  0.00  0.00    +0.000 HD
ENDBRANCH   1  14
BRANCH   2  16
ATOM     16  C   UNL     1       3.412   6.436  18.449  0.00  0.00    +0.000 A 
ATOM     17  C   UNL     1       3.165   5.254  19.177  0.00  0.00    +0.000 A 
ATOM     18  C   UNL     1       3.993   4.133  19.007  0.00  0.00    +0.000 A 
ATOM     19  C   UNL     1       5.073   4.175  18.120  0.00  0.00    +0.000 A 
ATOM     20  C   UNL     1       5.330   5.337  17.387  0.00  0.00    +0.000 A 
ATOM     21  C   UNL     1       4.504   6.449  17.549  0.00  0.00    +0.000 A 
BRANCH  20  22
ATOM     22  S   UNL     1       6.744   5.437  16.276  0.00  0.00    +0.000 S 
ATOM     23  O   UNL     1       7.522   6.755  16.407  0.00  0.00    +0.000 OA
ATOM     24  O   UNL     1       7.834   4.402  16.597  0.00  0.00    +0.000 OA
BRANCH  22  25
ATOM     25  N   UNL     1       6.410   5.255  14.532  0.00  0.00    +0.000 NA
ATOM     26  C   UNL     1       7.700   5.188  13.813  0.00  0.00    +0.000 C 
ATOM     27  C   UNL     1       7.495   4.894  12.321  0.00  0.00    +0.000 C 
ATOM     28  C   UNL     1       6.726   3.584  12.159  0.00  0.00    +0.000 C 
ATOM     29  C   UNL     1       5.381   3.713  12.873  0.00  0.00    +0.000 C 
ATOM     30  C   UNL     1       5.618   4.022  14.357  0.00  0.00    +0.000 C 
ENDBRANCH  22  25
ENDBRANCH  20  22
ENDBRANCH   2  16
TORSDOF 4
ENDMDL
MODEL 2
REMARK VINA RESULT:      -8.8      1.197      1.429
REMARK  Name = 
REMARK  4 active torsions:
REMARK  status: ('A' for Active; 'I' for Inactive)
REMARK    1  A    between atoms: N_10  and  N_11
REMARK    2  A    between atoms: C_12  and  C_14
REMARK    3  A    between atoms: C_18  and  S_19
REMARK    4  A    between atoms: S_19  and  N_22
REMARK                            x       y       z     vdW  Elec       q    Type
REMARK                         _______ _______ _______ _____ _____    ______ ____
ROOT
ATOM      1  N   UNL     1       2.342   7.361  19.284  0.00  0.00    +0.000 N 
ATOM      2  C   UNL     1       2.242   6.000  19.457  0.00  0.00    +0.000 C 
ATOM      3  O   UNL     1       1.422   5.532  20.220  0.00  0.00    +0.000 OA
ATOM      4  H   UNL     1       3.047   7.708  18.619  0.00  0.00    +0.000 HD
ENDROOT
BRANCH   1  14
ATOM      5  N   UNL     1       0.897   9.863  18.131  0.00  0.00    +0.000 NA
ATOM      6  C   UNL     1       0.922   9.504  19.360  0.00  0.00    +0.000 C 
ATOM      7  C   UNL     1       0.253  10.223  20.420  0.00  0.00    +0.000 A 
ATOM      8  C   UNL     1      -0.473  11.413  20.377  0.00  0.00    +0.000 A 
ATOM      9  C   UNL     1      -1.023  11.897  21.570  0.00  0.00    +0.000 A 
ATOM     10  C   UNL     1      -0.844  11.185  22.774  0.00  0.00    +0.000 A 
ATOM     11  C   UNL     1      -0.108   9.985  22.788  0.00  0.00    +0.000 A 
ATOM     12  C   UNL     1       0.440   9.525  21.587  0.00  0.00    +0.000 A 
ATOM     13  C   UNL     1       1.266   8.284  21.338  0.00  0.00    +0.000 C 
ATOM     14  N   UNL     1       1.554   8.339  19.903  0.00  0.00    +0.000 N 
ATOM     15  H   UNL     1       0.399  10.705  17.812  0.00  0.00    +0.000 HD
ENDBRANCH   1  14
BRANCH   2  16
ATOM     16  C   UNL     1       3.089   5.006  18.716  0.00  0.00    +0.000 A 
ATOM     17  C   UNL     1       2.914   3.609  18.794  0.00  0.00    +0.000 A 
ATOM     18  C   UNL     1       3.773   2.748  18.094  0.00  0.00    +0.000 A 
ATOM     19  C   UNL     1       4.814   3.262  17.315  0.00  0.00    +0.000 A 
ATOM     20  C   UNL     1       5.001   4.643  17.222  0.00  0.00    +0.000 A 
ATOM     21  C   UNL     1       4.144   5.501  17.912  0.00  0.00    +0.000 A 
BRANCH  20  22
ATOM     22  S   UNL     1       6.365   5.331  16.268  0.00  0.00    +0.000 S 
ATOM     23  O   UNL     1       6.628   6.813  16.575  0.00  0.00    +0.000 OA
ATOM     24  O   UNL     1       7.722   4.698  16.618  0.00  0.00    +0.000 OA
BRANCH  22  25
ATOM     25  N   UNL     1       6.233   5.231  14.492  0.00  0.00    +0.000 NA
ATOM     26  C   UNL     1       7.596   5.245  13.919  0.00  0.00    +0.000 C 
ATOM     27  C   UNL     1       7.568   5.023  12.401  0.00  0.00    +0.000 C 
ATOM     28  C   UNL     1       6.873   3.699  12.090  0.00  0.00    +0.000 C 
ATOM     29  C   UNL     1       5.454   3.746  12.654  0.00  0.00    +0.000 C 
ATOM     30  C   UNL     1       5.513   3.984  14.168  0.00  0.00    +0.000 C 
ENDBRANCH  22  25
ENDBRANCH  20  22
ENDBRANCH   2  16
TORSDOF 4
ENDMDL
MODEL 3
REMARK VINA RESULT:      -8.7      3.594      9.306
REMARK  Name = 
REMARK  4 active torsions:
REMARK  status: ('A' for Active; 'I' for Inactive)
REMARK    1  A    between atoms: N_10  and  N_11
REMARK    2  A    between atoms: C_12  and  C_14
REMARK    3  A    between atoms: C_18  and  S_19
REMARK    4  A    between atoms: S_19  and  N_22
REMARK                            x       y       z     vdW  Elec       q    Type
REMARK                         _______ _______ _______ _____ _____    ______ ____
ROOT
ATOM      1  N   UNL     1       2.152   7.887  18.834  0.00  0.00    +0.000 N 
ATOM      2  C   UNL     1       1.745   7.783  20.144  0.00  0.00    +0.000 C 
ATOM      3  O   UNL     1       2.064   6.824  20.816  0.00  0.00    +0.000 OA
ATOM      4  H   UNL     1       1.864   8.723  18.309  0.00  0.00    +0.000 HD
ENDROOT
BRANCH   1  14
ATOM      5  N   UNL     1       1.942   4.801  18.499  0.00  0.00    +0.000 NA
ATOM      6  C   UNL     1       2.863   5.552  18.021  0.00  0.00    +0.000 C 
ATOM      7  C   UNL     1       3.964   5.063  17.225  0.00  0.00    +0.000 A 
ATOM      8  C   UNL     1       4.297   3.758  16.860  0.00  0.00    +0.000 A 
ATOM      9  C   UNL     1       5.436   3.562  16.069  0.00  0.00    +0.000 A 
ATOM     10  C   UNL     1       6.212   4.664  15.658  0.00  0.00    +0.000 A 
ATOM     11  C   UNL     1       5.852   5.971  16.039  0.00  0.00    +0.000 A 
ATOM     12  C   UNL     1       4.716   6.143  16.835  0.00  0.00    +0.000 A 
ATOM     13  C   UNL     1       4.126   7.424  17.378  0.00  0.00    +0.000 C 
ATOM     14  N   UNL     1       2.957   6.976  18.138  0.00  0.00    +0.000 N 
ATOM     15  H   UNL     1       1.928   3.782  18.352  0.00  0.00    +0.000 HD
ENDBRANCH   1  14
BRANCH   2  16
ATOM     16  C   UNL     1       0.924   8.828  20.842  0.00  0.00    +0.000 A 
ATOM     17  C   UNL     1       0.858   8.971  22.243  0.00  0.00    +0.000 A 
ATOM     18  C   UNL     1       0.039   9.956  22.817  0.00  0.00    +0.000 A 
ATOM     19  C   UNL     1      -0.725  10.803  22.008  0.00  0.00    +0.000 A 
ATOM     20  C   UNL     1      -0.669  10.679  20.617  0.00  0.00    +0.000 A 
ATOM     21  C   UNL     1       0.150   9.705  20.046  0.00  0.00    +0.000 A 
BRANCH  20  22
ATOM     22  S   UNL     1      -1.681  11.722  19.553  0.00  0.00    +0.000 S 
ATOM     23  O   UNL     1      -2.622  12.650  20.338  0.00  0.00    +0.000 OA
ATOM     24  O   UNL     1      -0.855  12.734  18.743  0.00  0.00    +0.000 OA
BRANCH  22  25
ATOM     25  N   UNL     1      -2.720  10.890  18.365  0.00  0.00    +0.000 NA
ATOM     26  C   UNL     1      -3.809  11.808  17.971  0.00  0.00    +0.000 C 
ATOM     27  C   UNL     1      -4.666  11.211  16.847  0.00  0.00    +0.000 C 
ATOM     28  C   UNL     1      -3.780  10.888  15.645  0.00  0.00    +0.000 C 
ATOM     29  C   UNL     1      -2.700   9.901  16.083  0.00  0.00    +0.000 C 
ATOM     30  C   UNL     1      -1.871  10.518  17.215  0.00  0.00    +0.000 C 
ENDBRANCH  22  25
ENDBRANCH  20  22
ENDBRANCH   2  16
TORSDOF 4
ENDMDL
MODEL 4
REMARK VINA RESULT:      -8.7      1.552      1.865
REMARK  Name = 
REMARK  4 active torsions:
REMARK  status: ('A' for Active; 'I' for Inactive)
REMARK    1  A    between atoms: N_10  and  N_11
REMARK    2  A    between atoms: C_12  and  C_14
REMARK    3  A    between atoms: C_18  and  S_19
REMARK    4  A    between atoms: S_19  and  N_22
REMARK                            x       y       z     vdW  Elec       q    Type
REMARK                         _______ _______ _______ _____ _____    ______ ____
ROOT
ATOM      1  N   UNL     1       2.137   9.136  17.814  0.00  0.00    +0.000 N 
ATOM      2  C   UNL     1       2.296   8.039  18.629  0.00  0.00    +0.000 C 
ATOM      3  O   UNL     1       2.022   8.102  19.810  0.00  0.00    +0.000 OA
ATOM      4  H   UNL     1       2.374   9.030  16.819  0.00  0.00    +0.000 HD
ENDROOT
BRANCH   1  14
ATOM      5  N   UNL     1      -0.576   9.986  19.077  0.00  0.00    +0.000 NA
ATOM      6  C   UNL     1       0.382  10.769  18.746  0.00  0.00    +0.000 C 
ATOM      7  C   UNL     1       0.345  12.202  18.926  0.00  0.00    +0.000 A 
ATOM      8  C   UNL     1      -0.676  13.019  19.411  0.00  0.00    +0.000 A 
ATOM      9  C   UNL     1      -0.443  14.398  19.482  0.00  0.00    +0.000 A 
ATOM     10  C   UNL     1       0.797  14.930  19.076  0.00  0.00    +0.000 A 
ATOM     11  C   UNL     1       1.812  14.081  18.593  0.00  0.00    +0.000 A 
ATOM     12  C   UNL     1       1.555  12.709  18.522  0.00  0.00    +0.000 A 
ATOM     13  C   UNL     1       2.462  11.600  18.041  0.00  0.00    +0.000 C 
ATOM     14  N   UNL     1       1.649  10.392  18.195  0.00  0.00    +0.000 N 
ATOM     15  H   UNL     1      -1.452  10.330  19.492  0.00  0.00    +0.000 HD
ENDBRANCH   1  14
BRANCH   2  16
ATOM     16  C   UNL     1       2.776   6.704  18.138  0.00  0.00    +0.000 A 
ATOM     17  C   UNL     1       2.085   5.493  18.347  0.00  0.00    +0.000 A 
ATOM     18  C   UNL     1       2.622   4.282  17.882  0.00  0.00    +0.000 A 
ATOM     19  C   UNL     1       3.849   4.260  17.211  0.00  0.00    +0.000 A 
ATOM     20  C   UNL     1       4.546   5.451  16.991  0.00  0.00    +0.000 A 
ATOM     21  C   UNL     1       4.010   6.656  17.447  0.00  0.00    +0.000 A 
BRANCH  20  22
ATOM     22  S   UNL     1       6.152   5.446  16.176  0.00  0.00    +0.000 S 
ATOM     23  O   UNL     1       6.970   6.717  16.448  0.00  0.00    +0.000 OA
ATOM     24  O   UNL     1       7.093   4.353  16.710  0.00  0.00    +0.000 OA
BRANCH  22  25
ATOM     25  N   UNL     1       6.152   5.254  14.402  0.00  0.00    +0.000 NA
ATOM     26  C   UNL     1       7.551   5.291  13.927  0.00  0.00    +0.000 C 
ATOM     27  C   UNL     1       7.641   4.994  12.424  0.00  0.00    +0.000 C 
ATOM     28  C   UNL     1       7.016   3.630  12.134  0.00  0.00    +0.000 C 
ATOM     29  C   UNL     1       5.559   3.651  12.594  0.00  0.00    +0.000 C 
ATOM     30  C   UNL     1       5.501   3.965  14.094  0.00  0.00    +0.000 C 
ENDBRANCH  22  25
ENDBRANCH  20  22
ENDBRANCH   2  16
TORSDOF 4
ENDMDL
MODEL 5
REMARK VINA RESULT:      -8.7      0.701      1.338
REMARK  Name = 
REMARK  4 active torsions:
REMARK  status: ('A' for Active; 'I' for Inactive)
REMARK    1  A    between atoms: N_10  and  N_11
REMARK    2  A    between atoms: C_12  and  C_14
REMARK    3  A    between atoms: C_18  and  S_19
REMARK    4  A    between atoms: S_19  and  N_22
REMARK                            x       y       z     vdW  Elec       q    Type
REMARK                         _______ _______ _______ _____ _____    ______ ____
ROOT
ATOM      1  N   UNL     1       1.893   8.116  19.520  0.00  0.00    +0.000 N 
ATOM      2  C   UNL     1       2.567   7.718  18.389  0.00  0.00    +0.000 C 
ATOM      3  O   UNL     1       2.536   8.394  17.381  0.00  0.00    +0.000 OA
ATOM      4  H   UNL     1       1.957   7.513  20.351  0.00  0.00    +0.000 HD
ENDROOT
BRANCH   1  14
ATOM      5  N   UNL     1      -0.260   8.914  21.619  0.00  0.00    +0.000 NA
ATOM      6  C   UNL     1       0.130   9.626  20.628  0.00  0.00    +0.000 C 
ATOM      7  C   UNL     1      -0.380  10.946  20.338  0.00  0.00    +0.000 A 
ATOM      8  C   UNL     1      -1.376  11.683  20.978  0.00  0.00    +0.000 A 
ATOM      9  C   UNL     1      -1.678  12.958  20.484  0.00  0.00    +0.000 A 
ATOM     10  C   UNL     1      -0.981  13.471  19.371  0.00  0.00    +0.000 A 
ATOM     11  C   UNL     1       0.023  12.706  18.746  0.00  0.00    +0.000 A 
ATOM     12  C   UNL     1       0.301  11.433  19.250  0.00  0.00    +0.000 A 
ATOM     13  C   UNL     1       1.314  10.422  18.762  0.00  0.00    +0.000 C 
ATOM     14  N   UNL     1       1.142   9.288  19.673  0.00  0.00    +0.000 N 
ATOM     15  H   UNL     1      -0.979   9.237  22.281  0.00  0.00    +0.000 HD
ENDBRANCH   1  14
BRANCH   2  16
ATOM     16  C   UNL     1       3.399   6.470  18.315  0.00  0.00    +0.000 A 
ATOM     17  C   UNL     1       3.166   5.322  19.100  0.00  0.00    +0.000 A 
ATOM     18  C   UNL     1       4.013   4.208  18.993  0.00  0.00    +0.000 A 
ATOM     19  C   UNL     1       5.099   4.223  18.112  0.00  0.00    +0.000 A 
ATOM     20  C   UNL     1       5.343   5.351  17.323  0.00  0.00    +0.000 A 
ATOM     21  C   UNL     1       4.498   6.456  17.424  0.00  0.00    +0.000 A 
BRANCH  20  22
ATOM     22  S   UNL     1       6.764   5.418  16.219  0.00  0.00    +0.000 S 
ATOM     23  O   UNL     1       7.564   6.723  16.345  0.00  0.00    +0.000 OA
ATOM     24  O   UNL     1       7.835   4.366  16.554  0.00  0.00    +0.000 OA
BRANCH  22  25
ATOM     25  N   UNL     1       6.436   5.230  14.476  0.00  0.00    +0.000 NA
ATOM     26  C   UNL     1       7.728   5.189  13.758  0.00  0.00    +0.000 C 
ATOM     27  C   UNL     1       7.530   4.891  12.266  0.00  0.00    +0.000 C 
ATOM     28  C   UNL     1       6.789   3.565  12.103  0.00  0.00    +0.000 C 
ATOM     29  C   UNL     1       5.441   3.666  12.815  0.00  0.00    +0.000 C 
ATOM     30  C   UNL     1       5.670   3.980  14.299  0.00  0.00    +0.000 C 
ENDBRANCH  22  25
ENDBRANCH  20  22
ENDBRANCH   2  16
TORSDOF 4
ENDMDL
MODEL 6
REMARK VINA RESULT:      -8.5      1.156      1.224
REMARK  Name = 
REMARK  4 active torsions:
REMARK  status: ('A' for Active; 'I' for Inactive)
REMARK    1  A    between atoms: N_10  and  N_11
REMARK    2  A    between atoms: C_12  and  C_14
REMARK    3  A    between atoms: C_18  and  S_19
REMARK    4  A    between atoms: S_19  and  N_22
REMARK                            x       y       z     vdW  Elec       q    Type
REMARK                         _______ _______ _______ _____ _____    ______ ____
ROOT
ATOM      1  N   UNL     1       2.279   8.289  18.235  0.00  0.00    +0.000 N 
ATOM      2  C   UNL     1       2.522   7.170  18.998  0.00  0.00    +0.000 C 
ATOM      3  O   UNL     1       2.152   7.117  20.152  0.00  0.00    +0.000 OA
ATOM      4  H   UNL     1       2.604   8.282  17.259  0.00  0.00    +0.000 HD
ENDROOT
BRANCH   1  14
ATOM      5  N   UNL     1       2.556  11.259  17.351  0.00  0.00    +0.000 NA
ATOM      6  C   UNL     1       1.760  10.808  18.247  0.00  0.00    +0.000 C 
ATOM      7  C   UNL     1       0.839  11.636  18.992  0.00  0.00    +0.000 A 
ATOM      8  C   UNL     1       0.649  13.017  18.961  0.00  0.00    +0.000 A 
ATOM      9  C   UNL     1      -0.326  13.570  19.800  0.00  0.00    +0.000 A 
ATOM     10  C   UNL     1      -1.090  12.740  20.644  0.00  0.00    +0.000 A 
ATOM     11  C   UNL     1      -0.879  11.347  20.653  0.00  0.00    +0.000 A 
ATOM     12  C   UNL     1       0.106  10.817  19.814  0.00  0.00    +0.000 A 
ATOM     13  C   UNL     1       0.528   9.376  19.643  0.00  0.00    +0.000 C 
ATOM     14  N   UNL     1       1.596   9.442  18.643  0.00  0.00    +0.000 N 
ATOM     15  H   UNL     1       2.601  12.257  17.103  0.00  0.00    +0.000 HD
ENDBRANCH   1  14
BRANCH   2  16
ATOM     16  C   UNL     1       3.217   5.946  18.475  0.00  0.00    +0.000 A 
ATOM     17  C   UNL     1       2.819   4.627  18.774  0.00  0.00    +0.000 A 
ATOM     18  C   UNL     1       3.545   3.537  18.270  0.00  0.00    +0.000 A 
ATOM     19  C   UNL     1       4.672   3.744  17.469  0.00  0.00    +0.000 A 
ATOM     20  C   UNL     1       5.079   5.044  17.158  0.00  0.00    +0.000 A 
ATOM     21  C   UNL     1       4.354   6.128  17.653  0.00  0.00    +0.000 A 
BRANCH  20  22
ATOM     22  S   UNL     1       6.557   5.340  16.172  0.00  0.00    +0.000 S 
ATOM     23  O   UNL     1       7.182   6.721  16.423  0.00  0.00    +0.000 OA
ATOM     24  O   UNL     1       7.721   4.404  16.538  0.00  0.00    +0.000 OA
BRANCH  22  25
ATOM     25  N   UNL     1       6.380   5.215  14.401  0.00  0.00    +0.000 NA
ATOM     26  C   UNL     1       7.721   5.319  13.788  0.00  0.00    +0.000 C 
ATOM     27  C   UNL     1       7.664   5.081  12.273  0.00  0.00    +0.000 C 
ATOM     28  C   UNL     1       7.054   3.709  11.993  0.00  0.00    +0.000 C 
ATOM     29  C   UNL     1       5.653   3.661  12.599  0.00  0.00    +0.000 C 
ATOM     30  C   UNL     1       5.740   3.917  14.109  0.00  0.00    +0.000 C 
ENDBRANCH  22  25
ENDBRANCH  20  22
ENDBRANCH   2  16
TORSDOF 4
ENDMDL
MODEL 7
REMARK VINA RESULT:      -8.4      6.313      7.893
REMARK  Name = 
REMARK  4 active torsions:
REMARK  status: ('A' for Active; 'I' for Inactive)
REMARK    1  A    between atoms: N_10  and  N_11
REMARK    2  A    between atoms: C_12  and  C_14
REMARK    3  A    between atoms: C_18  and  S_19
REMARK    4  A    between atoms: S_19  and  N_22
REMARK                            x       y       z     vdW  Elec       q    Type
REMARK                         _______ _______ _______ _____ _____    ______ ____
ROOT
ATOM      1  N   UNL     1       9.454   9.753  19.227  0.00  0.00    +0.000 N 
ATOM      2  C   UNL     1       8.517   9.219  18.372  0.00  0.00    +0.000 C 
ATOM      3  O   UNL     1       8.003   9.904  17.512  0.00  0.00    +0.000 OA
ATOM      4  H   UNL     1       9.867   9.129  19.933  0.00  0.00    +0.000 HD
ENDROOT
BRANCH   1  14
ATOM      5  N   UNL     1       9.771  11.840  21.512  0.00  0.00    +0.000 NA
ATOM      6  C   UNL     1      10.045  12.026  20.275  0.00  0.00    +0.000 C 
ATOM      7  C   UNL     1      10.567  13.265  19.746  0.00  0.00    +0.000 A 
ATOM      8  C   UNL     1      10.825  14.476  20.388  0.00  0.00    +0.000 A 
ATOM      9  C   UNL     1      11.338  15.533  19.626  0.00  0.00    +0.000 A 
ATOM     10  C   UNL     1      11.586  15.361  18.250  0.00  0.00    +0.000 A 
ATOM     11  C   UNL     1      11.318  14.127  17.627  0.00  0.00    +0.000 A 
ATOM     12  C   UNL     1      10.799  13.088  18.404  0.00  0.00    +0.000 A 
ATOM     13  C   UNL     1      10.424  11.685  17.982  0.00  0.00    +0.000 C 
ATOM     14  N   UNL     1       9.936  11.067  19.216  0.00  0.00    +0.000 N 
ATOM     15  H   UNL     1       9.899  12.574  22.222  0.00  0.00    +0.000 HD
ENDBRANCH   1  14
BRANCH   2  16
ATOM     16  C   UNL     1       8.086   7.781  18.409  0.00  0.00    +0.000 A 
ATOM     17  C   UNL     1       8.584   6.833  19.327  0.00  0.00    +0.000 A 
ATOM     18  C   UNL     1       8.152   5.499  19.271  0.00  0.00    +0.000 A 
ATOM     19  C   UNL     1       7.227   5.092  18.304  0.00  0.00    +0.000 A 
ATOM     20  C   UNL     1       6.719   6.018  17.390  0.00  0.00    +0.000 A 
ATOM     21  C   UNL     1       7.143   7.346  17.448  0.00  0.00    +0.000 A 
BRANCH  20  22
ATOM     22  S   UNL     1       5.567   5.510  16.101  0.00  0.00    +0.000 S 
ATOM     23  O   UNL     1       5.208   6.646  15.131  0.00  0.00    +0.000 OA
ATOM     24  O   UNL     1       6.159   4.463  15.145  0.00  0.00    +0.000 OA
BRANCH  22  25
ATOM     25  N   UNL     1       4.005   4.838  16.641  0.00  0.00    +0.000 NA
ATOM     26  C   UNL     1       4.225   3.449  17.096  0.00  0.00    +0.000 C 
ATOM     27  C   UNL     1       2.950   2.850  17.705  0.00  0.00    +0.000 C 
ATOM     28  C   UNL     1       2.479   3.722  18.866  0.00  0.00    +0.000 C 
ATOM     29  C   UNL     1       2.215   5.134  18.344  0.00  0.00    +0.000 C 
ATOM     30  C   UNL     1       3.501   5.700  17.729  0.00  0.00    +0.000 C 
ENDBRANCH  22  25
ENDBRANCH  20  22
ENDBRANCH   2  16
TORSDOF 4
ENDMDL
MODEL 8
REMARK VINA RESULT:      -8.2      3.503      9.275
REMARK  Name = 
REMARK  4 active torsions:
REMARK  status: ('A' for Active; 'I' for Inactive)
REMARK    1  A    between atoms: N_10  and  N_11
REMARK    2  A    between atoms: C_12  and  C_14
REMARK    3  A    between atoms: C_18  and  S_19
REMARK    4  A    between atoms: S_19  and  N_22
REMARK                            x       y       z     vdW  Elec       q    Type
REMARK                         _______ _______ _______ _____ _____    ______ ____
ROOT
ATOM      1  N   UNL     1       2.328   7.840  18.729  0.00  0.00    +0.000 N 
ATOM      2  C   UNL     1       1.872   7.718  20.022  0.00  0.00    +0.000 C 
ATOM      3  O   UNL     1       2.132   6.730  20.678  0.00  0.00    +0.000 OA
ATOM      4  H   UNL     1       2.088   8.699  18.217  0.00  0.00    +0.000 HD
ENDROOT
BRANCH   1  14
ATOM      5  N   UNL     1       2.014   4.774  18.304  0.00  0.00    +0.000 NA
ATOM      6  C   UNL     1       2.978   5.501  17.878  0.00  0.00    +0.000 C 
ATOM      7  C   UNL     1       4.089   4.991  17.107  0.00  0.00    +0.000 A 
ATOM      8  C   UNL     1       4.385   3.685  16.718  0.00  0.00    +0.000 A 
ATOM      9  C   UNL     1       5.543   3.466  15.962  0.00  0.00    +0.000 A 
ATOM     10  C   UNL     1       6.374   4.547  15.607  0.00  0.00    +0.000 A 
ATOM     11  C   UNL     1       6.049   5.857  16.011  0.00  0.00    +0.000 A 
ATOM     12  C   UNL     1       4.893   6.052  16.772  0.00  0.00    +0.000 A 
ATOM     13  C   UNL     1       4.333   7.340  17.330  0.00  0.00    +0.000 C 
ATOM     14  N   UNL     1       3.122   6.917  18.037  0.00  0.00    +0.000 N 
ATOM     15  H   UNL     1       1.968   3.761  18.129  0.00  0.00    +0.000 HD
ENDBRANCH   1  14
BRANCH   2  16
ATOM     16  C   UNL     1       1.066   8.775  20.720  0.00  0.00    +0.000 A 
ATOM     17  C   UNL     1       0.667   8.698  22.070  0.00  0.00    +0.000 A 
ATOM     18  C   UNL     1      -0.115   9.717  22.636  0.00  0.00    +0.000 A 
ATOM     19  C   UNL     1      -0.511  10.817  21.869  0.00  0.00    +0.000 A 
ATOM     20  C   UNL     1      -0.121  10.913  20.531  0.00  0.00    +0.000 A 
ATOM     21  C   UNL     1       0.662   9.905  19.969  0.00  0.00    +0.000 A 
BRANCH  20  22
ATOM     22  S   UNL     1      -0.660  12.294  19.507  0.00  0.00    +0.000 S 
ATOM     23  O   UNL     1      -1.197  13.478  20.325  0.00  0.00    +0.000 OA
ATOM     24  O   UNL     1       0.493  12.952  18.731  0.00  0.00    +0.000 OA
BRANCH  22  25
ATOM     25  N   UNL     1      -1.919  11.948  18.292  0.00  0.00    +0.000 NA
ATOM     26  C   UNL     1      -1.630  10.634  17.679  0.00  0.00    +0.000 C 
ATOM     27  C   UNL     1      -2.748  10.205  16.720  0.00  0.00    +0.000 C 
ATOM     28  C   UNL     1      -4.078  10.161  17.471  0.00  0.00    +0.000 C 
ATOM     29  C   UNL     1      -4.362  11.548  18.045  0.00  0.00    +0.000 C 
ATOM     30  C   UNL     1      -3.222  11.956  18.986  0.00  0.00    +0.000 C 
ENDBRANCH  22  25
ENDBRANCH  20  22
ENDBRANCH   2  16
TORSDOF 4
ENDMDL
MODEL 9
REMARK VINA RESULT:      -8.2      2.825      4.522
REMARK  Name = 
REMARK  4 active torsions:
REMARK  status: ('A' for Active; 'I' for Inactive)
REMARK    1  A    between atoms: N_10  and  N_11
REMARK    2  A    between atoms: C_12  and  C_14
REMARK    3  A    between atoms: C_18  and  S_19
REMARK    4  A    between atoms: S_19  and  N_22
REMARK                            x       y       z     vdW  Elec       q    Type
REMARK                         _______ _______ _______ _____ _____    ______ ____
ROOT
ATOM      1  N   UNL     1       1.727   8.272  19.326  0.00  0.00    +0.000 N 
ATOM      2  C   UNL     1       2.475   8.348  18.174  0.00  0.00    +0.000 C 
ATOM      3  O   UNL     1       2.389   9.315  17.444  0.00  0.00    +0.000 OA
ATOM      4  H   UNL     1       1.841   7.437  19.916  0.00  0.00    +0.000 HD
ENDROOT
BRANCH   1  14
ATOM      5  N   UNL     1      -0.363  10.046  17.855  0.00  0.00    +0.000 NA
ATOM      6  C   UNL     1      -0.098  10.072  19.107  0.00  0.00    +0.000 C 
ATOM      7  C   UNL     1      -0.757  10.947  20.049  0.00  0.00    +0.000 A 
ATOM      8  C   UNL     1      -1.721  11.931  19.835  0.00  0.00    +0.000 A 
ATOM      9  C   UNL     1      -2.199  12.643  20.942  0.00  0.00    +0.000 A 
ATOM     10  C   UNL     1      -1.712  12.356  22.233  0.00  0.00    +0.000 A 
ATOM     11  C   UNL     1      -0.740  11.354  22.421  0.00  0.00    +0.000 A 
ATOM     12  C   UNL     1      -0.272  10.663  21.301  0.00  0.00    +0.000 A 
ATOM     13  C   UNL     1       0.761   9.561  21.233  0.00  0.00    +0.000 C 
ATOM     14  N   UNL     1       0.836   9.241  19.806  0.00  0.00    +0.000 N 
ATOM     15  H   UNL     1      -1.069  10.661  17.427  0.00  0.00    +0.000 HD
ENDBRANCH   1  14
BRANCH   2  16
ATOM     16  C   UNL     1       3.453   7.291  17.749  0.00  0.00    +0.000 A 
ATOM     17  C   UNL     1       4.743   7.566  17.252  0.00  0.00    +0.000 A 
ATOM     18  C   UNL     1       5.583   6.518  16.845  0.00  0.00    +0.000 A 
ATOM     19  C   UNL     1       5.151   5.190  16.923  0.00  0.00    +0.000 A 
ATOM     20  C   UNL     1       3.877   4.898  17.417  0.00  0.00    +0.000 A 
ATOM     21  C   UNL     1       3.044   5.938  17.828  0.00  0.00    +0.000 A 
BRANCH  20  22
ATOM     22  S   UNL     1       3.276   3.201  17.480  0.00  0.00    +0.000 S 
ATOM     23  O   UNL     1       2.181   2.911  16.443  0.00  0.00    +0.000 OA
ATOM     24  O   UNL     1       4.348   2.169  17.094  0.00  0.00    +0.000 OA
BRANCH  22  25
ATOM     25  N   UNL     1       2.611   2.642  19.039  0.00  0.00    +0.000 NA
ATOM     26  C   UNL     1       3.629   2.864  20.088  0.00  0.00    +0.000 C 
ATOM     27  C   UNL     1       3.078   2.534  21.482  0.00  0.00    +0.000 C 
ATOM     28  C   UNL     1       1.837   3.382  21.755  0.00  0.00    +0.000 C 
ATOM     29  C   UNL     1       0.794   3.087  20.679  0.00  0.00    +0.000 C 
ATOM     30  C   UNL     1       1.378   3.411  19.299  0.00  0.00    +0.000 C 
ENDBRANCH  22  25
ENDBRANCH  20  22
ENDBRANCH   2  16
TORSDOF 4
ENDMDL
