MODEL 1
REMARK VINA RESULT:      -7.1      0.000      0.000
REMARK  Name = 
REMARK  11 active torsions:
REMARK  status: ('A' for Active; 'I' for Inactive)
REMARK    1  A    between atoms: C_1  and  C_2
REMARK    2  A    between atoms: C_2  and  O_3
REMARK    3  A    between atoms: O_3  and  C_4
REMARK    4  A    between atoms: C_7  and  N_8
REMARK    5  A    between atoms: C_19  and  O_20
REMARK    6  A    between atoms: C_19  and  C_21
REMARK    7  A    between atoms: N_23  and  C_24
REMARK    8  A    between atoms: C_24  and  C_25
REMARK    9  A    between atoms: C_25  and  N_26
REMARK   10  A    between atoms: N_26  and  C_27
REMARK   11  A    between atoms: N_26  and  C_28
REMARK                            x       y       z     vdW  Elec       q    Type
REMARK                         _______ _______ _______ _____ _____    ______ ____
ROOT
ATOM      1  N   UNL     1       5.407   5.432  17.054  0.00  0.00    +0.000 N 
ATOM      2  C   UNL     1       4.587   6.600  17.256  0.00  0.00    +0.000 C 
ATOM      3  O   UNL     1       3.946   7.194  16.389  0.00  0.00    +0.000 OA
ATOM      4  N   UNL     1       4.429   7.013  18.592  0.00  0.00    +0.000 N 
ATOM      5  C   UNL     1       3.977   5.982  19.449  0.00  0.00    +0.000 A 
ATOM      6  C   UNL     1       2.761   6.229  20.095  0.00  0.00    +0.000 A 
ATOM      7  C   UNL     1       1.841   5.195  20.168  0.00  0.00    +0.000 A 
ATOM      8  C   UNL     1       2.144   3.972  19.575  0.00  0.00    +0.000 A 
ATOM      9 BR   UNL     1       0.725   2.758  19.251  0.00  0.00    +0.000 Br
ATOM     10  C   UNL     1       3.434   3.713  19.073  0.00  0.00    +0.000 A 
ATOM     11  C   UNL     1       4.421   4.716  19.100  0.00  0.00    +0.000 A 
ATOM     12  C   UNL     1       5.734   4.706  18.292  0.00  0.00    +0.000 C 
ATOM     13  H   UNL     1       5.328   7.371  18.921  0.00  0.00    +0.000 HD
ENDROOT
BRANCH   1  17
ATOM     14  C   UNL     1       6.562   4.030  13.148  0.00  0.00    +0.000 A 
ATOM     15  C   UNL     1       5.301   3.804  13.674  0.00  0.00    +0.000 A 
ATOM     16  C   UNL     1       4.935   4.345  14.907  0.00  0.00    +0.000 A 
ATOM     17  C   UNL     1       5.819   5.078  15.716  0.00  0.00    +0.000 A 
ATOM     18  C   UNL     1       7.063   5.377  15.127  0.00  0.00    +0.000 A 
ATOM     19  C   UNL     1       7.430   4.855  13.860  0.00  0.00    +0.000 A 
BRANCH  14  20
ATOM     20  O   UNL     1       6.793   3.352  11.993  0.00  0.00    +0.000 OA
BRANCH  20  22
ATOM     21  C   UNL     1       6.680   1.205  11.010  0.00  0.00    +0.000 C 
ATOM     22  C   UNL     1       5.872   2.353  11.595  0.00  0.00    +0.000 C 
ENDBRANCH  20  22
ENDBRANCH  14  20
ENDBRANCH   1  17
BRANCH  12  23
ATOM     23  C   UNL     1       6.991   5.561  18.909  0.00  0.00    +0.000 C 
ATOM     24  O   UNL     1       7.321   5.516  20.099  0.00  0.00    +0.000 OA
ATOM     25  N   UNL     1       7.570   6.502  18.061  0.00  0.00    +0.000 N 
ATOM     26  H   UNL     1       7.180   6.564  17.129  0.00  0.00    +0.000 HD
BRANCH  25  27
ATOM     27  C   UNL     1       8.218   7.714  18.580  0.00  0.00    +0.000 C 
BRANCH  27  28
ATOM     28  C   UNL     1       7.985   9.049  17.826  0.00  0.00    +0.000 C 
BRANCH  28  29
ATOM     29  N   UNL     1       8.934  10.150  18.098  0.00  0.00    +0.000 NA
ATOM     30  C   UNL     1       8.392  11.464  17.744  0.00  0.00    +0.000 C 
ATOM     31  C   UNL     1       9.276  10.158  19.530  0.00  0.00    +0.000 C 
ENDBRANCH  28  29
ENDBRANCH  27  28
ENDBRANCH  25  27
ENDBRANCH  12  23
BRANCH  12  32
ATOM     32  O   UNL     1       6.150   3.353  18.143  0.00  0.00    +0.000 OA
ATOM     33  H   UNL     1       7.116   3.360  18.308  0.00  0.00    +0.000 HD
ENDBRANCH  12  32
TORSDOF 8
ENDMDL
MODEL 2
REMARK VINA RESULT:      -6.7      6.829      8.972
REMARK  Name = 
REMARK  11 active torsions:
REMARK  status: ('A' for Active; 'I' for Inactive)
REMARK    1  A    between atoms: C_1  and  C_2
REMARK    2  A    between atoms: C_2  and  O_3
REMARK    3  A    between atoms: O_3  and  C_4
REMARK    4  A    between atoms: C_7  and  N_8
REMARK    5  A    between atoms: C_19  and  O_20
REMARK    6  A    between atoms: C_19  and  C_21
REMARK    7  A    between atoms: N_23  and  C_24
REMARK    8  A    between atoms: C_24  and  C_25
REMARK    9  A    between atoms: C_25  and  N_26
REMARK   10  A    between atoms: N_26  and  C_27
REMARK   11  A    between atoms: N_26  and  C_28
REMARK                            x       y       z     vdW  Elec       q    Type
REMARK                         _______ _______ _______ _____ _____    ______ ____
ROOT
ATOM      1  N   UNL     1       0.376  10.821  19.490  0.00  0.00    +0.000 N 
ATOM      2  C   UNL     1      -0.828  10.897  18.701  0.00  0.00    +0.000 C 
ATOM      3  O   UNL     1      -1.504   9.944  18.317  0.00  0.00    +0.000 OA
ATOM      4  N   UNL     1      -1.318  12.194  18.457  0.00  0.00    +0.000 N 
ATOM      5  C   UNL     1      -1.492  12.960  19.633  0.00  0.00    +0.000 A 
ATOM      6  C   UNL     1      -2.797  13.404  19.872  0.00  0.00    +0.000 A 
ATOM      7  C   UNL     1      -3.286  13.321  21.166  0.00  0.00    +0.000 A 
ATOM      8  C   UNL     1      -2.483  12.776  22.164  0.00  0.00    +0.000 A 
ATOM      9 BR   UNL     1      -3.309  12.220  23.776  0.00  0.00    +0.000 Br
ATOM     10  C   UNL     1      -1.126  12.485  21.919  0.00  0.00    +0.000 A 
ATOM     11  C   UNL     1      -0.579  12.677  20.638  0.00  0.00    +0.000 A 
ATOM     12  C   UNL     1       0.754  12.090  20.133  0.00  0.00    +0.000 C 
ATOM     13  H   UNL     1      -0.665  12.666  17.828  0.00  0.00    +0.000 HD
ENDROOT
BRANCH   1  17
ATOM     14  C   UNL     1       2.293   6.964  19.493  0.00  0.00    +0.000 A 
ATOM     15  C   UNL     1       2.364   7.826  18.412  0.00  0.00    +0.000 A 
ATOM     16  C   UNL     1       1.802   9.101  18.479  0.00  0.00    +0.000 A 
ATOM     17  C   UNL     1       1.079   9.564  19.591  0.00  0.00    +0.000 A 
ATOM     18  C   UNL     1       1.096   8.714  20.713  0.00  0.00    +0.000 A 
ATOM     19  C   UNL     1       1.693   7.427  20.662  0.00  0.00    +0.000 A 
BRANCH  14  20
ATOM     20  O   UNL     1       2.798   5.729  19.232  0.00  0.00    +0.000 OA
BRANCH  20  22
ATOM     21  C   UNL     1       1.611   4.268  17.801  0.00  0.00    +0.000 C 
ATOM     22  C   UNL     1       2.769   5.251  17.900  0.00  0.00    +0.000 C 
ENDBRANCH  20  22
ENDBRANCH  14  20
ENDBRANCH   1  17
BRANCH  12  23
ATOM     23  C   UNL     1       1.517  12.906  18.932  0.00  0.00    +0.000 C 
ATOM     24  O   UNL     1       2.238  12.356  18.091  0.00  0.00    +0.000 OA
ATOM     25  N   UNL     1       1.472  14.296  19.006  0.00  0.00    +0.000 N 
ATOM     26  H   UNL     1       0.952  14.685  19.784  0.00  0.00    +0.000 HD
BRANCH  25  27
ATOM     27  C   UNL     1       2.540  15.136  18.449  0.00  0.00    +0.000 C 
BRANCH  27  28
ATOM     28  C   UNL     1       2.936  16.424  19.218  0.00  0.00    +0.000 C 
BRANCH  28  29
ATOM     29  N   UNL     1       2.261  17.678  18.820  0.00  0.00    +0.000 NA
ATOM     30  C   UNL     1       1.681  17.607  17.477  0.00  0.00    +0.000 C 
ATOM     31  C   UNL     1       1.184  17.979  19.777  0.00  0.00    +0.000 C 
ENDBRANCH  28  29
ENDBRANCH  27  28
ENDBRANCH  25  27
ENDBRANCH  12  23
BRANCH  12  32
ATOM     32  O   UNL     1       1.644  11.999  21.241  0.00  0.00    +0.000 OA
ATOM     33  H   UNL     1       2.393  12.591  21.019  0.00  0.00    +0.000 HD
ENDBRANCH  12  32
TORSDOF 8
ENDMDL
MODEL 3
REMARK VINA RESULT:      -6.6      6.698      9.020
REMARK  Name = 
REMARK  11 active torsions:
REMARK  status: ('A' for Active; 'I' for Inactive)
REMARK    1  A    between atoms: C_1  and  C_2
REMARK    2  A    between atoms: C_2  and  O_3
REMARK    3  A    between atoms: O_3  and  C_4
REMARK    4  A    between atoms: C_7  and  N_8
REMARK    5  A    between atoms: C_19  and  O_20
REMARK    6  A    between atoms: C_19  and  C_21
REMARK    7  A    between atoms: N_23  and  C_24
REMARK    8  A    between atoms: C_24  and  C_25
REMARK    9  A    between atoms: C_25  and  N_26
REMARK   10  A    between atoms: N_26  and  C_27
REMARK   11  A    between atoms: N_26  and  C_28
REMARK                            x       y       z     vdW  Elec       q    Type
REMARK                         _______ _______ _______ _____ _____    ______ ____
ROOT
ATOM      1  N   UNL     1       0.360  10.999  19.474  0.00  0.00    +0.000 N 
ATOM      2  C   UNL     1      -0.802  11.293  18.673  0.00  0.00    +0.000 C 
ATOM      3  O   UNL     1      -1.559  10.468  18.164  0.00  0.00    +0.000 OA
ATOM      4  N   UNL     1      -1.147  12.654  18.574  0.00  0.00    +0.000 N 
ATOM      5  C   UNL     1      -1.281  13.294  19.829  0.00  0.00    +0.000 A 
ATOM      6  C   UNL     1      -2.542  13.843  20.090  0.00  0.00    +0.000 A 
ATOM      7  C   UNL     1      -3.081  13.664  21.354  0.00  0.00    +0.000 A 
ATOM      8  C   UNL     1      -2.372  12.924  22.297  0.00  0.00    +0.000 A 
ATOM      9 BR   UNL     1      -3.307  12.277  23.813  0.00  0.00    +0.000 Br
ATOM     10  C   UNL     1      -1.046  12.521  22.050  0.00  0.00    +0.000 A 
ATOM     11  C   UNL     1      -0.437  12.800  20.812  0.00  0.00    +0.000 A 
ATOM     12  C   UNL     1       0.844  12.137  20.271  0.00  0.00    +0.000 C 
ATOM     13  H   UNL     1      -0.428  13.123  18.020  0.00  0.00    +0.000 HD
ENDROOT
BRANCH   1  17
ATOM     14  C   UNL     1       2.233   7.125  19.672  0.00  0.00    +0.000 A 
ATOM     15  C   UNL     1       1.476   7.636  20.713  0.00  0.00    +0.000 A 
ATOM     16  C   UNL     1       0.815   8.858  20.581  0.00  0.00    +0.000 A 
ATOM     17  C   UNL     1       0.925   9.671  19.440  0.00  0.00    +0.000 A 
ATOM     18  C   UNL     1       1.620   9.096  18.359  0.00  0.00    +0.000 A 
ATOM     19  C   UNL     1       2.270   7.839  18.476  0.00  0.00    +0.000 A 
BRANCH  14  20
ATOM     20  O   UNL     1       2.892   5.981  19.996  0.00  0.00    +0.000 OA
BRANCH  20  22
ATOM     21  C   UNL     1       1.442   4.137  19.694  0.00  0.00    +0.000 C 
ATOM     22  C   UNL     1       2.197   4.977  20.714  0.00  0.00    +0.000 C 
ENDBRANCH  20  22
ENDBRANCH  14  20
ENDBRANCH   1  17
BRANCH  12  23
ATOM     23  C   UNL     1       1.729  13.001  19.192  0.00  0.00    +0.000 C 
ATOM     24  O   UNL     1       2.050  12.568  18.080  0.00  0.00    +0.000 OA
ATOM     25  N   UNL     1       2.273  14.195  19.658  0.00  0.00    +0.000 N 
ATOM     26  H   UNL     1       2.059  14.440  20.618  0.00  0.00    +0.000 HD
BRANCH  25  27
ATOM     27  C   UNL     1       3.518  14.744  19.107  0.00  0.00    +0.000 C 
BRANCH  27  28
ATOM     28  C   UNL     1       3.415  15.847  18.021  0.00  0.00    +0.000 C 
BRANCH  28  29
ATOM     29  N   UNL     1       3.127  17.222  18.484  0.00  0.00    +0.000 NA
ATOM     30  C   UNL     1       1.705  17.562  18.396  0.00  0.00    +0.000 C 
ATOM     31  C   UNL     1       3.555  17.367  19.884  0.00  0.00    +0.000 C 
ENDBRANCH  28  29
ENDBRANCH  27  28
ENDBRANCH  25  27
ENDBRANCH  12  23
BRANCH  12  32
ATOM     32  O   UNL     1       1.682  11.825  21.379  0.00  0.00    +0.000 OA
ATOM     33  H   UNL     1       1.085  11.806  22.157  0.00  0.00    +0.000 HD
ENDBRANCH  12  32
TORSDOF 8
ENDMDL
MODEL 4
REMARK VINA RESULT:      -6.6      6.599      8.971
REMARK  Name = 
REMARK  11 active torsions:
REMARK  status: ('A' for Active; 'I' for Inactive)
REMARK    1  A    between atoms: C_1  and  C_2
REMARK    2  A    between atoms: C_2  and  O_3
REMARK    3  A    between atoms: O_3  and  C_4
REMARK    4  A    between atoms: C_7  and  N_8
REMARK    5  A    between atoms: C_19  and  O_20
REMARK    6  A    between atoms: C_19  and  C_21
REMARK    7  A    between atoms: N_23  and  C_24
REMARK    8  A    between atoms: C_24  and  C_25
REMARK    9  A    between atoms: C_25  and  N_26
REMARK   10  A    between atoms: N_26  and  C_27
REMARK   11  A    between atoms: N_26  and  C_28
REMARK                            x       y       z     vdW  Elec       q    Type
REMARK                         _______ _______ _______ _____ _____    ______ ____
ROOT
ATOM      1  N   UNL     1       0.341  10.770  19.599  0.00  0.00    +0.000 N 
ATOM      2  C   UNL     1      -0.850  10.850  18.790  0.00  0.00    +0.000 C 
ATOM      3  O   UNL     1      -1.540   9.900  18.422  0.00  0.00    +0.000 OA
ATOM      4  N   UNL     1      -1.308  12.149  18.504  0.00  0.00    +0.000 N 
ATOM      5  C   UNL     1      -1.482  12.951  19.656  0.00  0.00    +0.000 A 
ATOM      6  C   UNL     1      -2.781  13.429  19.864  0.00  0.00    +0.000 A 
ATOM      7  C   UNL     1      -3.291  13.392  21.152  0.00  0.00    +0.000 A 
ATOM      8  C   UNL     1      -2.513  12.857  22.176  0.00  0.00    +0.000 A 
ATOM      9 BR   UNL     1      -3.374  12.363  23.790  0.00  0.00    +0.000 Br
ATOM     10  C   UNL     1      -1.160  12.532  21.959  0.00  0.00    +0.000 A 
ATOM     11  C   UNL     1      -0.590  12.676  20.682  0.00  0.00    +0.000 A 
ATOM     12  C   UNL     1       0.737  12.048  20.213  0.00  0.00    +0.000 C 
ATOM     13  H   UNL     1      -0.637  12.590  17.872  0.00  0.00    +0.000 HD
ENDROOT
BRANCH   1  17
ATOM     14  C   UNL     1       2.174   6.875  19.737  0.00  0.00    +0.000 A 
ATOM     15  C   UNL     1       2.275   7.703  18.632  0.00  0.00    +0.000 A 
ATOM     16  C   UNL     1       1.740   8.991  18.655  0.00  0.00    +0.000 A 
ATOM     17  C   UNL     1       1.015   9.502  19.744  0.00  0.00    +0.000 A 
ATOM     18  C   UNL     1       1.002   8.685  20.891  0.00  0.00    +0.000 A 
ATOM     19  C   UNL     1       1.572   7.385  20.885  0.00  0.00    +0.000 A 
BRANCH  14  20
ATOM     20  O   UNL     1       2.655   5.622  19.518  0.00  0.00    +0.000 OA
BRANCH  20  22
ATOM     21  C   UNL     1       1.176   3.866  20.080  0.00  0.00    +0.000 C 
ATOM     22  C   UNL     1       2.427   4.625  20.497  0.00  0.00    +0.000 C 
ENDBRANCH  20  22
ENDBRANCH  14  20
ENDBRANCH   1  17
BRANCH  12  23
ATOM     23  C   UNL     1       1.535  12.815  19.001  0.00  0.00    +0.000 C 
ATOM     24  O   UNL     1       2.071  12.219  18.060  0.00  0.00    +0.000 OA
ATOM     25  N   UNL     1       1.750  14.180  19.173  0.00  0.00    +0.000 N 
ATOM     26  H   UNL     1       1.377  14.588  20.022  0.00  0.00    +0.000 HD
BRANCH  25  27
ATOM     27  C   UNL     1       2.904  14.862  18.573  0.00  0.00    +0.000 C 
BRANCH  27  28
ATOM     28  C   UNL     1       2.760  16.363  18.210  0.00  0.00    +0.000 C 
BRANCH  28  29
ATOM     29  N   UNL     1       3.504  17.331  19.045  0.00  0.00    +0.000 NA
ATOM     30  C   UNL     1       2.841  17.602  20.323  0.00  0.00    +0.000 C 
ATOM     31  C   UNL     1       4.850  16.806  19.321  0.00  0.00    +0.000 C 
ENDBRANCH  28  29
ENDBRANCH  27  28
ENDBRANCH  25  27
ENDBRANCH  12  23
BRANCH  12  32
ATOM     32  O   UNL     1       1.609  11.969  21.335  0.00  0.00    +0.000 OA
ATOM     33  H   UNL     1       1.258  12.617  21.981  0.00  0.00    +0.000 HD
ENDBRANCH  12  32
TORSDOF 8
ENDMDL
MODEL 5
REMARK VINA RESULT:      -6.6      7.050      9.331
REMARK  Name = 
REMARK  11 active torsions:
REMARK  status: ('A' for Active; 'I' for Inactive)
REMARK    1  A    between atoms: C_1  and  C_2
REMARK    2  A    between atoms: C_2  and  O_3
REMARK    3  A    between atoms: O_3  and  C_4
REMARK    4  A    between atoms: C_7  and  N_8
REMARK    5  A    between atoms: C_19  and  O_20
REMARK    6  A    between atoms: C_19  and  C_21
REMARK    7  A    between atoms: N_23  and  C_24
REMARK    8  A    between atoms: C_24  and  C_25
REMARK    9  A    between atoms: C_25  and  N_26
REMARK   10  A    between atoms: N_26  and  C_27
REMARK   11  A    between atoms: N_26  and  C_28
REMARK                            x       y       z     vdW  Elec       q    Type
REMARK                         _______ _______ _______ _____ _____    ______ ____
ROOT
ATOM      1  N   UNL     1      -0.188  11.214  19.833  0.00  0.00    +0.000 N 
ATOM      2  C   UNL     1      -1.408  11.198  19.065  0.00  0.00    +0.000 C 
ATOM      3  O   UNL     1      -2.008  10.195  18.680  0.00  0.00    +0.000 OA
ATOM      4  N   UNL     1      -2.010  12.451  18.847  0.00  0.00    +0.000 N 
ATOM      5  C   UNL     1      -2.226  13.186  20.036  0.00  0.00    +0.000 A 
ATOM      6  C   UNL     1      -3.560  13.516  20.303  0.00  0.00    +0.000 A 
ATOM      7  C   UNL     1      -4.017  13.376  21.604  0.00  0.00    +0.000 A 
ATOM      8  C   UNL     1      -3.152  12.889  22.580  0.00  0.00    +0.000 A 
ATOM      9 BR   UNL     1      -3.899  12.246  24.199  0.00  0.00    +0.000 Br
ATOM     10  C   UNL     1      -1.781  12.717  22.309  0.00  0.00    +0.000 A 
ATOM     11  C   UNL     1      -1.274  12.969  21.021  0.00  0.00    +0.000 A 
ATOM     12  C   UNL     1       0.094  12.503  20.486  0.00  0.00    +0.000 C 
ATOM     13  H   UNL     1      -1.411  12.983  18.213  0.00  0.00    +0.000 HD
ENDROOT
BRANCH   1  17
ATOM     14  C   UNL     1       2.048   7.533  19.751  0.00  0.00    +0.000 A 
ATOM     15  C   UNL     1       2.030   8.413  18.683  0.00  0.00    +0.000 A 
ATOM     16  C   UNL     1       1.363   9.635  18.776  0.00  0.00    +0.000 A 
ATOM     17  C   UNL     1       0.620  10.020  19.905  0.00  0.00    +0.000 A 
ATOM     18  C   UNL     1       0.726   9.159  21.014  0.00  0.00    +0.000 A 
ATOM     19  C   UNL     1       1.429   7.928  20.935  0.00  0.00    +0.000 A 
BRANCH  14  20
ATOM     20  O   UNL     1       2.652   6.350  19.465  0.00  0.00    +0.000 OA
BRANCH  20  22
ATOM     21  C   UNL     1       1.901   4.732  17.913  0.00  0.00    +0.000 C 
ATOM     22  C   UNL     1       2.776   5.961  18.109  0.00  0.00    +0.000 C 
ENDBRANCH  20  22
ENDBRANCH  14  20
ENDBRANCH   1  17
BRANCH  12  23
ATOM     23  C   UNL     1       0.764  13.395  19.282  0.00  0.00    +0.000 C 
ATOM     24  O   UNL     1       1.028  12.935  18.166  0.00  0.00    +0.000 OA
ATOM     25  N   UNL     1       1.204  14.669  19.632  0.00  0.00    +0.000 N 
ATOM     26  H   UNL     1       1.053  14.945  20.595  0.00  0.00    +0.000 HD
BRANCH  25  27
ATOM     27  C   UNL     1       2.318  15.321  18.932  0.00  0.00    +0.000 C 
BRANCH  27  28
ATOM     28  C   UNL     1       2.412  16.868  18.988  0.00  0.00    +0.000 C 
BRANCH  28  29
ATOM     29  N   UNL     1       3.735  17.451  19.304  0.00  0.00    +0.000 NA
ATOM     30  C   UNL     1       3.977  17.552  20.745  0.00  0.00    +0.000 C 
ATOM     31  C   UNL     1       4.791  16.616  18.711  0.00  0.00    +0.000 C 
ENDBRANCH  28  29
ENDBRANCH  27  28
ENDBRANCH  25  27
ENDBRANCH  12  23
BRANCH  12  32
ATOM     32  O   UNL     1       1.008  12.474  21.576  0.00  0.00    +0.000 OA
ATOM     33  H   UNL     1       1.864  12.195  21.189  0.00  0.00    +0.000 HD
ENDBRANCH  12  32
TORSDOF 8
ENDMDL
MODEL 6
REMARK VINA RESULT:      -6.6      6.812      8.997
REMARK  Name = 
REMARK  11 active torsions:
REMARK  status: ('A' for Active; 'I' for Inactive)
REMARK    1  A    between atoms: C_1  and  C_2
REMARK    2  A    between atoms: C_2  and  O_3
REMARK    3  A    between atoms: O_3  and  C_4
REMARK    4  A    between atoms: C_7  and  N_8
REMARK    5  A    between atoms: C_19  and  O_20
REMARK    6  A    between atoms: C_19  and  C_21
REMARK    7  A    between atoms: N_23  and  C_24
REMARK    8  A    between atoms: C_24  and  C_25
REMARK    9  A    between atoms: C_25  and  N_26
REMARK   10  A    between atoms: N_26  and  C_27
REMARK   11  A    between atoms: N_26  and  C_28
REMARK                            x       y       z     vdW  Elec       q    Type
REMARK                         _______ _______ _______ _____ _____    ______ ____
ROOT
ATOM      1  N   UNL     1       0.389  11.258  19.399  0.00  0.00    +0.000 N 
ATOM      2  C   UNL     1      -0.767  11.593  18.606  0.00  0.00    +0.000 C 
ATOM      3  O   UNL     1      -1.511  10.794  18.037  0.00  0.00    +0.000 OA
ATOM      4  N   UNL     1      -1.124  12.954  18.588  0.00  0.00    +0.000 N 
ATOM      5  C   UNL     1      -1.278  13.512  19.879  0.00  0.00    +0.000 A 
ATOM      6  C   UNL     1      -2.546  14.033  20.160  0.00  0.00    +0.000 A 
ATOM      7  C   UNL     1      -3.097  13.769  21.404  0.00  0.00    +0.000 A 
ATOM      8  C   UNL     1      -2.391  12.978  22.307  0.00  0.00    +0.000 A 
ATOM      9 BR   UNL     1      -3.335  12.228  23.769  0.00  0.00    +0.000 Br
ATOM     10  C   UNL     1      -1.058  12.603  22.049  0.00  0.00    +0.000 A 
ATOM     11  C   UNL     1      -0.439  12.965  20.839  0.00  0.00    +0.000 A 
ATOM     12  C   UNL     1       0.854  12.349  20.271  0.00  0.00    +0.000 C 
ATOM     13  H   UNL     1      -0.404  13.463  18.072  0.00  0.00    +0.000 HD
ENDROOT
BRANCH   1  17
ATOM     14  C   UNL     1       2.311   7.404  19.363  0.00  0.00    +0.000 A 
ATOM     15  C   UNL     1       1.589   7.861  20.452  0.00  0.00    +0.000 A 
ATOM     16  C   UNL     1       0.910   9.079  20.397  0.00  0.00    +0.000 A 
ATOM     17  C   UNL     1       0.967   9.940  19.288  0.00  0.00    +0.000 A 
ATOM     18  C   UNL     1       1.626   9.419  18.158  0.00  0.00    +0.000 A 
ATOM     19  C   UNL     1       2.294   8.167  18.198  0.00  0.00    +0.000 A 
BRANCH  14  20
ATOM     20  O   UNL     1       2.993   6.255  19.614  0.00  0.00    +0.000 OA
BRANCH  20  22
ATOM     21  C   UNL     1       5.123   5.330  19.166  0.00  0.00    +0.000 C 
ATOM     22  C   UNL     1       3.767   5.684  18.574  0.00  0.00    +0.000 C 
ENDBRANCH  20  22
ENDBRANCH  14  20
ENDBRANCH   1  17
BRANCH  12  23
ATOM     23  C   UNL     1       1.742  13.287  19.259  0.00  0.00    +0.000 C 
ATOM     24  O   UNL     1       2.099  12.918  18.134  0.00  0.00    +0.000 OA
ATOM     25  N   UNL     1       2.246  14.468  19.798  0.00  0.00    +0.000 N 
ATOM     26  H   UNL     1       2.004  14.658  20.762  0.00  0.00    +0.000 HD
BRANCH  25  27
ATOM     27  C   UNL     1       3.490  15.072  19.304  0.00  0.00    +0.000 C 
BRANCH  27  28
ATOM     28  C   UNL     1       3.588  16.620  19.269  0.00  0.00    +0.000 C 
BRANCH  28  29
ATOM     29  N   UNL     1       3.040  17.302  18.076  0.00  0.00    +0.000 NA
ATOM     30  C   UNL     1       3.153  16.491  16.861  0.00  0.00    +0.000 C 
ATOM     31  C   UNL     1       1.618  17.611  18.298  0.00  0.00    +0.000 C 
ENDBRANCH  28  29
ENDBRANCH  27  28
ENDBRANCH  25  27
ENDBRANCH  12  23
BRANCH  12  32
ATOM     32  O   UNL     1       1.682  11.974  21.367  0.00  0.00    +0.000 OA
ATOM     33  H   UNL     1       1.584  12.696  22.023  0.00  0.00    +0.000 HD
ENDBRANCH  12  32
TORSDOF 8
ENDMDL
MODEL 7
REMARK VINA RESULT:      -6.5      6.715      9.031
REMARK  Name = 
REMARK  11 active torsions:
REMARK  status: ('A' for Active; 'I' for Inactive)
REMARK    1  A    between atoms: C_1  and  C_2
REMARK    2  A    between atoms: C_2  and  O_3
REMARK    3  A    between atoms: O_3  and  C_4
REMARK    4  A    between atoms: C_7  and  N_8
REMARK    5  A    between atoms: C_19  and  O_20
REMARK    6  A    between atoms: C_19  and  C_21
REMARK    7  A    between atoms: N_23  and  C_24
REMARK    8  A    between atoms: C_24  and  C_25
REMARK    9  A    between atoms: C_25  and  N_26
REMARK   10  A    between atoms: N_26  and  C_27
REMARK   11  A    between atoms: N_26  and  C_28
REMARK                            x       y       z     vdW  Elec       q    Type
REMARK                         _______ _______ _______ _____ _____    ______ ____
ROOT
ATOM      1  N   UNL     1       0.395  11.338  19.409  0.00  0.00    +0.000 N 
ATOM      2  C   UNL     1      -0.768  11.676  18.627  0.00  0.00    +0.000 C 
ATOM      3  O   UNL     1      -1.528  10.879  18.079  0.00  0.00    +0.000 OA
ATOM      4  N   UNL     1      -1.109  13.041  18.596  0.00  0.00    +0.000 N 
ATOM      5  C   UNL     1      -1.238  13.617  19.882  0.00  0.00    +0.000 A 
ATOM      6  C   UNL     1      -2.496  14.157  20.173  0.00  0.00    +0.000 A 
ATOM      7  C   UNL     1      -3.033  13.916  21.428  0.00  0.00    +0.000 A 
ATOM      8  C   UNL     1      -2.324  13.129  22.331  0.00  0.00    +0.000 A 
ATOM      9 BR   UNL     1      -3.256  12.409  23.816  0.00  0.00    +0.000 Br
ATOM     10  C   UNL     1      -0.999  12.735  22.061  0.00  0.00    +0.000 A 
ATOM     11  C   UNL     1      -0.393  13.074  20.837  0.00  0.00    +0.000 A 
ATOM     12  C   UNL     1       0.885  12.435  20.260  0.00  0.00    +0.000 C 
ATOM     13  H   UNL     1      -0.390  13.535  18.064  0.00  0.00    +0.000 HD
ENDROOT
BRANCH   1  17
ATOM     14  C   UNL     1       2.263   7.457  19.406  0.00  0.00    +0.000 A 
ATOM     15  C   UNL     1       1.525   7.924  20.480  0.00  0.00    +0.000 A 
ATOM     16  C   UNL     1       0.865   9.151  20.413  0.00  0.00    +0.000 A 
ATOM     17  C   UNL     1       0.957  10.013  19.308  0.00  0.00    +0.000 A 
ATOM     18  C   UNL     1       1.632   9.484  18.190  0.00  0.00    +0.000 A 
ATOM     19  C   UNL     1       2.281   8.223  18.242  0.00  0.00    +0.000 A 
BRANCH  14  20
ATOM     20  O   UNL     1       2.924   6.299  19.668  0.00  0.00    +0.000 OA
BRANCH  20  22
ATOM     21  C   UNL     1       2.250   4.398  20.902  0.00  0.00    +0.000 C 
ATOM     22  C   UNL     1       2.226   5.074  19.539  0.00  0.00    +0.000 C 
ENDBRANCH  20  22
ENDBRANCH  14  20
ENDBRANCH   1  17
BRANCH  12  23
ATOM     23  C   UNL     1       1.769  13.349  19.223  0.00  0.00    +0.000 C 
ATOM     24  O   UNL     1       2.053  12.988  18.075  0.00  0.00    +0.000 OA
ATOM     25  N   UNL     1       2.358  14.492  19.758  0.00  0.00    +0.000 N 
ATOM     26  H   UNL     1       2.172  14.674  20.737  0.00  0.00    +0.000 HD
BRANCH  25  27
ATOM     27  C   UNL     1       3.605  15.045  19.216  0.00  0.00    +0.000 C 
BRANCH  27  28
ATOM     28  C   UNL     1       3.599  16.514  18.715  0.00  0.00    +0.000 C 
BRANCH  28  29
ATOM     29  N   UNL     1       4.683  17.395  19.201  0.00  0.00    +0.000 NA
ATOM     30  C   UNL     1       4.535  17.745  20.616  0.00  0.00    +0.000 C 
ATOM     31  C   UNL     1       5.979  16.722  19.021  0.00  0.00    +0.000 C 
ENDBRANCH  28  29
ENDBRANCH  27  28
ENDBRANCH  25  27
ENDBRANCH  12  23
BRANCH  12  32
ATOM     32  O   UNL     1       1.725  12.066  21.349  0.00  0.00    +0.000 OA
ATOM     33  H   UNL     1       1.959  12.908  21.792  0.00  0.00    +0.000 HD
ENDBRANCH  12  32
TORSDOF 8
ENDMDL
MODEL 8
REMARK VINA RESULT:      -6.5      7.163      9.308
REMARK  Name = 
REMARK  11 active torsions:
REMARK  status: ('A' for Active; 'I' for Inactive)
REMARK    1  A    between atoms: C_1  and  C_2
REMARK    2  A    between atoms: C_2  and  O_3
REMARK    3  A    between atoms: O_3  and  C_4
REMARK    4  A    between atoms: C_7  and  N_8
REMARK    5  A    between atoms: C_19  and  O_20
REMARK    6  A    between atoms: C_19  and  C_21
REMARK    7  A    between atoms: N_23  and  C_24
REMARK    8  A    between atoms: C_24  and  C_25
REMARK    9  A    between atoms: C_25  and  N_26
REMARK   10  A    between atoms: N_26  and  C_27
REMARK   11  A    between atoms: N_26  and  C_28
REMARK                            x       y       z     vdW  Elec       q    Type
REMARK                         _______ _______ _______ _____ _____    ______ ____
ROOT
ATOM      1  N   UNL     1       0.311  11.135  19.346  0.00  0.00    +0.000 N 
ATOM      2  C   UNL     1      -0.926  11.226  18.612  0.00  0.00    +0.000 C 
ATOM      3  O   UNL     1      -1.592  10.280  18.196  0.00  0.00    +0.000 OA
ATOM      4  N   UNL     1      -1.458  12.521  18.468  0.00  0.00    +0.000 N 
ATOM      5  C   UNL     1      -1.603  13.209  19.696  0.00  0.00    +0.000 A 
ATOM      6  C   UNL     1      -2.908  13.601  20.013  0.00  0.00    +0.000 A 
ATOM      7  C   UNL     1      -3.342  13.426  21.317  0.00  0.00    +0.000 A 
ATOM      8  C   UNL     1      -2.484  12.843  22.247  0.00  0.00    +0.000 A 
ATOM      9 BR   UNL     1      -3.229  12.167  23.853  0.00  0.00    +0.000 Br
ATOM     10  C   UNL     1      -1.132  12.606  21.931  0.00  0.00    +0.000 A 
ATOM     11  C   UNL     1      -0.642  12.891  20.644  0.00  0.00    +0.000 A 
ATOM     12  C   UNL     1       0.683  12.373  20.051  0.00  0.00    +0.000 C 
ATOM     13  H   UNL     1      -0.844  13.048  17.844  0.00  0.00    +0.000 HD
ENDROOT
BRANCH   1  17
ATOM     14  C   UNL     1       2.325   7.341  19.034  0.00  0.00    +0.000 A 
ATOM     15  C   UNL     1       2.332   8.270  18.008  0.00  0.00    +0.000 A 
ATOM     16  C   UNL     1       1.740   9.522  18.175  0.00  0.00    +0.000 A 
ATOM     17  C   UNL     1       1.049   9.895  19.341  0.00  0.00    +0.000 A 
ATOM     18  C   UNL     1       1.132   8.978  20.406  0.00  0.00    +0.000 A 
ATOM     19  C   UNL     1       1.759   7.713  20.251  0.00  0.00    +0.000 A 
BRANCH  14  20
ATOM     20  O   UNL     1       2.851   6.140  18.676  0.00  0.00    +0.000 OA
BRANCH  20  22
ATOM     21  C   UNL     1       5.000   5.297  19.187  0.00  0.00    +0.000 C 
ATOM     22  C   UNL     1       3.554   5.389  19.650  0.00  0.00    +0.000 C 
ENDBRANCH  20  22
ENDBRANCH  14  20
ENDBRANCH   1  17
BRANCH  12  23
ATOM     23  C   UNL     1       1.376  13.282  18.874  0.00  0.00    +0.000 C 
ATOM     24  O   UNL     1       2.099  12.809  17.990  0.00  0.00    +0.000 OA
ATOM     25  N   UNL     1       1.266  14.663  19.018  0.00  0.00    +0.000 N 
ATOM     26  H   UNL     1       0.750  14.989  19.826  0.00  0.00    +0.000 HD
BRANCH  25  27
ATOM     27  C   UNL     1       2.279  15.579  18.477  0.00  0.00    +0.000 C 
BRANCH  27  28
ATOM     28  C   UNL     1       2.004  17.104  18.556  0.00  0.00    +0.000 C 
BRANCH  28  29
ATOM     29  N   UNL     1       0.753  17.595  17.937  0.00  0.00    +0.000 NA
ATOM     30  C   UNL     1      -0.033  18.435  18.843  0.00  0.00    +0.000 C 
ATOM     31  C   UNL     1       1.077  18.380  16.736  0.00  0.00    +0.000 C 
ENDBRANCH  28  29
ENDBRANCH  27  28
ENDBRANCH  25  27
ENDBRANCH  12  23
BRANCH  12  32
ATOM     32  O   UNL     1       1.620  12.240  21.115  0.00  0.00    +0.000 OA
ATOM     33  H   UNL     1       1.095  12.348  21.936  0.00  0.00    +0.000 HD
ENDBRANCH  12  32
TORSDOF 8
ENDMDL
MODEL 9
REMARK VINA RESULT:      -6.5      6.536      8.868
REMARK  Name = 
REMARK  11 active torsions:
REMARK  status: ('A' for Active; 'I' for Inactive)
REMARK    1  A    between atoms: C_1  and  C_2
REMARK    2  A    between atoms: C_2  and  O_3
REMARK    3  A    between atoms: O_3  and  C_4
REMARK    4  A    between atoms: C_7  and  N_8
REMARK    5  A    between atoms: C_19  and  O_20
REMARK    6  A    between atoms: C_19  and  C_21
REMARK    7  A    between atoms: N_23  and  C_24
REMARK    8  A    between atoms: C_24  and  C_25
REMARK    9  A    between atoms: C_25  and  N_26
REMARK   10  A    between atoms: N_26  and  C_27
REMARK   11  A    between atoms: N_26  and  C_28
REMARK                            x       y       z     vdW  Elec       q    Type
REMARK                         _______ _______ _______ _____ _____    ______ ____
ROOT
ATOM      1  N   UNL     1       0.226  11.146  19.463  0.00  0.00    +0.000 N 
ATOM      2  C   UNL     1      -1.003  11.222  18.713  0.00  0.00    +0.000 C 
ATOM      3  O   UNL     1      -1.663  10.267  18.307  0.00  0.00    +0.000 OA
ATOM      4  N   UNL     1      -1.535  12.513  18.540  0.00  0.00    +0.000 N 
ATOM      5  C   UNL     1      -1.694  13.223  19.754  0.00  0.00    +0.000 A 
ATOM      6  C   UNL     1      -3.004  13.618  20.050  0.00  0.00    +0.000 A 
ATOM      7  C   UNL     1      -3.451  13.465  21.352  0.00  0.00    +0.000 A 
ATOM      8  C   UNL     1      -2.603  12.901  22.301  0.00  0.00    +0.000 A 
ATOM      9 BR   UNL     1      -3.365  12.252  23.911  0.00  0.00    +0.000 Br
ATOM     10  C   UNL     1      -1.247  12.660  22.005  0.00  0.00    +0.000 A 
ATOM     11  C   UNL     1      -0.744  12.923  20.718  0.00  0.00    +0.000 A 
ATOM     12  C   UNL     1       0.589  12.397  20.150  0.00  0.00    +0.000 C 
ATOM     13  H   UNL     1      -0.915  13.030  17.914  0.00  0.00    +0.000 HD
ENDROOT
BRANCH   1  17
ATOM     14  C   UNL     1       2.250   7.351  19.239  0.00  0.00    +0.000 A 
ATOM     15  C   UNL     1       2.272   8.264  18.200  0.00  0.00    +0.000 A 
ATOM     16  C   UNL     1       1.676   9.518  18.339  0.00  0.00    +0.000 A 
ATOM     17  C   UNL     1       0.966   9.907  19.488  0.00  0.00    +0.000 A 
ATOM     18  C   UNL     1       1.033   9.006  20.568  0.00  0.00    +0.000 A 
ATOM     19  C   UNL     1       1.665   7.740  20.442  0.00  0.00    +0.000 A 
BRANCH  14  20
ATOM     20  O   UNL     1       2.783   6.145  18.908  0.00  0.00    +0.000 OA
BRANCH  20  22
ATOM     21  C   UNL     1       1.826   4.143  19.724  0.00  0.00    +0.000 C 
ATOM     22  C   UNL     1       2.934   5.167  19.921  0.00  0.00    +0.000 C 
ENDBRANCH  20  22
ENDBRANCH  14  20
ENDBRANCH   1  17
BRANCH  12  23
ATOM     23  C   UNL     1       1.293  13.286  18.964  0.00  0.00    +0.000 C 
ATOM     24  O   UNL     1       2.015  12.796  18.089  0.00  0.00    +0.000 OA
ATOM     25  N   UNL     1       1.195  14.669  19.091  0.00  0.00    +0.000 N 
ATOM     26  H   UNL     1       0.678  15.009  19.894  0.00  0.00    +0.000 HD
BRANCH  25  27
ATOM     27  C   UNL     1       2.217  15.570  18.543  0.00  0.00    +0.000 C 
BRANCH  27  28
ATOM     28  C   UNL     1       3.477  15.857  19.402  0.00  0.00    +0.000 C 
BRANCH  28  29
ATOM     29  N   UNL     1       4.581  14.876  19.324  0.00  0.00    +0.000 NA
ATOM     30  C   UNL     1       5.142  14.763  17.976  0.00  0.00    +0.000 C 
ATOM     31  C   UNL     1       5.657  15.277  20.245  0.00  0.00    +0.000 C 
ENDBRANCH  28  29
ENDBRANCH  27  28
ENDBRANCH  25  27
ENDBRANCH  12  23
BRANCH  12  32
ATOM     32  O   UNL     1       1.514  12.284  21.226  0.00  0.00    +0.000 OA
ATOM     33  H   UNL     1       2.400  12.361  20.814  0.00  0.00    +0.000 HD
ENDBRANCH  12  32
TORSDOF 8
ENDMDL
