MODEL 1
REMARK VINA RESULT:      -9.0      0.000      0.000
REMARK  Name = 
REMARK  6 active torsions:
REMARK  status: ('A' for Active; 'I' for Inactive)
REMARK    1  A    between atoms: C_1  and  N_2
REMARK    2  A    between atoms: N_2  and  C_3
REMARK    3  A    between atoms: N_2  and  C_11
REMARK    4  A    between atoms: C_3  and  C_4
REMARK    5  A    between atoms: C_17  and  C_18
REMARK    6  A    between atoms: C_19  and  C_20
REMARK                            x       y       z     vdW  Elec       q    Type
REMARK                         _______ _______ _______ _____ _____    ______ ____
ROOT
ATOM      1  C   UNL     1       5.788   5.165  17.158  0.00  0.00    +0.000 A 
ATOM      2  C   UNL     1       5.582   3.992  16.399  0.00  0.00    +0.000 A 
ATOM      3  N   UNL     1       4.701   2.983  16.809  0.00  0.00    +0.000 N 
ATOM      4  N   UNL     1       6.183   3.715  15.228  0.00  0.00    +0.000 NA
ATOM      5  C   UNL     1       7.026   4.635  14.761  0.00  0.00    +0.000 A 
ATOM      6  N   UNL     1       7.356   5.772  15.372  0.00  0.00    +0.000 NA
ATOM      7  C   UNL     1       6.745   6.007  16.557  0.00  0.00    +0.000 A 
ATOM      8  H   UNL     1       3.795   3.372  17.041  0.00  0.00    +0.000 HD
ATOM      9  H   UNL     1       4.652   2.295  16.065  0.00  0.00    +0.000 HD
ENDROOT
BRANCH   1  11
ATOM     10  C   UNL     1       5.651   5.357  19.634  0.00  0.00    +0.000 C 
ATOM     11  N   UNL     1       5.042   5.452  18.311  0.00  0.00    +0.000 N 
BRANCH  11  12
ATOM     12  C   UNL     1       3.570   5.367  18.281  0.00  0.00    +0.000 C 
BRANCH  12  13
ATOM     13  C   UNL     1       2.929   6.723  18.545  0.00  0.00    +0.000 A 
ATOM     14  C   UNL     1       2.938   7.700  17.539  0.00  0.00    +0.000 A 
ATOM     15  C   UNL     1       2.297   8.927  17.731  0.00  0.00    +0.000 A 
ATOM     16  C   UNL     1       1.650   9.202  18.936  0.00  0.00    +0.000 A 
ATOM     17  C   UNL     1       1.667   8.256  19.955  0.00  0.00    +0.000 A 
ATOM     18 BR   UNL     1       0.795   8.615  21.593  0.00  0.00    +0.000 Br
ATOM     19  C   UNL     1       2.309   7.033  19.771  0.00  0.00    +0.000 A 
ENDBRANCH  12  13
ENDBRANCH  11  12
ENDBRANCH   1  11
BRANCH   7  20
ATOM     20  C   UNL     1       7.255   7.210  17.158  0.00  0.00    +0.000 C 
ATOM     21  C   UNL     1       7.714   8.222  17.631  0.00  0.00    +0.000 C 
BRANCH  21  22
ATOM     22  C   UNL     1       8.328   9.418  18.125  0.00  0.00    +0.000 A 
ATOM     23  C   UNL     1       9.114   9.420  19.266  0.00  0.00    +0.000 A 
ATOM     24  C   UNL     1       9.657  10.630  19.720  0.00  0.00    +0.000 A 
ATOM     25  C   UNL     1       9.417  11.829  19.044  0.00  0.00    +0.000 A 
ATOM     26  N   UNL     1       9.970  13.023  19.463  0.00  0.00    +0.000 N 
ATOM     27  C   UNL     1      10.146  13.350  20.885  0.00  0.00    +0.000 C 
ATOM     28  C   UNL     1       9.203  14.489  21.311  0.00  0.00    +0.000 C 
ATOM     29  O   UNL     1       9.329  15.637  20.460  0.00  0.00    +0.000 OA
ATOM     30  C   UNL     1       9.001  15.281  19.106  0.00  0.00    +0.000 C 
ATOM     31  C   UNL     1       9.945  14.194  18.571  0.00  0.00    +0.000 C 
ATOM     32  N   UNL     1       8.674  11.817  17.916  0.00  0.00    +0.000 NA
ATOM     33  C   UNL     1       8.154  10.635  17.488  0.00  0.00    +0.000 A 
ENDBRANCH  21  22
ENDBRANCH   7  20
TORSDOF 5
ENDMDL
MODEL 2
REMARK VINA RESULT:      -9.0      1.672      2.193
REMARK  Name = 
REMARK  6 active torsions:
REMARK  status: ('A' for Active; 'I' for Inactive)
REMARK    1  A    between atoms: C_1  and  N_2
REMARK    2  A    between atoms: N_2  and  C_3
REMARK    3  A    between atoms: N_2  and  C_11
REMARK    4  A    between atoms: C_3  and  C_4
REMARK    5  A    between atoms: C_17  and  C_18
REMARK    6  A    between atoms: C_19  and  C_20
REMARK                            x       y       z     vdW  Elec       q    Type
REMARK                         _______ _______ _______ _____ _____    ______ ____
ROOT
ATOM      1  C   UNL     1       5.974   5.303  17.301  0.00  0.00    +0.000 A 
ATOM      2  C   UNL     1       5.775   4.116  16.563  0.00  0.00    +0.000 A 
ATOM      3  N   UNL     1       4.956   3.078  17.026  0.00  0.00    +0.000 N 
ATOM      4  N   UNL     1       6.327   3.849  15.366  0.00  0.00    +0.000 NA
ATOM      5  C   UNL     1       7.109   4.795  14.849  0.00  0.00    +0.000 A 
ATOM      6  N   UNL     1       7.426   5.951  15.433  0.00  0.00    +0.000 NA
ATOM      7  C   UNL     1       6.866   6.175  16.644  0.00  0.00    +0.000 A 
ATOM      8  H   UNL     1       4.048   3.435  17.300  0.00  0.00    +0.000 HD
ATOM      9  H   UNL     1       4.896   2.380  16.292  0.00  0.00    +0.000 HD
ENDROOT
BRANCH   1  11
ATOM     10  C   UNL     1       5.620   4.886  19.727  0.00  0.00    +0.000 C 
ATOM     11  N   UNL     1       5.275   5.574  18.487  0.00  0.00    +0.000 N 
BRANCH  11  12
ATOM     12  C   UNL     1       3.916   6.143  18.433  0.00  0.00    +0.000 C 
BRANCH  12  13
ATOM     13  C   UNL     1       2.857   5.080  18.696  0.00  0.00    +0.000 A 
ATOM     14  C   UNL     1       2.025   4.658  17.650  0.00  0.00    +0.000 A 
ATOM     15  C   UNL     1       1.092   3.637  17.848  0.00  0.00    +0.000 A 
ATOM     16  C   UNL     1       0.967   3.030  19.099  0.00  0.00    +0.000 A 
ATOM     17  C   UNL     1       1.761   3.465  20.154  0.00  0.00    +0.000 A 
ATOM     18 BR   UNL     1       1.604   2.653  21.853  0.00  0.00    +0.000 Br
ATOM     19  C   UNL     1       2.689   4.488  19.963  0.00  0.00    +0.000 A 
ENDBRANCH  12  13
ENDBRANCH  11  12
ENDBRANCH   1  11
BRANCH   7  20
ATOM     20  C   UNL     1       7.359   7.403  17.209  0.00  0.00    +0.000 C 
ATOM     21  C   UNL     1       7.811   8.426  17.663  0.00  0.00    +0.000 C 
BRANCH  21  22
ATOM     22  C   UNL     1       8.435   9.612  18.166  0.00  0.00    +0.000 A 
ATOM     23  C   UNL     1       9.197   9.605  19.323  0.00  0.00    +0.000 A 
ATOM     24  C   UNL     1       9.751  10.808  19.785  0.00  0.00    +0.000 A 
ATOM     25  C   UNL     1       9.544  12.009  19.102  0.00  0.00    +0.000 A 
ATOM     26  N   UNL     1      10.109  13.194  19.529  0.00  0.00    +0.000 N 
ATOM     27  C   UNL     1      10.261  13.522  20.953  0.00  0.00    +0.000 C 
ATOM     28  C   UNL     1       9.327  14.678  21.357  0.00  0.00    +0.000 C 
ATOM     29  O   UNL     1       9.490  15.822  20.506  0.00  0.00    +0.000 OA
ATOM     30  C   UNL     1       9.184  15.466  19.146  0.00  0.00    +0.000 C 
ATOM     31  C   UNL     1      10.121  14.363  18.633  0.00  0.00    +0.000 C 
ATOM     32  N   UNL     1       8.824  12.005  17.958  0.00  0.00    +0.000 NA
ATOM     33  C   UNL     1       8.294  10.830  17.523  0.00  0.00    +0.000 A 
ENDBRANCH  21  22
ENDBRANCH   7  20
TORSDOF 5
ENDMDL
MODEL 3
REMARK VINA RESULT:      -8.9      1.656      2.155
REMARK  Name = 
REMARK  6 active torsions:
REMARK  status: ('A' for Active; 'I' for Inactive)
REMARK    1  A    between atoms: C_1  and  N_2
REMARK    2  A    between atoms: N_2  and  C_3
REMARK    3  A    between atoms: N_2  and  C_11
REMARK    4  A    between atoms: C_3  and  C_4
REMARK    5  A    between atoms: C_17  and  C_18
REMARK    6  A    between atoms: C_19  and  C_20
REMARK                            x       y       z     vdW  Elec       q    Type
REMARK                         _______ _______ _______ _____ _____    ______ ____
ROOT
ATOM      1  C   UNL     1       5.992   5.401  17.156  0.00  0.00    +0.000 A 
ATOM      2  C   UNL     1       5.759   4.242  16.382  0.00  0.00    +0.000 A 
ATOM      3  N   UNL     1       4.830   3.265  16.763  0.00  0.00    +0.000 N 
ATOM      4  N   UNL     1       6.379   3.949  15.225  0.00  0.00    +0.000 NA
ATOM      5  C   UNL     1       7.269   4.838  14.787  0.00  0.00    +0.000 A 
ATOM      6  N   UNL     1       7.628   5.958  15.415  0.00  0.00    +0.000 NA
ATOM      7  C   UNL     1       6.996   6.209  16.584  0.00  0.00    +0.000 A 
ATOM      8  H   UNL     1       3.934   3.688  16.975  0.00  0.00    +0.000 HD
ATOM      9  H   UNL     1       4.773   2.584  16.012  0.00  0.00    +0.000 HD
ENDROOT
BRANCH   1  11
ATOM     10  C   UNL     1       5.465   5.022  19.556  0.00  0.00    +0.000 C 
ATOM     11  N   UNL     1       5.227   5.709  18.290  0.00  0.00    +0.000 N 
BRANCH  11  12
ATOM     12  C   UNL     1       3.897   6.326  18.143  0.00  0.00    +0.000 C 
BRANCH  12  13
ATOM     13  C   UNL     1       2.850   5.596  18.974  0.00  0.00    +0.000 A 
ATOM     14  C   UNL     1       2.332   6.206  20.125  0.00  0.00    +0.000 A 
ATOM     15  C   UNL     1       1.322   5.588  20.867  0.00  0.00    +0.000 A 
ATOM     16  C   UNL     1       0.823   4.344  20.477  0.00  0.00    +0.000 A 
ATOM     17  C   UNL     1       1.355   3.713  19.358  0.00  0.00    +0.000 A 
ATOM     18 BR   UNL     1       0.689   2.028  18.818  0.00  0.00    +0.000 Br
ATOM     19  C   UNL     1       2.366   4.322  18.619  0.00  0.00    +0.000 A 
ENDBRANCH  12  13
ENDBRANCH  11  12
ENDBRANCH   1  11
BRANCH   7  20
ATOM     20  C   UNL     1       7.537   7.387  17.208  0.00  0.00    +0.000 C 
ATOM     21  C   UNL     1       7.983   8.398  17.694  0.00  0.00    +0.000 C 
BRANCH  21  22
ATOM     22  C   UNL     1       8.501   9.639  18.185  0.00  0.00    +0.000 A 
ATOM     23  C   UNL     1       9.238   9.715  19.355  0.00  0.00    +0.000 A 
ATOM     24  C   UNL     1       9.686  10.965  19.803  0.00  0.00    +0.000 A 
ATOM     25  C   UNL     1       9.400  12.133  19.091  0.00  0.00    +0.000 A 
ATOM     26  N   UNL     1       9.861  13.368  19.504  0.00  0.00    +0.000 N 
ATOM     27  C   UNL     1       9.958  13.734  20.923  0.00  0.00    +0.000 C 
ATOM     28  C   UNL     1       8.929  14.820  21.285  0.00  0.00    +0.000 C 
ATOM     29  O   UNL     1       9.019  15.957  20.414  0.00  0.00    +0.000 OA
ATOM     30  C   UNL     1       8.770  15.552  19.056  0.00  0.00    +0.000 C 
ATOM     31  C   UNL     1       9.801  14.516  18.584  0.00  0.00    +0.000 C 
ATOM     32  N   UNL     1       8.706  12.051  17.934  0.00  0.00    +0.000 NA
ATOM     33  C   UNL     1       8.279  10.830  17.513  0.00  0.00    +0.000 A 
ENDBRANCH  21  22
ENDBRANCH   7  20
TORSDOF 5
ENDMDL
MODEL 4
REMARK VINA RESULT:      -8.8      5.166      9.076
REMARK  Name = 
REMARK  6 active torsions:
REMARK  status: ('A' for Active; 'I' for Inactive)
REMARK    1  A    between atoms: C_1  and  N_2
REMARK    2  A    between atoms: N_2  and  C_3
REMARK    3  A    between atoms: N_2  and  C_11
REMARK    4  A    between atoms: C_3  and  C_4
REMARK    5  A    between atoms: C_17  and  C_18
REMARK    6  A    between atoms: C_19  and  C_20
REMARK                            x       y       z     vdW  Elec       q    Type
REMARK                         _______ _______ _______ _____ _____    ______ ____
ROOT
ATOM      1  C   UNL     1      -0.033  11.744  20.953  0.00  0.00    +0.000 A 
ATOM      2  C   UNL     1      -0.707  12.472  21.959  0.00  0.00    +0.000 A 
ATOM      3  N   UNL     1      -0.896  13.858  21.877  0.00  0.00    +0.000 N 
ATOM      4  N   UNL     1      -1.232  11.940  23.076  0.00  0.00    +0.000 NA
ATOM      5  C   UNL     1      -1.107  10.621  23.221  0.00  0.00    +0.000 A 
ATOM      6  N   UNL     1      -0.470   9.801  22.386  0.00  0.00    +0.000 NA
ATOM      7  C   UNL     1       0.061  10.377  21.282  0.00  0.00    +0.000 A 
ATOM      8  H   UNL     1      -1.297  14.111  20.982  0.00  0.00    +0.000 HD
ATOM      9  H   UNL     1      -1.479  14.137  22.660  0.00  0.00    +0.000 HD
ENDROOT
BRANCH   1  11
ATOM     10  C   UNL     1       1.753  12.828  19.605  0.00  0.00    +0.000 C 
ATOM     11  N   UNL     1       0.386  12.337  19.753  0.00  0.00    +0.000 N 
BRANCH  11  12
ATOM     12  C   UNL     1      -0.603  12.922  18.830  0.00  0.00    +0.000 C 
BRANCH  12  13
ATOM     13  C   UNL     1      -1.547  11.861  18.282  0.00  0.00    +0.000 A 
ATOM     14  C   UNL     1      -1.023  10.747  17.612  0.00  0.00    +0.000 A 
ATOM     15  C   UNL     1      -1.863   9.725  17.160  0.00  0.00    +0.000 A 
ATOM     16  C   UNL     1      -3.241   9.808  17.358  0.00  0.00    +0.000 A 
ATOM     17  C   UNL     1      -3.777  10.926  17.988  0.00  0.00    +0.000 A 
ATOM     18 BR   UNL     1      -5.642  11.052  18.264  0.00  0.00    +0.000 Br
ATOM     19  C   UNL     1      -2.945  11.950  18.436  0.00  0.00    +0.000 A 
ENDBRANCH  12  13
ENDBRANCH  11  12
ENDBRANCH   1  11
BRANCH   7  20
ATOM     20  C   UNL     1       0.801   9.410  20.515  0.00  0.00    +0.000 C 
ATOM     21  C   UNL     1       1.453   8.601  19.902  0.00  0.00    +0.000 C 
BRANCH  21  22
ATOM     22  C   UNL     1       2.299   7.655  19.237  0.00  0.00    +0.000 A 
ATOM     23  C   UNL     1       2.576   6.412  19.781  0.00  0.00    +0.000 A 
ATOM     24  C   UNL     1       3.441   5.544  19.099  0.00  0.00    +0.000 A 
ATOM     25  C   UNL     1       4.028   5.914  17.886  0.00  0.00    +0.000 A 
ATOM     26  N   UNL     1       4.858   5.058  17.189  0.00  0.00    +0.000 N 
ATOM     27  C   UNL     1       5.790   4.146  17.866  0.00  0.00    +0.000 C 
ATOM     28  C   UNL     1       7.250   4.570  17.625  0.00  0.00    +0.000 C 
ATOM     29  O   UNL     1       7.542   4.723  16.228  0.00  0.00    +0.000 OA
ATOM     30  C   UNL     1       6.693   5.735  15.660  0.00  0.00    +0.000 C 
ATOM     31  C   UNL     1       5.210   5.358  15.791  0.00  0.00    +0.000 C 
ATOM     32  N   UNL     1       3.731   7.116  17.345  0.00  0.00    +0.000 NA
ATOM     33  C   UNL     1       2.889   7.947  18.019  0.00  0.00    +0.000 A 
ENDBRANCH  21  22
ENDBRANCH   7  20
TORSDOF 5
ENDMDL
MODEL 5
REMARK VINA RESULT:      -8.5      5.724      7.656
REMARK  Name = 
REMARK  6 active torsions:
REMARK  status: ('A' for Active; 'I' for Inactive)
REMARK    1  A    between atoms: C_1  and  N_2
REMARK    2  A    between atoms: N_2  and  C_3
REMARK    3  A    between atoms: N_2  and  C_11
REMARK    4  A    between atoms: C_3  and  C_4
REMARK    5  A    between atoms: C_17  and  C_18
REMARK    6  A    between atoms: C_19  and  C_20
REMARK                            x       y       z     vdW  Elec       q    Type
REMARK                         _______ _______ _______ _____ _____    ______ ____
ROOT
ATOM      1  C   UNL     1       3.263   4.013  18.928  0.00  0.00    +0.000 A 
ATOM      2  C   UNL     1       3.179   2.628  18.667  0.00  0.00    +0.000 A 
ATOM      3  N   UNL     1       4.097   1.967  17.841  0.00  0.00    +0.000 N 
ATOM      4  N   UNL     1       2.241   1.804  19.168  0.00  0.00    +0.000 NA
ATOM      5  C   UNL     1       1.338   2.354  19.978  0.00  0.00    +0.000 A 
ATOM      6  N   UNL     1       1.257   3.647  20.292  0.00  0.00    +0.000 NA
ATOM      7  C   UNL     1       2.207   4.447  19.755  0.00  0.00    +0.000 A 
ATOM      8  H   UNL     1       5.047   2.179  18.122  0.00  0.00    +0.000 HD
ATOM      9  H   UNL     1       3.889   0.974  17.880  0.00  0.00    +0.000 HD
ENDROOT
BRANCH   1  11
ATOM     10  C   UNL     1       5.408   5.186  19.383  0.00  0.00    +0.000 C 
ATOM     11  N   UNL     1       4.334   4.797  18.474  0.00  0.00    +0.000 N 
BRANCH  11  12
ATOM     12  C   UNL     1       4.180   5.640  17.275  0.00  0.00    +0.000 C 
BRANCH  12  13
ATOM     13  C   UNL     1       5.217   5.293  16.214  0.00  0.00    +0.000 A 
ATOM     14  C   UNL     1       6.563   5.622  16.428  0.00  0.00    +0.000 A 
ATOM     15  C   UNL     1       7.543   5.254  15.502  0.00  0.00    +0.000 A 
ATOM     16  C   UNL     1       7.191   4.563  14.341  0.00  0.00    +0.000 A 
ATOM     17  C   UNL     1       5.855   4.265  14.100  0.00  0.00    +0.000 A 
ATOM     18 BR   UNL     1       5.363   3.330  12.533  0.00  0.00    +0.000 Br
ATOM     19  C   UNL     1       4.873   4.634  15.018  0.00  0.00    +0.000 A 
ENDBRANCH  12  13
ENDBRANCH  11  12
ENDBRANCH   1  11
BRANCH   7  20
ATOM     20  C   UNL     1       1.955   5.824  20.089  0.00  0.00    +0.000 C 
ATOM     21  C   UNL     1       1.701   6.969  20.371  0.00  0.00    +0.000 C 
BRANCH  21  22
ATOM     22  C   UNL     1       1.305   8.306  20.697  0.00  0.00    +0.000 A 
ATOM     23  C   UNL     1       1.014   8.688  21.997  0.00  0.00    +0.000 A 
ATOM     24  C   UNL     1       0.596  10.002  22.247  0.00  0.00    +0.000 A 
ATOM     25  C   UNL     1       0.467  10.930  21.210  0.00  0.00    +0.000 A 
ATOM     26  N   UNL     1       0.086  12.236  21.447  0.00  0.00    +0.000 N 
ATOM     27  C   UNL     1      -0.900  12.591  22.477  0.00  0.00    +0.000 C 
ATOM     28  C   UNL     1      -2.205  13.104  21.840  0.00  0.00    +0.000 C 
ATOM     29  O   UNL     1      -1.965  14.172  20.912  0.00  0.00    +0.000 OA
ATOM     30  C   UNL     1      -1.110  13.714  19.850  0.00  0.00    +0.000 C 
ATOM     31  C   UNL     1       0.250  13.248  20.391  0.00  0.00    +0.000 C 
ATOM     32  N   UNL     1       0.780  10.561  19.949  0.00  0.00    +0.000 NA
ATOM     33  C   UNL     1       1.185   9.282  19.722  0.00  0.00    +0.000 A 
ENDBRANCH  21  22
ENDBRANCH   7  20
TORSDOF 5
ENDMDL
MODEL 6
REMARK VINA RESULT:      -8.4      4.982      6.643
REMARK  Name = 
REMARK  6 active torsions:
REMARK  status: ('A' for Active; 'I' for Inactive)
REMARK    1  A    between atoms: C_1  and  N_2
REMARK    2  A    between atoms: N_2  and  C_3
REMARK    3  A    between atoms: N_2  and  C_11
REMARK    4  A    between atoms: C_3  and  C_4
REMARK    5  A    between atoms: C_17  and  C_18
REMARK    6  A    between atoms: C_19  and  C_20
REMARK                            x       y       z     vdW  Elec       q    Type
REMARK                         _______ _______ _______ _____ _____    ______ ____
ROOT
ATOM      1  C   UNL     1       6.265   5.338  17.323  0.00  0.00    +0.000 A 
ATOM      2  C   UNL     1       7.228   4.769  16.462  0.00  0.00    +0.000 A 
ATOM      3  N   UNL     1       8.319   4.035  16.944  0.00  0.00    +0.000 N 
ATOM      4  N   UNL     1       7.213   4.858  15.120  0.00  0.00    +0.000 NA
ATOM      5  C   UNL     1       6.196   5.530  14.582  0.00  0.00    +0.000 A 
ATOM      6  N   UNL     1       5.230   6.154  15.254  0.00  0.00    +0.000 NA
ATOM      7  C   UNL     1       5.289   6.057  16.603  0.00  0.00    +0.000 A 
ATOM      8  H   UNL     1       8.010   3.317  17.589  0.00  0.00    +0.000 HD
ATOM      9  H   UNL     1       8.814   3.654  16.144  0.00  0.00    +0.000 HD
ENDROOT
BRANCH   1  11
ATOM     10  C   UNL     1       7.177   5.845  19.581  0.00  0.00    +0.000 C 
ATOM     11  N   UNL     1       6.269   5.108  18.707  0.00  0.00    +0.000 N 
BRANCH  11  12
ATOM     12  C   UNL     1       5.760   3.834  19.248  0.00  0.00    +0.000 C 
BRANCH  12  13
ATOM     13  C   UNL     1       4.296   3.621  18.886  0.00  0.00    +0.000 A 
ATOM     14  C   UNL     1       3.967   2.850  17.762  0.00  0.00    +0.000 A 
ATOM     15  C   UNL     1       2.631   2.582  17.447  0.00  0.00    +0.000 A 
ATOM     16  C   UNL     1       1.605   3.093  18.242  0.00  0.00    +0.000 A 
ATOM     17  C   UNL     1       1.918   3.891  19.337  0.00  0.00    +0.000 A 
ATOM     18 BR   UNL     1       0.538   4.589  20.423  0.00  0.00    +0.000 Br
ATOM     19  C   UNL     1       3.247   4.165  19.653  0.00  0.00    +0.000 A 
ENDBRANCH  12  13
ENDBRANCH  11  12
ENDBRANCH   1  11
BRANCH   7  20
ATOM     20  C   UNL     1       4.255   6.849  17.212  0.00  0.00    +0.000 C 
ATOM     21  C   UNL     1       3.390   7.488  17.760  0.00  0.00    +0.000 C 
BRANCH  21  22
ATOM     22  C   UNL     1       2.369   8.185  18.484  0.00  0.00    +0.000 A 
ATOM     23  C   UNL     1       1.647   9.222  17.917  0.00  0.00    +0.000 A 
ATOM     24  C   UNL     1       0.686   9.889  18.689  0.00  0.00    +0.000 A 
ATOM     25  C   UNL     1       0.448   9.527  20.018  0.00  0.00    +0.000 A 
ATOM     26  N   UNL     1      -0.517  10.156  20.780  0.00  0.00    +0.000 N 
ATOM     27  C   UNL     1      -0.798  11.593  20.661  0.00  0.00    +0.000 C 
ATOM     28  C   UNL     1      -0.357  12.349  21.928  0.00  0.00    +0.000 C 
ATOM     29  O   UNL     1      -0.916  11.774  23.118  0.00  0.00    +0.000 OA
ATOM     30  C   UNL     1      -0.483  10.408  23.250  0.00  0.00    +0.000 C 
ATOM     31  C   UNL     1      -0.944   9.559  22.056  0.00  0.00    +0.000 C 
ATOM     32  N   UNL     1       1.134   8.496  20.557  0.00  0.00    +0.000 NA
ATOM     33  C   UNL     1       2.063   7.859  19.795  0.00  0.00    +0.000 A 
ENDBRANCH  21  22
ENDBRANCH   7  20
TORSDOF 5
ENDMDL
MODEL 7
REMARK VINA RESULT:      -8.4      6.050     10.148
REMARK  Name = 
REMARK  6 active torsions:
REMARK  status: ('A' for Active; 'I' for Inactive)
REMARK    1  A    between atoms: C_1  and  N_2
REMARK    2  A    between atoms: N_2  and  C_3
REMARK    3  A    between atoms: N_2  and  C_11
REMARK    4  A    between atoms: C_3  and  C_4
REMARK    5  A    between atoms: C_17  and  C_18
REMARK    6  A    between atoms: C_19  and  C_20
REMARK                            x       y       z     vdW  Elec       q    Type
REMARK                         _______ _______ _______ _____ _____    ______ ____
ROOT
ATOM      1  C   UNL     1      -0.286  12.323  21.150  0.00  0.00    +0.000 A 
ATOM      2  C   UNL     1      -0.922  13.311  21.934  0.00  0.00    +0.000 A 
ATOM      3  N   UNL     1      -0.879  14.671  21.600  0.00  0.00    +0.000 N 
ATOM      4  N   UNL     1      -1.624  13.072  23.056  0.00  0.00    +0.000 NA
ATOM      5  C   UNL     1      -1.724  11.798  23.434  0.00  0.00    +0.000 A 
ATOM      6  N   UNL     1      -1.155  10.757  22.827  0.00  0.00    +0.000 NA
ATOM      7  C   UNL     1      -0.442  11.040  21.712  0.00  0.00    +0.000 A 
ATOM      8  H   UNL     1      -1.152  14.810  20.635  0.00  0.00    +0.000 HD
ATOM      9  H   UNL     1      -1.477  15.168  22.252  0.00  0.00    +0.000 HD
ENDROOT
BRANCH   1  11
ATOM     10  C   UNL     1       1.733  13.017  19.875  0.00  0.00    +0.000 C 
ATOM     11  N   UNL     1       0.328  12.621  19.925  0.00  0.00    +0.000 N 
BRANCH  11  12
ATOM     12  C   UNL     1      -0.487  13.023  18.765  0.00  0.00    +0.000 C 
BRANCH  12  13
ATOM     13  C   UNL     1      -1.404  11.895  18.312  0.00  0.00    +0.000 A 
ATOM     14  C   UNL     1      -0.848  10.707  17.817  0.00  0.00    +0.000 A 
ATOM     15  C   UNL     1      -1.666   9.631  17.459  0.00  0.00    +0.000 A 
ATOM     16  C   UNL     1      -3.052   9.731  17.577  0.00  0.00    +0.000 A 
ATOM     17  C   UNL     1      -3.618  10.917  18.031  0.00  0.00    +0.000 A 
ATOM     18 BR   UNL     1      -5.494  11.067  18.196  0.00  0.00    +0.000 Br
ATOM     19  C   UNL     1      -2.808  11.995  18.384  0.00  0.00    +0.000 A 
ENDBRANCH  12  13
ENDBRANCH  11  12
ENDBRANCH   1  11
BRANCH   7  20
ATOM     20  C   UNL     1       0.198   9.854  21.208  0.00  0.00    +0.000 C 
ATOM     21  C   UNL     1       0.772   8.883  20.779  0.00  0.00    +0.000 C 
BRANCH  21  22
ATOM     22  C   UNL     1       1.527   7.789  20.245  0.00  0.00    +0.000 A 
ATOM     23  C   UNL     1       2.208   7.886  19.043  0.00  0.00    +0.000 A 
ATOM     24  C   UNL     1       2.899   6.767  18.556  0.00  0.00    +0.000 A 
ATOM     25  C   UNL     1       2.908   5.560  19.259  0.00  0.00    +0.000 A 
ATOM     26  N   UNL     1       3.609   4.460  18.805  0.00  0.00    +0.000 N 
ATOM     27  C   UNL     1       3.719   4.135  17.376  0.00  0.00    +0.000 C 
ATOM     28  C   UNL     1       2.938   2.852  17.040  0.00  0.00    +0.000 C 
ATOM     29  O   UNL     1       3.314   1.756  17.887  0.00  0.00    +0.000 OA
ATOM     30  C   UNL     1       3.044   2.086  19.261  0.00  0.00    +0.000 C 
ATOM     31  C   UNL     1       3.843   3.320  19.706  0.00  0.00    +0.000 C 
ATOM     32  N   UNL     1       2.266   5.479  20.445  0.00  0.00    +0.000 NA
ATOM     33  C   UNL     1       1.601   6.574  20.905  0.00  0.00    +0.000 A 
ENDBRANCH  21  22
ENDBRANCH   7  20
TORSDOF 5
ENDMDL
MODEL 8
REMARK VINA RESULT:      -8.3      5.796      9.756
REMARK  Name = 
REMARK  6 active torsions:
REMARK  status: ('A' for Active; 'I' for Inactive)
REMARK    1  A    between atoms: C_1  and  N_2
REMARK    2  A    between atoms: N_2  and  C_3
REMARK    3  A    between atoms: N_2  and  C_11
REMARK    4  A    between atoms: C_3  and  C_4
REMARK    5  A    between atoms: C_17  and  C_18
REMARK    6  A    between atoms: C_19  and  C_20
REMARK                            x       y       z     vdW  Elec       q    Type
REMARK                         _______ _______ _______ _____ _____    ______ ____
ROOT
ATOM      1  C   UNL     1      -0.070  12.414  19.285  0.00  0.00    +0.000 A 
ATOM      2  C   UNL     1      -0.231  13.811  19.157  0.00  0.00    +0.000 A 
ATOM      3  N   UNL     1      -1.408  14.465  19.543  0.00  0.00    +0.000 N 
ATOM      4  N   UNL     1       0.697  14.653  18.669  0.00  0.00    +0.000 NA
ATOM      5  C   UNL     1       1.853  14.109  18.293  0.00  0.00    +0.000 A 
ATOM      6  N   UNL     1       2.148  12.810  18.315  0.00  0.00    +0.000 NA
ATOM      7  C   UNL     1       1.183  11.992  18.795  0.00  0.00    +0.000 A 
ATOM      8  H   UNL     1      -1.670  14.202  20.486  0.00  0.00    +0.000 HD
ATOM      9  H   UNL     1      -1.254  15.463  19.444  0.00  0.00    +0.000 HD
ENDROOT
BRANCH   1  11
ATOM     10  C   UNL     1      -1.206  11.651  21.362  0.00  0.00    +0.000 C 
ATOM     11  N   UNL     1      -1.028  11.604  19.914  0.00  0.00    +0.000 N 
BRANCH  11  12
ATOM     12  C   UNL     1      -1.510  10.378  19.253  0.00  0.00    +0.000 C 
BRANCH  12  13
ATOM     13  C   UNL     1      -2.551  10.693  18.186  0.00  0.00    +0.000 A 
ATOM     14  C   UNL     1      -3.650  11.500  18.510  0.00  0.00    +0.000 A 
ATOM     15  C   UNL     1      -4.583  11.860  17.532  0.00  0.00    +0.000 A 
ATOM     16  C   UNL     1      -4.438  11.408  16.220  0.00  0.00    +0.000 A 
ATOM     17  C   UNL     1      -3.372  10.576  15.896  0.00  0.00    +0.000 A 
ATOM     18 BR   UNL     1      -3.162   9.956  14.123  0.00  0.00    +0.000 Br
ATOM     19  C   UNL     1      -2.443  10.209  16.868  0.00  0.00    +0.000 A 
ENDBRANCH  12  13
ENDBRANCH  11  12
ENDBRANCH   1  11
BRANCH   7  20
ATOM     20  C   UNL     1       1.582  10.615  18.677  0.00  0.00    +0.000 C 
ATOM     21  C   UNL     1       1.950   9.467  18.606  0.00  0.00    +0.000 C 
BRANCH  21  22
ATOM     22  C   UNL     1       2.460   8.130  18.580  0.00  0.00    +0.000 A 
ATOM     23  C   UNL     1       3.181   7.642  17.502  0.00  0.00    +0.000 A 
ATOM     24  C   UNL     1       3.622   6.311  17.520  0.00  0.00    +0.000 A 
ATOM     25  C   UNL     1       3.346   5.472  18.602  0.00  0.00    +0.000 A 
ATOM     26  N   UNL     1       3.801   4.169  18.646  0.00  0.00    +0.000 N 
ATOM     27  C   UNL     1       3.877   3.324  17.446  0.00  0.00    +0.000 C 
ATOM     28  C   UNL     1       2.843   2.186  17.506  0.00  0.00    +0.000 C 
ATOM     29  O   UNL     1       2.945   1.430  18.721  0.00  0.00    +0.000 OA
ATOM     30  C   UNL     1       2.715   2.290  19.851  0.00  0.00    +0.000 C 
ATOM     31  C   UNL     1       3.752   3.420  19.913  0.00  0.00    +0.000 C 
ATOM     32  N   UNL     1       2.668   5.962  19.664  0.00  0.00    +0.000 NA
ATOM     33  C   UNL     1       2.247   7.255  19.632  0.00  0.00    +0.000 A 
ENDBRANCH  21  22
ENDBRANCH   7  20
TORSDOF 5
ENDMDL
MODEL 9
REMARK VINA RESULT:      -8.3      5.886      9.834
REMARK  Name = 
REMARK  6 active torsions:
REMARK  status: ('A' for Active; 'I' for Inactive)
REMARK    1  A    between atoms: C_1  and  N_2
REMARK    2  A    between atoms: N_2  and  C_3
REMARK    3  A    between atoms: N_2  and  C_11
REMARK    4  A    between atoms: C_3  and  C_4
REMARK    5  A    between atoms: C_17  and  C_18
REMARK    6  A    between atoms: C_19  and  C_20
REMARK                            x       y       z     vdW  Elec       q    Type
REMARK                         _______ _______ _______ _____ _____    ______ ____
ROOT
ATOM      1  C   UNL     1      -0.212  12.776  19.437  0.00  0.00    +0.000 A 
ATOM      2  C   UNL     1      -0.371  14.174  19.316  0.00  0.00    +0.000 A 
ATOM      3  N   UNL     1      -1.541  14.830  19.720  0.00  0.00    +0.000 N 
ATOM      4  N   UNL     1       0.552  15.016  18.818  0.00  0.00    +0.000 NA
ATOM      5  C   UNL     1       1.702  14.470  18.425  0.00  0.00    +0.000 A 
ATOM      6  N   UNL     1       1.994  13.170  18.439  0.00  0.00    +0.000 NA
ATOM      7  C   UNL     1       1.033  12.353  18.930  0.00  0.00    +0.000 A 
ATOM      8  H   UNL     1      -1.791  14.565  20.665  0.00  0.00    +0.000 HD
ATOM      9  H   UNL     1      -1.386  15.828  19.622  0.00  0.00    +0.000 HD
ENDROOT
BRANCH   1  11
ATOM     10  C   UNL     1      -1.476  12.161  21.489  0.00  0.00    +0.000 C 
ATOM     11  N   UNL     1      -1.164  11.968  20.076  0.00  0.00    +0.000 N 
BRANCH  11  12
ATOM     12  C   UNL     1      -1.496  10.640  19.528  0.00  0.00    +0.000 C 
BRANCH  12  13
ATOM     13  C   UNL     1      -2.333  10.755  18.261  0.00  0.00    +0.000 A 
ATOM     14  C   UNL     1      -1.916  10.100  17.094  0.00  0.00    +0.000 A 
ATOM     15  C   UNL     1      -2.700  10.133  15.938  0.00  0.00    +0.000 A 
ATOM     16  C   UNL     1      -3.908  10.833  15.927  0.00  0.00    +0.000 A 
ATOM     17  C   UNL     1      -4.314  11.517  17.066  0.00  0.00    +0.000 A 
ATOM     18 BR   UNL     1      -5.947  12.469  17.066  0.00  0.00    +0.000 Br
ATOM     19  C   UNL     1      -3.533  11.492  18.220  0.00  0.00    +0.000 A 
ENDBRANCH  12  13
ENDBRANCH  11  12
ENDBRANCH   1  11
BRANCH   7  20
ATOM     20  C   UNL     1       1.427  10.976  18.801  0.00  0.00    +0.000 C 
ATOM     21  C   UNL     1       1.779   9.823  18.733  0.00  0.00    +0.000 C 
BRANCH  21  22
ATOM     22  C   UNL     1       2.248   8.470  18.731  0.00  0.00    +0.000 A 
ATOM     23  C   UNL     1       3.037   7.969  17.709  0.00  0.00    +0.000 A 
ATOM     24  C   UNL     1       3.434   6.625  17.746  0.00  0.00    +0.000 A 
ATOM     25  C   UNL     1       3.046   5.785  18.793  0.00  0.00    +0.000 A 
ATOM     26  N   UNL     1       3.455   4.468  18.858  0.00  0.00    +0.000 N 
ATOM     27  C   UNL     1       3.602   3.632  17.659  0.00  0.00    +0.000 C 
ATOM     28  C   UNL     1       2.531   2.527  17.622  0.00  0.00    +0.000 C 
ATOM     29  O   UNL     1       2.512   1.757  18.832  0.00  0.00    +0.000 OA
ATOM     30  C   UNL     1       2.218   2.613  19.951  0.00  0.00    +0.000 C 
ATOM     31  C   UNL     1       3.282   3.709  20.108  0.00  0.00    +0.000 C 
ATOM     32  N   UNL     1       2.301   6.286  19.803  0.00  0.00    +0.000 NA
ATOM     33  C   UNL     1       1.924   7.593  19.753  0.00  0.00    +0.000 A 
ENDBRANCH  21  22
ENDBRANCH   7  20
TORSDOF 5
ENDMDL
