MODEL 1
REMARK VINA RESULT:      -6.7      0.000      0.000
REMARK  Name = 
REMARK  5 active torsions:
REMARK  status: ('A' for Active; 'I' for Inactive)
REMARK    1  A    between atoms: C_1  and  O_2
REMARK    2  A    between atoms: O_2  and  C_3
REMARK    3  A    between atoms: C_4  and  C_5
REMARK    4  A    between atoms: C_7  and  O_8
REMARK    5  A    between atoms: C_9  and  O_10
REMARK                            x       y       z     vdW  Elec       q    Type
REMARK                         _______ _______ _______ _____ _____    ______ ____
ROOT
ATOM      1  C   UNL     1       2.890   4.486  19.863  0.00  0.00    +0.000 A 
ATOM      2  C   UNL     1       3.770   3.624  19.176  0.00  0.00    +0.000 A 
ATOM      3  C   UNL     1       4.437   4.071  18.033  0.00  0.00    +0.000 A 
ATOM      4  C   UNL     1       4.218   5.361  17.548  0.00  0.00    +0.000 A 
ATOM      5  C   UNL     1       3.374   6.251  18.221  0.00  0.00    +0.000 A 
ATOM      6  C   UNL     1       2.753   5.825  19.413  0.00  0.00    +0.000 A 
ATOM      7  C   UNL     1       2.082   6.864  20.228  0.00  0.00    +0.000 C 
ATOM      8  O   UNL     1       1.977   6.759  21.442  0.00  0.00    +0.000 OA
ATOM      9  C   UNL     1       1.618   8.106  19.604  0.00  0.00    +0.000 A 
ATOM     10  C   UNL     1       0.694   8.920  20.271  0.00  0.00    +0.000 A 
ATOM     11  C   UNL     1       0.358  10.165  19.745  0.00  0.00    +0.000 A 
ATOM     12  C   UNL     1       0.945  10.596  18.556  0.00  0.00    +0.000 A 
ATOM     13  C   UNL     1       1.843   9.767  17.877  0.00  0.00    +0.000 A 
ATOM     14  C   UNL     1       2.172   8.509  18.400  0.00  0.00    +0.000 A 
ATOM     15  C   UNL     1       3.129   7.630  17.698  0.00  0.00    +0.000 C 
ATOM     16  O   UNL     1       3.662   8.063  16.686  0.00  0.00    +0.000 OA
ENDROOT
BRANCH   1  18
ATOM     17  C   UNL     1       1.006   3.320  20.803  0.00  0.00    +0.000 C 
ATOM     18  O   UNL     1       2.287   3.932  20.964  0.00  0.00    +0.000 OA
ENDBRANCH   1  18
BRANCH   2  19
ATOM     19  C   UNL     1       4.006   2.247  19.656  0.00  0.00    +0.000 C 
ATOM     20  O   UNL     1       5.060   1.956  20.223  0.00  0.00    +0.000 OA
ENDBRANCH   2  19
BRANCH   3  21
ATOM     21  O   UNL     1       5.326   3.302  17.318  0.00  0.00    +0.000 OA
ATOM     22  H   UNL     1       6.185   3.293  17.803  0.00  0.00    +0.000 HD
ENDBRANCH   3  21
BRANCH   4  23
ATOM     23  O   UNL     1       4.884   5.708  16.405  0.00  0.00    +0.000 OA
ATOM     24  H   UNL     1       4.436   6.505  16.059  0.00  0.00    +0.000 HD
ENDBRANCH   4  23
TORSDOF 4
ENDMDL
MODEL 2
REMARK VINA RESULT:      -6.6      2.248      5.043
REMARK  Name = 
REMARK  5 active torsions:
REMARK  status: ('A' for Active; 'I' for Inactive)
REMARK    1  A    between atoms: C_1  and  O_2
REMARK    2  A    between atoms: O_2  and  C_3
REMARK    3  A    between atoms: C_4  and  C_5
REMARK    4  A    between atoms: C_7  and  O_8
REMARK    5  A    between atoms: C_9  and  O_10
REMARK                            x       y       z     vdW  Elec       q    Type
REMARK                         _______ _______ _______ _____ _____    ______ ____
ROOT
ATOM      1  C   UNL     1       3.284   3.470  19.713  0.00  0.00    +0.000 A 
ATOM      2  C   UNL     1       2.507   4.177  20.654  0.00  0.00    +0.000 A 
ATOM      3  C   UNL     1       2.243   5.535  20.466  0.00  0.00    +0.000 A 
ATOM      4  C   UNL     1       2.768   6.209  19.362  0.00  0.00    +0.000 A 
ATOM      5  C   UNL     1       3.519   5.532  18.395  0.00  0.00    +0.000 A 
ATOM      6  C   UNL     1       3.728   4.147  18.546  0.00  0.00    +0.000 A 
ATOM      7  C   UNL     1       4.298   3.423  17.387  0.00  0.00    +0.000 C 
ATOM      8  O   UNL     1       4.056   2.240  17.186  0.00  0.00    +0.000 OA
ATOM      9  C   UNL     1       5.086   4.142  16.383  0.00  0.00    +0.000 A 
ATOM     10  C   UNL     1       5.903   3.430  15.495  0.00  0.00    +0.000 A 
ATOM     11  C   UNL     1       6.544   4.097  14.453  0.00  0.00    +0.000 A 
ATOM     12  C   UNL     1       6.367   5.472  14.299  0.00  0.00    +0.000 A 
ATOM     13  C   UNL     1       5.575   6.183  15.205  0.00  0.00    +0.000 A 
ATOM     14  C   UNL     1       4.940   5.514  16.260  0.00  0.00    +0.000 A 
ATOM     15  C   UNL     1       4.091   6.253  17.216  0.00  0.00    +0.000 C 
ATOM     16  O   UNL     1       3.918   7.448  17.018  0.00  0.00    +0.000 OA
ENDROOT
BRANCH   1  18
ATOM     17  C   UNL     1       4.746   1.751  20.548  0.00  0.00    +0.000 C 
ATOM     18  O   UNL     1       3.483   2.146  20.011  0.00  0.00    +0.000 OA
ENDBRANCH   1  18
BRANCH   2  19
ATOM     19  C   UNL     1       1.955   3.493  21.842  0.00  0.00    +0.000 C 
ATOM     20  O   UNL     1       1.036   2.681  21.724  0.00  0.00    +0.000 OA
ENDBRANCH   2  19
BRANCH   3  21
ATOM     21  O   UNL     1       1.478   6.290  21.324  0.00  0.00    +0.000 OA
ATOM     22  H   UNL     1       1.911   7.171  21.429  0.00  0.00    +0.000 HD
ENDBRANCH   3  21
BRANCH   4  23
ATOM     23  O   UNL     1       2.491   7.545  19.270  0.00  0.00    +0.000 OA
ATOM     24  H   UNL     1       3.347   7.992  19.121  0.00  0.00    +0.000 HD
ENDBRANCH   4  23
TORSDOF 4
ENDMDL
MODEL 3
REMARK VINA RESULT:      -6.6      1.348      3.635
REMARK  Name = 
REMARK  5 active torsions:
REMARK  status: ('A' for Active; 'I' for Inactive)
REMARK    1  A    between atoms: C_1  and  O_2
REMARK    2  A    between atoms: O_2  and  C_3
REMARK    3  A    between atoms: C_4  and  C_5
REMARK    4  A    between atoms: C_7  and  O_8
REMARK    5  A    between atoms: C_9  and  O_10
REMARK                            x       y       z     vdW  Elec       q    Type
REMARK                         _______ _______ _______ _____ _____    ______ ____
ROOT
ATOM      1  C   UNL     1       4.902   6.144  17.767  0.00  0.00    +0.000 A 
ATOM      2  C   UNL     1       5.409   4.846  17.985  0.00  0.00    +0.000 A 
ATOM      3  C   UNL     1       4.808   4.010  18.928  0.00  0.00    +0.000 A 
ATOM      4  C   UNL     1       3.721   4.459  19.679  0.00  0.00    +0.000 A 
ATOM      5  C   UNL     1       3.176   5.730  19.468  0.00  0.00    +0.000 A 
ATOM      6  C   UNL     1       3.737   6.551  18.469  0.00  0.00    +0.000 A 
ATOM      7  C   UNL     1       2.982   7.770  18.099  0.00  0.00    +0.000 C 
ATOM      8  O   UNL     1       3.053   8.254  16.977  0.00  0.00    +0.000 OA
ATOM      9  C   UNL     1       2.039   8.369  19.046  0.00  0.00    +0.000 A 
ATOM     10  C   UNL     1       1.593   9.683  18.852  0.00  0.00    +0.000 A 
ATOM     11  C   UNL     1       0.593  10.206  19.669  0.00  0.00    +0.000 A 
ATOM     12  C   UNL     1       0.040   9.417  20.677  0.00  0.00    +0.000 A 
ATOM     13  C   UNL     1       0.509   8.117  20.887  0.00  0.00    +0.000 A 
ATOM     14  C   UNL     1       1.523   7.595  20.073  0.00  0.00    +0.000 A 
ATOM     15  C   UNL     1       2.018   6.219  20.278  0.00  0.00    +0.000 C 
ATOM     16  O   UNL     1       1.473   5.540  21.137  0.00  0.00    +0.000 OA
ENDROOT
BRANCH   1  18
ATOM     17  C   UNL     1       6.697   7.661  17.247  0.00  0.00    +0.000 C 
ATOM     18  O   UNL     1       5.582   6.875  16.825  0.00  0.00    +0.000 OA
ENDBRANCH   1  18
BRANCH   2  19
ATOM     19  C   UNL     1       6.571   4.351  17.218  0.00  0.00    +0.000 C 
ATOM     20  O   UNL     1       7.678   4.260  17.753  0.00  0.00    +0.000 OA
ENDBRANCH   2  19
BRANCH   3  21
ATOM     21  O   UNL     1       5.227   2.725  19.185  0.00  0.00    +0.000 OA
ATOM     22  H   UNL     1       5.887   2.757  19.918  0.00  0.00    +0.000 HD
ENDBRANCH   3  21
BRANCH   4  23
ATOM     23  O   UNL     1       3.213   3.590  20.604  0.00  0.00    +0.000 OA
ATOM     24  H   UNL     1       2.254   3.771  20.652  0.00  0.00    +0.000 HD
ENDBRANCH   4  23
TORSDOF 4
ENDMDL
MODEL 4
REMARK VINA RESULT:      -6.2      1.952      4.343
REMARK  Name = 
REMARK  5 active torsions:
REMARK  status: ('A' for Active; 'I' for Inactive)
REMARK    1  A    between atoms: C_1  and  O_2
REMARK    2  A    between atoms: O_2  and  C_3
REMARK    3  A    between atoms: C_4  and  C_5
REMARK    4  A    between atoms: C_7  and  O_8
REMARK    5  A    between atoms: C_9  and  O_10
REMARK                            x       y       z     vdW  Elec       q    Type
REMARK                         _______ _______ _______ _____ _____    ______ ____
ROOT
ATOM      1  C   UNL     1       5.434   6.059  16.661  0.00  0.00    +0.000 A 
ATOM      2  C   UNL     1       5.957   4.919  16.017  0.00  0.00    +0.000 A 
ATOM      3  C   UNL     1       5.428   3.656  16.290  0.00  0.00    +0.000 A 
ATOM      4  C   UNL     1       4.398   3.509  17.220  0.00  0.00    +0.000 A 
ATOM      5  C   UNL     1       3.836   4.622  17.855  0.00  0.00    +0.000 A 
ATOM      6  C   UNL     1       4.322   5.904  17.530  0.00  0.00    +0.000 A 
ATOM      7  C   UNL     1       3.540   7.062  18.020  0.00  0.00    +0.000 C 
ATOM      8  O   UNL     1       3.528   8.129  17.421  0.00  0.00    +0.000 OA
ATOM      9  C   UNL     1       2.667   6.922  19.188  0.00  0.00    +0.000 A 
ATOM     10  C   UNL     1       2.206   8.064  19.857  0.00  0.00    +0.000 A 
ATOM     11  C   UNL     1       1.268   7.939  20.879  0.00  0.00    +0.000 A 
ATOM     12  C   UNL     1       0.790   6.677  21.230  0.00  0.00    +0.000 A 
ATOM     13  C   UNL     1       1.276   5.538  20.581  0.00  0.00    +0.000 A 
ATOM     14  C   UNL     1       2.229   5.662  19.561  0.00  0.00    +0.000 A 
ATOM     15  C   UNL     1       2.739   4.468  18.860  0.00  0.00    +0.000 C 
ATOM     16  O   UNL     1       2.259   3.383  19.160  0.00  0.00    +0.000 OA
ENDROOT
BRANCH   1  18
ATOM     17  C   UNL     1       7.054   7.760  17.183  0.00  0.00    +0.000 C 
ATOM     18  O   UNL     1       6.042   7.241  16.320  0.00  0.00    +0.000 OA
ENDBRANCH   1  18
BRANCH   2  19
ATOM     19  C   UNL     1       7.062   5.042  15.043  0.00  0.00    +0.000 C 
ATOM     20  O   UNL     1       6.913   4.662  13.880  0.00  0.00    +0.000 OA
ENDBRANCH   2  19
BRANCH   3  21
ATOM     21  O   UNL     1       5.867   2.498  15.690  0.00  0.00    +0.000 OA
ATOM     22  H   UNL     1       5.823   1.771  16.355  0.00  0.00    +0.000 HD
ENDBRANCH   3  21
BRANCH   4  23
ATOM     23  O   UNL     1       3.959   2.235  17.454  0.00  0.00    +0.000 OA
ATOM     24  H   UNL     1       3.018   2.217  17.189  0.00  0.00    +0.000 HD
ENDBRANCH   4  23
TORSDOF 4
ENDMDL
MODEL 5
REMARK VINA RESULT:      -6.0      1.932      5.672
REMARK  Name = 
REMARK  5 active torsions:
REMARK  status: ('A' for Active; 'I' for Inactive)
REMARK    1  A    between atoms: C_1  and  O_2
REMARK    2  A    between atoms: O_2  and  C_3
REMARK    3  A    between atoms: C_4  and  C_5
REMARK    4  A    between atoms: C_7  and  O_8
REMARK    5  A    between atoms: C_9  and  O_10
REMARK                            x       y       z     vdW  Elec       q    Type
REMARK                         _______ _______ _______ _____ _____    ______ ____
ROOT
ATOM      1  C   UNL     1       2.648   6.673  18.968  0.00  0.00    +0.000 A 
ATOM      2  C   UNL     1       1.847   6.139  19.998  0.00  0.00    +0.000 A 
ATOM      3  C   UNL     1       1.801   4.759  20.205  0.00  0.00    +0.000 A 
ATOM      4  C   UNL     1       2.525   3.897  19.380  0.00  0.00    +0.000 A 
ATOM      5  C   UNL     1       3.352   4.395  18.366  0.00  0.00    +0.000 A 
ATOM      6  C   UNL     1       3.453   5.791  18.200  0.00  0.00    +0.000 A 
ATOM      7  C   UNL     1       4.522   6.284  17.302  0.00  0.00    +0.000 C 
ATOM      8  O   UNL     1       5.040   7.381  17.461  0.00  0.00    +0.000 OA
ATOM      9  C   UNL     1       5.065   5.415  16.255  0.00  0.00    +0.000 A 
ATOM     10  C   UNL     1       5.806   5.967  15.202  0.00  0.00    +0.000 A 
ATOM     11  C   UNL     1       6.439   5.133  14.284  0.00  0.00    +0.000 A 
ATOM     12  C   UNL     1       6.333   3.749  14.419  0.00  0.00    +0.000 A 
ATOM     13  C   UNL     1       5.568   3.202  15.453  0.00  0.00    +0.000 A 
ATOM     14  C   UNL     1       4.921   4.042  16.370  0.00  0.00    +0.000 A 
ATOM     15  C   UNL     1       4.121   3.475  17.473  0.00  0.00    +0.000 C 
ATOM     16  O   UNL     1       4.093   2.258  17.590  0.00  0.00    +0.000 OA
ENDROOT
BRANCH   1  18
ATOM     17  C   UNL     1       1.797   8.612  17.825  0.00  0.00    +0.000 C 
ATOM     18  O   UNL     1       2.603   8.040  18.856  0.00  0.00    +0.000 OA
ENDBRANCH   1  18
BRANCH   2  19
ATOM     19  C   UNL     1       1.054   7.026  20.875  0.00  0.00    +0.000 C 
ATOM     20  O   UNL     1       1.610   7.896  21.547  0.00  0.00    +0.000 OA
ENDBRANCH   2  19
BRANCH   3  21
ATOM     21  O   UNL     1       1.063   4.160  21.200  0.00  0.00    +0.000 OA
ATOM     22  H   UNL     1       1.518   4.319  22.060  0.00  0.00    +0.000 HD
ENDBRANCH   3  21
BRANCH   4  23
ATOM     23  O   UNL     1       2.399   2.558  19.628  0.00  0.00    +0.000 OA
ATOM     24  H   UNL     1       2.801   2.404  20.506  0.00  0.00    +0.000 HD
ENDBRANCH   4  23
TORSDOF 4
ENDMDL
MODEL 6
REMARK VINA RESULT:      -6.0      3.370      7.184
REMARK  Name = 
REMARK  5 active torsions:
REMARK  status: ('A' for Active; 'I' for Inactive)
REMARK    1  A    between atoms: C_1  and  O_2
REMARK    2  A    between atoms: O_2  and  C_3
REMARK    3  A    between atoms: C_4  and  C_5
REMARK    4  A    between atoms: C_7  and  O_8
REMARK    5  A    between atoms: C_9  and  O_10
REMARK                            x       y       z     vdW  Elec       q    Type
REMARK                         _______ _______ _______ _____ _____    ______ ____
ROOT
ATOM      1  C   UNL     1       0.287  11.321  21.613  0.00  0.00    +0.000 A 
ATOM      2  C   UNL     1       0.158  12.657  21.178  0.00  0.00    +0.000 A 
ATOM      3  C   UNL     1       0.535  13.010  19.881  0.00  0.00    +0.000 A 
ATOM      4  C   UNL     1       1.067  12.053  19.016  0.00  0.00    +0.000 A 
ATOM      5  C   UNL     1       1.183  10.714  19.405  0.00  0.00    +0.000 A 
ATOM      6  C   UNL     1       0.738  10.342  20.690  0.00  0.00    +0.000 A 
ATOM      7  C   UNL     1       0.635   8.891  20.970  0.00  0.00    +0.000 C 
ATOM      8  O   UNL     1      -0.174   8.448  21.774  0.00  0.00    +0.000 OA
ATOM      9  C   UNL     1       1.435   7.933  20.203  0.00  0.00    +0.000 A 
ATOM     10  C   UNL     1       1.608   6.627  20.680  0.00  0.00    +0.000 A 
ATOM     11  C   UNL     1       2.249   5.677  19.889  0.00  0.00    +0.000 A 
ATOM     12  C   UNL     1       2.715   6.031  18.623  0.00  0.00    +0.000 A 
ATOM     13  C   UNL     1       2.568   7.343  18.163  0.00  0.00    +0.000 A 
ATOM     14  C   UNL     1       1.934   8.302  18.964  0.00  0.00    +0.000 A 
ATOM     15  C   UNL     1       1.761   9.687  18.484  0.00  0.00    +0.000 C 
ATOM     16  O   UNL     1       2.136   9.947  17.350  0.00  0.00    +0.000 OA
ENDROOT
BRANCH   1  18
ATOM     17  C   UNL     1      -1.504  11.035  23.195  0.00  0.00    +0.000 C 
ATOM     18  O   UNL     1      -0.106  11.099  22.908  0.00  0.00    +0.000 OA
ENDBRANCH   1  18
BRANCH   2  19
ATOM     19  C   UNL     1      -0.384  13.695  22.079  0.00  0.00    +0.000 C 
ATOM     20  O   UNL     1       0.354  14.571  22.535  0.00  0.00    +0.000 OA
ENDBRANCH   2  19
BRANCH   3  21
ATOM     21  O   UNL     1       0.422  14.283  19.373  0.00  0.00    +0.000 OA
ATOM     22  H   UNL     1       0.637  14.252  18.411  0.00  0.00    +0.000 HD
ENDBRANCH   3  21
BRANCH   4  23
ATOM     23  O   UNL     1       1.443  12.488  17.775  0.00  0.00    +0.000 OA
ATOM     24  H   UNL     1       2.420  12.515  17.779  0.00  0.00    +0.000 HD
ENDBRANCH   4  23
TORSDOF 4
ENDMDL
MODEL 7
REMARK VINA RESULT:      -5.9      1.205      3.575
REMARK  Name = 
REMARK  5 active torsions:
REMARK  status: ('A' for Active; 'I' for Inactive)
REMARK    1  A    between atoms: C_1  and  O_2
REMARK    2  A    between atoms: O_2  and  C_3
REMARK    3  A    between atoms: C_4  and  C_5
REMARK    4  A    between atoms: C_7  and  O_8
REMARK    5  A    between atoms: C_9  and  O_10
REMARK                            x       y       z     vdW  Elec       q    Type
REMARK                         _______ _______ _______ _____ _____    ______ ____
ROOT
ATOM      1  C   UNL     1       3.832   6.204  17.943  0.00  0.00    +0.000 A 
ATOM      2  C   UNL     1       4.004   4.879  18.392  0.00  0.00    +0.000 A 
ATOM      3  C   UNL     1       3.315   4.428  19.520  0.00  0.00    +0.000 A 
ATOM      4  C   UNL     1       2.475   5.290  20.225  0.00  0.00    +0.000 A 
ATOM      5  C   UNL     1       2.260   6.603  19.791  0.00  0.00    +0.000 A 
ATOM      6  C   UNL     1       2.901   7.039  18.614  0.00  0.00    +0.000 A 
ATOM      7  C   UNL     1       2.453   8.332  18.047  0.00  0.00    +0.000 C 
ATOM      8  O   UNL     1       2.521   8.566  16.847  0.00  0.00    +0.000 OA
ATOM      9  C   UNL     1       1.812   9.332  18.905  0.00  0.00    +0.000 A 
ATOM     10  C   UNL     1       1.706  10.660  18.471  0.00  0.00    +0.000 A 
ATOM     11  C   UNL     1       0.976  11.580  19.221  0.00  0.00    +0.000 A 
ATOM     12  C   UNL     1       0.353  11.172  20.400  0.00  0.00    +0.000 A 
ATOM     13  C   UNL     1       0.487   9.853  20.845  0.00  0.00    +0.000 A 
ATOM     14  C   UNL     1       1.231   8.931  20.097  0.00  0.00    +0.000 A 
ATOM     15  C   UNL     1       1.369   7.533  20.550  0.00  0.00    +0.000 C 
ATOM     16  O   UNL     1       0.766   7.200  21.561  0.00  0.00    +0.000 OA
ENDROOT
BRANCH   1  18
ATOM     17  C   UNL     1       5.865   7.103  17.020  0.00  0.00    +0.000 C 
ATOM     18  O   UNL     1       4.569   6.534  16.833  0.00  0.00    +0.000 OA
ENDBRANCH   1  18
BRANCH   2  19
ATOM     19  C   UNL     1       4.902   3.949  17.676  0.00  0.00    +0.000 C 
ATOM     20  O   UNL     1       4.449   2.947  17.122  0.00  0.00    +0.000 OA
ENDBRANCH   2  19
BRANCH   3  21
ATOM     21  O   UNL     1       3.410   3.146  20.010  0.00  0.00    +0.000 OA
ATOM     22  H   UNL     1       3.709   3.196  20.949  0.00  0.00    +0.000 HD
ENDBRANCH   3  21
BRANCH   4  23
ATOM     23  O   UNL     1       1.865   4.779  21.337  0.00  0.00    +0.000 OA
ATOM     24  H   UNL     1       0.996   5.223  21.401  0.00  0.00    +0.000 HD
ENDBRANCH   4  23
TORSDOF 4
ENDMDL
MODEL 8
REMARK VINA RESULT:      -5.8      1.645      5.606
REMARK  Name = 
REMARK  5 active torsions:
REMARK  status: ('A' for Active; 'I' for Inactive)
REMARK    1  A    between atoms: C_1  and  O_2
REMARK    2  A    between atoms: O_2  and  C_3
REMARK    3  A    between atoms: C_4  and  C_5
REMARK    4  A    between atoms: C_7  and  O_8
REMARK    5  A    between atoms: C_9  and  O_10
REMARK                            x       y       z     vdW  Elec       q    Type
REMARK                         _______ _______ _______ _____ _____    ______ ____
ROOT
ATOM      1  C   UNL     1       1.389   8.165  20.157  0.00  0.00    +0.000 A 
ATOM      2  C   UNL     1       1.398   9.299  19.318  0.00  0.00    +0.000 A 
ATOM      3  C   UNL     1       2.090   9.267  18.106  0.00  0.00    +0.000 A 
ATOM      4  C   UNL     1       2.799   8.126  17.728  0.00  0.00    +0.000 A 
ATOM      5  C   UNL     1       2.788   6.974  18.523  0.00  0.00    +0.000 A 
ATOM      6  C   UNL     1       2.033   6.980  19.713  0.00  0.00    +0.000 A 
ATOM      7  C   UNL     1       1.835   5.677  20.389  0.00  0.00    +0.000 C 
ATOM      8  O   UNL     1       0.844   5.452  21.071  0.00  0.00    +0.000 OA
ATOM      9  C   UNL     1       2.779   4.579  20.166  0.00  0.00    +0.000 A 
ATOM     10  C   UNL     1       2.803   3.489  21.045  0.00  0.00    +0.000 A 
ATOM     11  C   UNL     1       3.599   2.382  20.759  0.00  0.00    +0.000 A 
ATOM     12  C   UNL     1       4.369   2.366  19.597  0.00  0.00    +0.000 A 
ATOM     13  C   UNL     1       4.366   3.469  18.738  0.00  0.00    +0.000 A 
ATOM     14  C   UNL     1       3.574   4.587  19.032  0.00  0.00    +0.000 A 
ATOM     15  C   UNL     1       3.554   5.752  18.126  0.00  0.00    +0.000 C 
ATOM     16  O   UNL     1       4.202   5.680  17.091  0.00  0.00    +0.000 OA
ENDROOT
BRANCH   1  18
ATOM     17  C   UNL     1       1.318   8.987  22.418  0.00  0.00    +0.000 C 
ATOM     18  O   UNL     1       0.685   8.320  21.324  0.00  0.00    +0.000 OA
ENDBRANCH   1  18
BRANCH   2  19
ATOM     19  C   UNL     1       0.673  10.528  19.703  0.00  0.00    +0.000 C 
ATOM     20  O   UNL     1       1.256  11.613  19.729  0.00  0.00    +0.000 OA
ENDBRANCH   2  19
BRANCH   3  21
ATOM     21  O   UNL     1       2.131  10.321  17.222  0.00  0.00    +0.000 OA
ATOM     22  H   UNL     1       1.891   9.982  16.328  0.00  0.00    +0.000 HD
ENDBRANCH   3  21
BRANCH   4  23
ATOM     23  O   UNL     1       3.477   8.189  16.542  0.00  0.00    +0.000 OA
ATOM     24  H   UNL     1       3.577   9.139  16.334  0.00  0.00    +0.000 HD
ENDBRANCH   4  23
TORSDOF 4
ENDMDL
MODEL 9
REMARK VINA RESULT:      -5.8      6.212      8.625
REMARK  Name = 
REMARK  5 active torsions:
REMARK  status: ('A' for Active; 'I' for Inactive)
REMARK    1  A    between atoms: C_1  and  O_2
REMARK    2  A    between atoms: O_2  and  C_3
REMARK    3  A    between atoms: C_4  and  C_5
REMARK    4  A    between atoms: C_7  and  O_8
REMARK    5  A    between atoms: C_9  and  O_10
REMARK                            x       y       z     vdW  Elec       q    Type
REMARK                         _______ _______ _______ _____ _____    ______ ____
ROOT
ATOM      1  C   UNL     1      -1.496  12.029  20.610  0.00  0.00    +0.000 A 
ATOM      2  C   UNL     1      -0.347  11.452  20.030  0.00  0.00    +0.000 A 
ATOM      3  C   UNL     1      -0.403  10.930  18.737  0.00  0.00    +0.000 A 
ATOM      4  C   UNL     1      -1.599  10.951  18.018  0.00  0.00    +0.000 A 
ATOM      5  C   UNL     1      -2.750  11.541  18.552  0.00  0.00    +0.000 A 
ATOM      6  C   UNL     1      -2.678  12.130  19.830  0.00  0.00    +0.000 A 
ATOM      7  C   UNL     1      -3.828  12.964  20.250  0.00  0.00    +0.000 C 
ATOM      8  O   UNL     1      -3.693  13.897  21.032  0.00  0.00    +0.000 OA
ATOM      9  C   UNL     1      -5.148  12.757  19.650  0.00  0.00    +0.000 A 
ATOM     10  C   UNL     1      -6.288  13.283  20.271  0.00  0.00    +0.000 A 
ATOM     11  C   UNL     1      -7.525  13.207  19.634  0.00  0.00    +0.000 A 
ATOM     12  C   UNL     1      -7.620  12.609  18.377  0.00  0.00    +0.000 A 
ATOM     13  C   UNL     1      -6.485  12.059  17.775  0.00  0.00    +0.000 A 
ATOM     14  C   UNL     1      -5.243  12.124  18.422  0.00  0.00    +0.000 A 
ATOM     15  C   UNL     1      -4.036  11.557  17.789  0.00  0.00    +0.000 C 
ATOM     16  O   UNL     1      -4.149  11.087  16.666  0.00  0.00    +0.000 OA
ENDROOT
BRANCH   1  18
ATOM     17  C   UNL     1      -1.820  11.716  22.974  0.00  0.00    +0.000 C 
ATOM     18  O   UNL     1      -1.321  12.497  21.887  0.00  0.00    +0.000 OA
ENDBRANCH   1  18
BRANCH   2  19
ATOM     19  C   UNL     1       0.928  11.397  20.775  0.00  0.00    +0.000 C 
ATOM     20  O   UNL     1       1.143  10.487  21.577  0.00  0.00    +0.000 OA
ENDBRANCH   2  19
BRANCH   3  21
ATOM     21  O   UNL     1       0.676  10.369  18.092  0.00  0.00    +0.000 OA
ATOM     22  H   UNL     1       1.443  10.377  18.712  0.00  0.00    +0.000 HD
ENDBRANCH   3  21
BRANCH   4  23
ATOM     23  O   UNL     1      -1.576  10.389  16.772  0.00  0.00    +0.000 OA
ATOM     24  H   UNL     1      -1.121   9.529  16.867  0.00  0.00    +0.000 HD
ENDBRANCH   4  23
TORSDOF 4
ENDMDL
