MODEL 1
REMARK VINA RESULT:      -5.9      0.000      0.000
REMARK  Name = 
REMARK  10 active torsions:
REMARK  status: ('A' for Active; 'I' for Inactive)
REMARK    1  A    between atoms: C_1  and  O_2
REMARK    2  A    between atoms: O_2  and  C_3
REMARK    3  A    between atoms: C_3  and  O_4
REMARK    4  A    between atoms: O_4  and  C_5
REMARK    5  A    between atoms: C_7  and  C_8
REMARK    6  A    between atoms: C_8  and  O_10
REMARK    7  A    between atoms: O_10  and  C_11
REMARK    8  A    between atoms: C_12  and  C_13
REMARK    9  A    between atoms: C_20  and  C_21
REMARK   10  A    between atoms: C_27  and  C_28
REMARK                            x       y       z     vdW  Elec       q    Type
REMARK                         _______ _______ _______ _____ _____    ______ ____
ROOT
ATOM      1  C   UNL     1      -1.078  11.377  22.478  0.00  0.00    +0.000 C 
ATOM      2  C   UNL     1      -2.265  11.607  23.406  0.00  0.00    +0.000 C 
ATOM      3  C   UNL     1      -3.275  12.653  22.910  0.00  0.00    +0.000 C 
ATOM      4  C   UNL     1      -2.566  14.016  22.598  0.00  0.00    +0.000 C 
ATOM      5  C   UNL     1      -1.964  14.545  23.931  0.00  0.00    +0.000 C 
ATOM      6  C   UNL     1      -3.599  15.038  22.054  0.00  0.00    +0.000 C 
ATOM      7  C   UNL     1      -2.989  16.279  21.389  0.00  0.00    +0.000 C 
ATOM      8  C   UNL     1      -2.018  15.909  20.262  0.00  0.00    +0.000 C 
ATOM      9  C   UNL     1      -1.549  17.147  19.505  0.00  0.00    +0.000 C 
ATOM     10  O   UNL     1      -2.194  18.189  19.508  0.00  0.00    +0.000 OA
ATOM     11  O   UNL     1      -0.455  17.034  18.722  0.00  0.00    +0.000 OA
ATOM     12  C   UNL     1       0.523  15.972  18.801  0.00  0.00    +0.000 C 
ATOM     13  C   UNL     1      -0.011  14.717  19.526  0.00  0.00    +0.000 C 
ATOM     14  C   UNL     1      -0.858  15.039  20.794  0.00  0.00    +0.000 C 
ATOM     15  C   UNL     1       0.021  15.824  21.786  0.00  0.00    +0.000 C 
ATOM     16  C   UNL     1      -1.488  13.749  21.462  0.00  0.00    +0.000 C 
ATOM     17  C   UNL     1      -0.467  12.697  21.943  0.00  0.00    +0.000 C 
ATOM     18  O   UNL     1       0.732  12.836  21.778  0.00  0.00    +0.000 OA
ENDROOT
BRANCH  12  19
ATOM     19  C   UNL     1       1.851  16.479  19.322  0.00  0.00    +0.000 A 
ATOM     20  C   UNL     1       3.045  15.747  19.630  0.00  0.00    +0.000 A 
ATOM     21  C   UNL     1       4.022  16.681  19.893  0.00  0.00    +0.000 A 
ATOM     22  O   UNL     1       3.485  17.924  19.925  0.00  0.00    +0.000 OA
ATOM     23  C   UNL     1       2.169  17.791  19.623  0.00  0.00    +0.000 A 
ENDBRANCH  12  19
BRANCH   3  24
ATOM     24  C   UNL     1      -4.403  12.769  23.945  0.00  0.00    +0.000 C 
ATOM     25  O   UNL     1      -4.272  12.551  25.142  0.00  0.00    +0.000 OA
BRANCH  24  26
ATOM     26  O   UNL     1      -5.567  13.167  23.360  0.00  0.00    +0.000 OA
ATOM     27  C   UNL     1      -6.727  12.621  23.997  0.00  0.00    +0.000 C 
ENDBRANCH  24  26
ENDBRANCH   3  24
BRANCH   1  28
ATOM     28  O   UNL     1      -0.089  10.572  23.122  0.00  0.00    +0.000 OA
BRANCH  28  29
ATOM     29  C   UNL     1       0.071   9.287  22.528  0.00  0.00    +0.000 C 
BRANCH  29  31
ATOM     30  C   UNL     1       1.357   8.206  20.904  0.00  0.00    +0.000 C 
ATOM     31  O   UNL     1       1.387   9.078  22.027  0.00  0.00    +0.000 OA
ENDBRANCH  29  31
ENDBRANCH  28  29
ENDBRANCH   1  28
TORSDOF 6
ENDMDL
MODEL 2
REMARK VINA RESULT:      -5.8      8.401     11.613
REMARK  Name = 
REMARK  10 active torsions:
REMARK  status: ('A' for Active; 'I' for Inactive)
REMARK    1  A    between atoms: C_1  and  O_2
REMARK    2  A    between atoms: O_2  and  C_3
REMARK    3  A    between atoms: C_3  and  O_4
REMARK    4  A    between atoms: O_4  and  C_5
REMARK    5  A    between atoms: C_7  and  C_8
REMARK    6  A    between atoms: C_8  and  O_10
REMARK    7  A    between atoms: O_10  and  C_11
REMARK    8  A    between atoms: C_12  and  C_13
REMARK    9  A    between atoms: C_20  and  C_21
REMARK   10  A    between atoms: C_27  and  C_28
REMARK                            x       y       z     vdW  Elec       q    Type
REMARK                         _______ _______ _______ _____ _____    ______ ____
ROOT
ATOM      1  C   UNL     1       9.858  11.347  20.396  0.00  0.00    +0.000 C 
ATOM      2  C   UNL     1      10.033  12.476  19.388  0.00  0.00    +0.000 C 
ATOM      3  C   UNL     1      10.354  13.845  20.005  0.00  0.00    +0.000 C 
ATOM      4  C   UNL     1       9.282  14.245  21.077  0.00  0.00    +0.000 C 
ATOM      5  C   UNL     1       7.916  14.373  20.345  0.00  0.00    +0.000 C 
ATOM      6  C   UNL     1       9.656  15.607  21.718  0.00  0.00    +0.000 C 
ATOM      7  C   UNL     1       8.896  15.942  23.009  0.00  0.00    +0.000 C 
ATOM      8  C   UNL     1       9.042  14.841  24.065  0.00  0.00    +0.000 C 
ATOM      9  C   UNL     1       8.422  15.261  25.394  0.00  0.00    +0.000 C 
ATOM     10  O   UNL     1       8.255  16.440  25.684  0.00  0.00    +0.000 OA
ATOM     11  O   UNL     1       8.169  14.300  26.306  0.00  0.00    +0.000 OA
ATOM     12  C   UNL     1       8.088  12.883  26.027  0.00  0.00    +0.000 C 
ATOM     13  C   UNL     1       8.776  12.492  24.700  0.00  0.00    +0.000 C 
ATOM     14  C   UNL     1       8.505  13.493  23.536  0.00  0.00    +0.000 C 
ATOM     15  C   UNL     1       6.987  13.555  23.285  0.00  0.00    +0.000 C 
ATOM     16  C   UNL     1       9.304  13.138  22.216  0.00  0.00    +0.000 C 
ATOM     17  C   UNL     1       8.987  11.754  21.612  0.00  0.00    +0.000 C 
ATOM     18  O   UNL     1       8.209  10.980  22.141  0.00  0.00    +0.000 OA
ENDROOT
BRANCH  12  19
ATOM     19  C   UNL     1       6.672  12.369  26.173  0.00  0.00    +0.000 A 
ATOM     20  C   UNL     1       6.156  11.050  25.948  0.00  0.00    +0.000 A 
ATOM     21  C   UNL     1       4.853  11.056  26.393  0.00  0.00    +0.000 A 
ATOM     22  O   UNL     1       4.478  12.312  26.729  0.00  0.00    +0.000 OA
ATOM     23  C   UNL     1       5.564  13.106  26.554  0.00  0.00    +0.000 A 
ENDBRANCH  12  19
BRANCH   3  24
ATOM     24  C   UNL     1      10.501  14.868  18.870  0.00  0.00    +0.000 C 
ATOM     25  O   UNL     1      10.797  16.045  19.031  0.00  0.00    +0.000 OA
BRANCH  24  26
ATOM     26  O   UNL     1      10.278  14.291  17.656  0.00  0.00    +0.000 OA
ATOM     27  C   UNL     1      11.418  14.350  16.793  0.00  0.00    +0.000 C 
ENDBRANCH  24  26
ENDBRANCH   3  24
BRANCH   1  28
ATOM     28  O   UNL     1       9.339  10.180  19.755  0.00  0.00    +0.000 OA
BRANCH  28  29
ATOM     29  C   UNL     1       9.106  10.356  18.361  0.00  0.00    +0.000 C 
BRANCH  29  31
ATOM     30  C   UNL     1       8.062   8.322  17.879  0.00  0.00    +0.000 C 
ATOM     31  O   UNL     1       7.901   9.734  17.927  0.00  0.00    +0.000 OA
ENDBRANCH  29  31
ENDBRANCH  28  29
ENDBRANCH   1  28
TORSDOF 6
ENDMDL
MODEL 3
REMARK VINA RESULT:      -5.8      3.723      6.836
REMARK  Name = 
REMARK  10 active torsions:
REMARK  status: ('A' for Active; 'I' for Inactive)
REMARK    1  A    between atoms: C_1  and  O_2
REMARK    2  A    between atoms: O_2  and  C_3
REMARK    3  A    between atoms: C_3  and  O_4
REMARK    4  A    between atoms: O_4  and  C_5
REMARK    5  A    between atoms: C_7  and  C_8
REMARK    6  A    between atoms: C_8  and  O_10
REMARK    7  A    between atoms: O_10  and  C_11
REMARK    8  A    between atoms: C_12  and  C_13
REMARK    9  A    between atoms: C_20  and  C_21
REMARK   10  A    between atoms: C_27  and  C_28
REMARK                            x       y       z     vdW  Elec       q    Type
REMARK                         _______ _______ _______ _____ _____    ______ ____
ROOT
ATOM      1  C   UNL     1      -2.590  10.328  18.238  0.00  0.00    +0.000 C 
ATOM      2  C   UNL     1      -1.109  10.183  17.908  0.00  0.00    +0.000 C 
ATOM      3  C   UNL     1      -0.160  10.412  19.093  0.00  0.00    +0.000 C 
ATOM      4  C   UNL     1      -0.426  11.804  19.765  0.00  0.00    +0.000 C 
ATOM      5  C   UNL     1      -0.120  12.900  18.704  0.00  0.00    +0.000 C 
ATOM      6  C   UNL     1       0.512  11.990  20.988  0.00  0.00    +0.000 C 
ATOM      7  C   UNL     1       0.121  13.136  21.930  0.00  0.00    +0.000 C 
ATOM      8  C   UNL     1      -1.323  13.005  22.429  0.00  0.00    +0.000 C 
ATOM      9  C   UNL     1      -1.641  14.053  23.489  0.00  0.00    +0.000 C 
ATOM     10  O   UNL     1      -0.760  14.596  24.146  0.00  0.00    +0.000 OA
ATOM     11  O   UNL     1      -2.938  14.288  23.778  0.00  0.00    +0.000 OA
ATOM     12  C   UNL     1      -4.060  13.916  22.945  0.00  0.00    +0.000 C 
ATOM     13  C   UNL     1      -3.710  12.813  21.922  0.00  0.00    +0.000 C 
ATOM     14  C   UNL     1      -2.318  13.004  21.248  0.00  0.00    +0.000 C 
ATOM     15  C   UNL     1      -2.311  14.356  20.510  0.00  0.00    +0.000 C 
ATOM     16  C   UNL     1      -1.926  11.809  20.286  0.00  0.00    +0.000 C 
ATOM     17  C   UNL     1      -2.893  11.575  19.107  0.00  0.00    +0.000 C 
ATOM     18  O   UNL     1      -3.904  12.238  18.958  0.00  0.00    +0.000 OA
ENDROOT
BRANCH  12  19
ATOM     19  C   UNL     1      -4.734  15.133  22.346  0.00  0.00    +0.000 A 
ATOM     20  C   UNL     1      -4.462  16.523  22.567  0.00  0.00    +0.000 A 
ATOM     21  C   UNL     1      -5.222  17.222  21.657  0.00  0.00    +0.000 A 
ATOM     22  O   UNL     1      -6.057  16.383  21.001  0.00  0.00    +0.000 OA
ATOM     23  C   UNL     1      -5.789  15.131  21.451  0.00  0.00    +0.000 A 
ENDBRANCH  12  19
BRANCH   3  24
ATOM     24  C   UNL     1       1.284  10.231  18.604  0.00  0.00    +0.000 C 
ATOM     25  O   UNL     1       1.937  11.095  18.035  0.00  0.00    +0.000 OA
BRANCH  24  26
ATOM     26  O   UNL     1       1.752   8.987  18.904  0.00  0.00    +0.000 OA
ATOM     27  C   UNL     1       2.429   8.367  17.806  0.00  0.00    +0.000 C 
ENDBRANCH  24  26
ENDBRANCH   3  24
BRANCH   1  28
ATOM     28  O   UNL     1      -3.371  10.327  17.042  0.00  0.00    +0.000 OA
BRANCH  28  29
ATOM     29  C   UNL     1      -2.647   9.898  15.892  0.00  0.00    +0.000 C 
BRANCH  29  31
ATOM     30  C   UNL     1      -3.790  10.008  13.857  0.00  0.00    +0.000 C 
ATOM     31  O   UNL     1      -2.920  10.697  14.746  0.00  0.00    +0.000 OA
ENDBRANCH  29  31
ENDBRANCH  28  29
ENDBRANCH   1  28
TORSDOF 6
ENDMDL
MODEL 4
REMARK VINA RESULT:      -5.8      2.888      6.992
REMARK  Name = 
REMARK  10 active torsions:
REMARK  status: ('A' for Active; 'I' for Inactive)
REMARK    1  A    between atoms: C_1  and  O_2
REMARK    2  A    between atoms: O_2  and  C_3
REMARK    3  A    between atoms: C_3  and  O_4
REMARK    4  A    between atoms: O_4  and  C_5
REMARK    5  A    between atoms: C_7  and  C_8
REMARK    6  A    between atoms: C_8  and  O_10
REMARK    7  A    between atoms: O_10  and  C_11
REMARK    8  A    between atoms: C_12  and  C_13
REMARK    9  A    between atoms: C_20  and  C_21
REMARK   10  A    between atoms: C_27  and  C_28
REMARK                            x       y       z     vdW  Elec       q    Type
REMARK                         _______ _______ _______ _____ _____    ______ ____
ROOT
ATOM      1  C   UNL     1      -1.127  11.741  18.854  0.00  0.00    +0.000 C 
ATOM      2  C   UNL     1       0.121  12.580  18.605  0.00  0.00    +0.000 C 
ATOM      3  C   UNL     1       0.762  13.168  19.871  0.00  0.00    +0.000 C 
ATOM      4  C   UNL     1      -0.282  13.992  20.701  0.00  0.00    +0.000 C 
ATOM      5  C   UNL     1      -0.745  15.185  19.816  0.00  0.00    +0.000 C 
ATOM      6  C   UNL     1       0.379  14.533  21.996  0.00  0.00    +0.000 C 
ATOM      7  C   UNL     1      -0.605  15.050  23.054  0.00  0.00    +0.000 C 
ATOM      8  C   UNL     1      -1.649  13.994  23.435  0.00  0.00    +0.000 C 
ATOM      9  C   UNL     1      -2.513  14.462  24.600  0.00  0.00    +0.000 C 
ATOM     10  O   UNL     1      -2.132  15.328  25.380  0.00  0.00    +0.000 OA
ATOM     11  O   UNL     1      -3.672  13.810  24.832  0.00  0.00    +0.000 OA
ATOM     12  C   UNL     1      -4.353  12.956  23.884  0.00  0.00    +0.000 C 
ATOM     13  C   UNL     1      -3.429  12.459  22.751  0.00  0.00    +0.000 C 
ATOM     14  C   UNL     1      -2.468  13.555  22.201  0.00  0.00    +0.000 C 
ATOM     15  C   UNL     1      -3.314  14.718  21.649  0.00  0.00    +0.000 C 
ATOM     16  C   UNL     1      -1.453  13.003  21.118  0.00  0.00    +0.000 C 
ATOM     17  C   UNL     1      -2.107  12.400  19.857  0.00  0.00    +0.000 C 
ATOM     18  O   UNL     1      -3.315  12.320  19.730  0.00  0.00    +0.000 OA
ENDROOT
BRANCH  12  19
ATOM     19  C   UNL     1      -5.649  13.577  23.409  0.00  0.00    +0.000 A 
ATOM     20  C   UNL     1      -6.259  14.815  23.796  0.00  0.00    +0.000 A 
ATOM     21  C   UNL     1      -7.326  15.010  22.948  0.00  0.00    +0.000 A 
ATOM     22  O   UNL     1      -7.515  13.917  22.173  0.00  0.00    +0.000 OA
ATOM     23  C   UNL     1      -6.528  13.039  22.485  0.00  0.00    +0.000 A 
ENDBRANCH  12  19
BRANCH   3  24
ATOM     24  C   UNL     1       1.998  13.980  19.458  0.00  0.00    +0.000 C 
ATOM     25  O   UNL     1       2.020  14.795  18.546  0.00  0.00    +0.000 OA
BRANCH  24  26
ATOM     26  O   UNL     1       3.065  13.690  20.255  0.00  0.00    +0.000 OA
ATOM     27  C   UNL     1       3.875  14.835  20.541  0.00  0.00    +0.000 C 
ENDBRANCH  24  26
ENDBRANCH   3  24
BRANCH   1  28
ATOM     28  O   UNL     1      -1.778  11.435  17.619  0.00  0.00    +0.000 OA
BRANCH  28  29
ATOM     29  C   UNL     1      -1.875  10.038  17.361  0.00  0.00    +0.000 C 
BRANCH  29  31
ATOM     30  C   UNL     1      -2.974  10.875  15.477  0.00  0.00    +0.000 C 
ATOM     31  O   UNL     1      -2.791   9.739  16.313  0.00  0.00    +0.000 OA
ENDBRANCH  29  31
ENDBRANCH  28  29
ENDBRANCH   1  28
TORSDOF 6
ENDMDL
MODEL 5
REMARK VINA RESULT:      -5.8      2.990      6.969
REMARK  Name = 
REMARK  10 active torsions:
REMARK  status: ('A' for Active; 'I' for Inactive)
REMARK    1  A    between atoms: C_1  and  O_2
REMARK    2  A    between atoms: O_2  and  C_3
REMARK    3  A    between atoms: C_3  and  O_4
REMARK    4  A    between atoms: O_4  and  C_5
REMARK    5  A    between atoms: C_7  and  C_8
REMARK    6  A    between atoms: C_8  and  O_10
REMARK    7  A    between atoms: O_10  and  C_11
REMARK    8  A    between atoms: C_12  and  C_13
REMARK    9  A    between atoms: C_20  and  C_21
REMARK   10  A    between atoms: C_27  and  C_28
REMARK                            x       y       z     vdW  Elec       q    Type
REMARK                         _______ _______ _______ _____ _____    ______ ____
ROOT
ATOM      1  C   UNL     1      -1.156  11.656  18.826  0.00  0.00    +0.000 C 
ATOM      2  C   UNL     1       0.154  12.409  18.625  0.00  0.00    +0.000 C 
ATOM      3  C   UNL     1       0.790  12.949  19.913  0.00  0.00    +0.000 C 
ATOM      4  C   UNL     1      -0.225  13.841  20.711  0.00  0.00    +0.000 C 
ATOM      5  C   UNL     1      -0.574  15.064  19.815  0.00  0.00    +0.000 C 
ATOM      6  C   UNL     1       0.427  14.334  22.030  0.00  0.00    +0.000 C 
ATOM      7  C   UNL     1      -0.556  14.915  23.056  0.00  0.00    +0.000 C 
ATOM      8  C   UNL     1      -1.682  13.931  23.396  0.00  0.00    +0.000 C 
ATOM      9  C   UNL     1      -2.552  14.455  24.533  0.00  0.00    +0.000 C 
ATOM     10  O   UNL     1      -2.140  15.292  25.329  0.00  0.00    +0.000 OA
ATOM     11  O   UNL     1      -3.760  13.883  24.722  0.00  0.00    +0.000 OA
ATOM     12  C   UNL     1      -4.464  13.079  23.748  0.00  0.00    +0.000 C 
ATOM     13  C   UNL     1      -3.537  12.522  22.645  0.00  0.00    +0.000 C 
ATOM     14  C   UNL     1      -2.485  13.552  22.133  0.00  0.00    +0.000 C 
ATOM     15  C   UNL     1      -3.231  14.770  21.557  0.00  0.00    +0.000 C 
ATOM     16  C   UNL     1      -1.473  12.934  21.083  0.00  0.00    +0.000 C 
ATOM     17  C   UNL     1      -2.123  12.379  19.798  0.00  0.00    +0.000 C 
ATOM     18  O   UNL     1      -3.329  12.381  19.629  0.00  0.00    +0.000 OA
ENDROOT
BRANCH  12  19
ATOM     19  C   UNL     1      -5.698  13.787  23.230  0.00  0.00    +0.000 A 
ATOM     20  C   UNL     1      -6.578  13.415  22.163  0.00  0.00    +0.000 A 
ATOM     21  C   UNL     1      -7.642  14.287  22.207  0.00  0.00    +0.000 A 
ATOM     22  O   UNL     1      -7.411  15.263  23.117  0.00  0.00    +0.000 OA
ATOM     23  C   UNL     1      -6.218  14.981  23.700  0.00  0.00    +0.000 A 
ENDBRANCH  12  19
BRANCH   3  24
ATOM     24  C   UNL     1       2.091  13.677  19.547  0.00  0.00    +0.000 C 
ATOM     25  O   UNL     1       3.021  13.866  20.319  0.00  0.00    +0.000 OA
BRANCH  24  26
ATOM     26  O   UNL     1       2.085  14.067  18.241  0.00  0.00    +0.000 OA
ATOM     27  C   UNL     1       3.153  14.965  17.923  0.00  0.00    +0.000 C 
ENDBRANCH  24  26
ENDBRANCH   3  24
BRANCH   1  28
ATOM     28  O   UNL     1      -1.783  11.397  17.569  0.00  0.00    +0.000 OA
BRANCH  28  29
ATOM     29  C   UNL     1      -2.025  10.014  17.331  0.00  0.00    +0.000 C 
BRANCH  29  31
ATOM     30  C   UNL     1      -3.066  10.913  15.442  0.00  0.00    +0.000 C 
ATOM     31  O   UNL     1      -2.452   9.756  15.997  0.00  0.00    +0.000 OA
ENDBRANCH  29  31
ENDBRANCH  28  29
ENDBRANCH   1  28
TORSDOF 6
ENDMDL
MODEL 6
REMARK VINA RESULT:      -5.8      3.752      7.104
REMARK  Name = 
REMARK  10 active torsions:
REMARK  status: ('A' for Active; 'I' for Inactive)
REMARK    1  A    between atoms: C_1  and  O_2
REMARK    2  A    between atoms: O_2  and  C_3
REMARK    3  A    between atoms: C_3  and  O_4
REMARK    4  A    between atoms: O_4  and  C_5
REMARK    5  A    between atoms: C_7  and  C_8
REMARK    6  A    between atoms: C_8  and  O_10
REMARK    7  A    between atoms: O_10  and  C_11
REMARK    8  A    between atoms: C_12  and  C_13
REMARK    9  A    between atoms: C_20  and  C_21
REMARK   10  A    between atoms: C_27  and  C_28
REMARK                            x       y       z     vdW  Elec       q    Type
REMARK                         _______ _______ _______ _____ _____    ______ ____
ROOT
ATOM      1  C   UNL     1      -3.113  10.952  18.129  0.00  0.00    +0.000 C 
ATOM      2  C   UNL     1      -1.593  10.912  18.223  0.00  0.00    +0.000 C 
ATOM      3  C   UNL     1      -1.036  10.949  19.654  0.00  0.00    +0.000 C 
ATOM      4  C   UNL     1      -1.591  12.186  20.442  0.00  0.00    +0.000 C 
ATOM      5  C   UNL     1      -1.089  13.466  19.714  0.00  0.00    +0.000 C 
ATOM      6  C   UNL     1      -1.052  12.173  21.897  0.00  0.00    +0.000 C 
ATOM      7  C   UNL     1      -1.782  13.115  22.863  0.00  0.00    +0.000 C 
ATOM      8  C   UNL     1      -3.292  12.854  22.892  0.00  0.00    +0.000 C 
ATOM      9  C   UNL     1      -3.978  13.681  23.973  0.00  0.00    +0.000 C 
ATOM     10  O   UNL     1      -3.363  14.120  24.939  0.00  0.00    +0.000 OA
ATOM     11  O   UNL     1      -5.319  13.822  23.908  0.00  0.00    +0.000 OA
ATOM     12  C   UNL     1      -6.128  13.576  22.735  0.00  0.00    +0.000 C 
ATOM     13  C   UNL     1      -5.418  12.688  21.690  0.00  0.00    +0.000 C 
ATOM     14  C   UNL     1      -3.913  13.040  21.490  0.00  0.00    +0.000 C 
ATOM     15  C   UNL     1      -3.808  14.503  21.022  0.00  0.00    +0.000 C 
ATOM     16  C   UNL     1      -3.172  12.052  20.498  0.00  0.00    +0.000 C 
ATOM     17  C   UNL     1      -3.748  12.010  19.067  0.00  0.00    +0.000 C 
ATOM     18  O   UNL     1      -4.726  12.659  18.744  0.00  0.00    +0.000 OA
ENDROOT
BRANCH  12  19
ATOM     19  C   UNL     1      -6.703  14.861  22.178  0.00  0.00    +0.000 A 
ATOM     20  C   UNL     1      -6.626  16.193  22.703  0.00  0.00    +0.000 A 
ATOM     21  C   UNL     1      -7.149  17.026  21.740  0.00  0.00    +0.000 A 
ATOM     22  O   UNL     1      -7.684  16.299  20.731  0.00  0.00    +0.000 OA
ATOM     23  C   UNL     1      -7.451  14.994  21.022  0.00  0.00    +0.000 A 
ENDBRANCH  12  19
BRANCH   3  24
ATOM     24  C   UNL     1       0.497  10.902  19.582  0.00  0.00    +0.000 C 
ATOM     25  O   UNL     1       1.162  11.353  18.660  0.00  0.00    +0.000 OA
BRANCH  24  26
ATOM     26  O   UNL     1       1.023  10.311  20.691  0.00  0.00    +0.000 OA
ATOM     27  C   UNL     1       1.064   8.883  20.595  0.00  0.00    +0.000 C 
ENDBRANCH  24  26
ENDBRANCH   3  24
BRANCH   1  28
ATOM     28  O   UNL     1      -3.525  11.147  16.775  0.00  0.00    +0.000 OA
BRANCH  28  29
ATOM     29  C   UNL     1      -2.957  10.206  15.869  0.00  0.00    +0.000 C 
BRANCH  29  31
ATOM     30  C   UNL     1      -3.661   9.979  13.652  0.00  0.00    +0.000 C 
ATOM     31  O   UNL     1      -2.842  10.722  14.547  0.00  0.00    +0.000 OA
ENDBRANCH  29  31
ENDBRANCH  28  29
ENDBRANCH   1  28
TORSDOF 6
ENDMDL
MODEL 7
REMARK VINA RESULT:      -5.7      3.543      7.063
REMARK  Name = 
REMARK  10 active torsions:
REMARK  status: ('A' for Active; 'I' for Inactive)
REMARK    1  A    between atoms: C_1  and  O_2
REMARK    2  A    between atoms: O_2  and  C_3
REMARK    3  A    between atoms: C_3  and  O_4
REMARK    4  A    between atoms: O_4  and  C_5
REMARK    5  A    between atoms: C_7  and  C_8
REMARK    6  A    between atoms: C_8  and  O_10
REMARK    7  A    between atoms: O_10  and  C_11
REMARK    8  A    between atoms: C_12  and  C_13
REMARK    9  A    between atoms: C_20  and  C_21
REMARK   10  A    between atoms: C_27  and  C_28
REMARK                            x       y       z     vdW  Elec       q    Type
REMARK                         _______ _______ _______ _____ _____    ______ ____
ROOT
ATOM      1  C   UNL     1      -3.060  11.322  18.606  0.00  0.00    +0.000 C 
ATOM      2  C   UNL     1      -1.537  11.371  18.600  0.00  0.00    +0.000 C 
ATOM      3  C   UNL     1      -0.891  11.457  19.990  0.00  0.00    +0.000 C 
ATOM      4  C   UNL     1      -1.463  12.669  20.803  0.00  0.00    +0.000 C 
ATOM      5  C   UNL     1      -1.085  13.967  20.033  0.00  0.00    +0.000 C 
ATOM      6  C   UNL     1      -0.829  12.704  22.219  0.00  0.00    +0.000 C 
ATOM      7  C   UNL     1      -1.548  13.614  23.224  0.00  0.00    +0.000 C 
ATOM      8  C   UNL     1      -3.035  13.267  23.355  0.00  0.00    +0.000 C 
ATOM      9  C   UNL     1      -3.696  14.066  24.472  0.00  0.00    +0.000 C 
ATOM     10  O   UNL     1      -3.046  14.551  25.392  0.00  0.00    +0.000 OA
ATOM     11  O   UNL     1      -5.044  14.129  24.495  0.00  0.00    +0.000 OA
ATOM     12  C   UNL     1      -5.913  13.824  23.380  0.00  0.00    +0.000 C 
ATOM     13  C   UNL     1      -5.222  12.966  22.297  0.00  0.00    +0.000 C 
ATOM     14  C   UNL     1      -3.756  13.400  21.995  0.00  0.00    +0.000 C 
ATOM     15  C   UNL     1      -3.768  14.862  21.510  0.00  0.00    +0.000 C 
ATOM     16  C   UNL     1      -3.027  12.445  20.965  0.00  0.00    +0.000 C 
ATOM     17  C   UNL     1      -3.692  12.353  19.575  0.00  0.00    +0.000 C 
ATOM     18  O   UNL     1      -4.725  12.941  19.312  0.00  0.00    +0.000 OA
ENDROOT
BRANCH  12  19
ATOM     19  C   UNL     1      -6.597  15.067  22.853  0.00  0.00    +0.000 A 
ATOM     20  C   UNL     1      -7.355  15.246  21.649  0.00  0.00    +0.000 A 
ATOM     21  C   UNL     1      -7.912  16.503  21.718  0.00  0.00    +0.000 A 
ATOM     22  O   UNL     1      -7.432  17.170  22.794  0.00  0.00    +0.000 OA
ATOM     23  C   UNL     1      -6.606  16.316  23.449  0.00  0.00    +0.000 A 
ENDBRANCH  12  19
BRANCH   3  24
ATOM     24  C   UNL     1       0.634  11.497  19.817  0.00  0.00    +0.000 C 
ATOM     25  O   UNL     1       1.440  11.309  20.718  0.00  0.00    +0.000 OA
BRANCH  24  26
ATOM     26  O   UNL     1       0.975  11.751  18.522  0.00  0.00    +0.000 OA
ATOM     27  C   UNL     1       2.242  12.405  18.397  0.00  0.00    +0.000 C 
ENDBRANCH  24  26
ENDBRANCH   3  24
BRANCH   1  28
ATOM     28  O   UNL     1      -3.571  11.477  17.280  0.00  0.00    +0.000 OA
BRANCH  28  29
ATOM     29  C   UNL     1      -2.699  10.970  16.275  0.00  0.00    +0.000 C 
BRANCH  29  31
ATOM     30  C   UNL     1      -3.070   9.925  14.218  0.00  0.00    +0.000 C 
ATOM     31  O   UNL     1      -3.230  11.126  14.963  0.00  0.00    +0.000 OA
ENDBRANCH  29  31
ENDBRANCH  28  29
ENDBRANCH   1  28
TORSDOF 6
ENDMDL
MODEL 8
REMARK VINA RESULT:      -5.6      2.156      3.259
REMARK  Name = 
REMARK  10 active torsions:
REMARK  status: ('A' for Active; 'I' for Inactive)
REMARK    1  A    between atoms: C_1  and  O_2
REMARK    2  A    between atoms: O_2  and  C_3
REMARK    3  A    between atoms: C_3  and  O_4
REMARK    4  A    between atoms: O_4  and  C_5
REMARK    5  A    between atoms: C_7  and  C_8
REMARK    6  A    between atoms: C_8  and  O_10
REMARK    7  A    between atoms: O_10  and  C_11
REMARK    8  A    between atoms: C_12  and  C_13
REMARK    9  A    between atoms: C_20  and  C_21
REMARK   10  A    between atoms: C_27  and  C_28
REMARK                            x       y       z     vdW  Elec       q    Type
REMARK                         _______ _______ _______ _____ _____    ______ ____
ROOT
ATOM      1  C   UNL     1       0.017  11.284  19.228  0.00  0.00    +0.000 C 
ATOM      2  C   UNL     1      -1.118  11.582  20.200  0.00  0.00    +0.000 C 
ATOM      3  C   UNL     1      -1.658  13.018  20.137  0.00  0.00    +0.000 C 
ATOM      4  C   UNL     1      -0.504  14.063  20.324  0.00  0.00    +0.000 C 
ATOM      5  C   UNL     1       0.091  13.852  21.745  0.00  0.00    +0.000 C 
ATOM      6  C   UNL     1      -1.070  15.504  20.207  0.00  0.00    +0.000 C 
ATOM      7  C   UNL     1      -0.010  16.598  20.022  0.00  0.00    +0.000 C 
ATOM      8  C   UNL     1       0.897  16.323  18.818  0.00  0.00    +0.000 C 
ATOM      9  C   UNL     1       1.833  17.497  18.550  0.00  0.00    +0.000 C 
ATOM     10  O   UNL     1       1.578  18.630  18.942  0.00  0.00    +0.000 OA
ATOM     11  O   UNL     1       2.904  17.284  17.756  0.00  0.00    +0.000 OA
ATOM     12  C   UNL     1       3.456  15.989  17.427  0.00  0.00    +0.000 C 
ATOM     13  C   UNL     1       2.457  14.834  17.661  0.00  0.00    +0.000 C 
ATOM     14  C   UNL     1       1.633  14.975  18.976  0.00  0.00    +0.000 C 
ATOM     15  C   UNL     1       2.611  15.007  20.166  0.00  0.00    +0.000 C 
ATOM     16  C   UNL     1       0.539  13.844  19.147  0.00  0.00    +0.000 C 
ATOM     17  C   UNL     1       1.090  12.403  19.193  0.00  0.00    +0.000 C 
ATOM     18  O   UNL     1       2.276  12.159  19.065  0.00  0.00    +0.000 OA
ENDROOT
BRANCH  12  19
ATOM     19  C   UNL     1       4.812  15.783  18.068  0.00  0.00    +0.000 A 
ATOM     20  C   UNL     1       5.669  14.635  18.032  0.00  0.00    +0.000 A 
ATOM     21  C   UNL     1       6.858  15.013  18.613  0.00  0.00    +0.000 A 
ATOM     22  O   UNL     1       6.746  16.254  19.144  0.00  0.00    +0.000 OA
ATOM     23  C   UNL     1       5.498  16.695  18.851  0.00  0.00    +0.000 A 
ENDBRANCH  12  19
BRANCH   3  24
ATOM     24  C   UNL     1      -2.788  13.159  21.167  0.00  0.00    +0.000 C 
ATOM     25  O   UNL     1      -3.788  13.847  21.011  0.00  0.00    +0.000 OA
BRANCH  24  26
ATOM     26  O   UNL     1      -2.542  12.401  22.273  0.00  0.00    +0.000 OA
ATOM     27  C   UNL     1      -3.586  12.485  23.249  0.00  0.00    +0.000 C 
ENDBRANCH  24  26
ENDBRANCH   3  24
BRANCH   1  28
ATOM     28  O   UNL     1       0.604  10.014  19.518  0.00  0.00    +0.000 OA
BRANCH  28  29
ATOM     29  C   UNL     1       0.041   9.378  20.661  0.00  0.00    +0.000 C 
BRANCH  29  31
ATOM     30  C   UNL     1       0.329   9.425  22.980  0.00  0.00    +0.000 C 
ATOM     31  O   UNL     1       0.976   9.244  21.726  0.00  0.00    +0.000 OA
ENDBRANCH  29  31
ENDBRANCH  28  29
ENDBRANCH   1  28
TORSDOF 6
ENDMDL
MODEL 9
REMARK VINA RESULT:      -5.6      1.416      1.887
REMARK  Name = 
REMARK  10 active torsions:
REMARK  status: ('A' for Active; 'I' for Inactive)
REMARK    1  A    between atoms: C_1  and  O_2
REMARK    2  A    between atoms: O_2  and  C_3
REMARK    3  A    between atoms: C_3  and  O_4
REMARK    4  A    between atoms: O_4  and  C_5
REMARK    5  A    between atoms: C_7  and  C_8
REMARK    6  A    between atoms: C_8  and  O_10
REMARK    7  A    between atoms: O_10  and  C_11
REMARK    8  A    between atoms: C_12  and  C_13
REMARK    9  A    between atoms: C_20  and  C_21
REMARK   10  A    between atoms: C_27  and  C_28
REMARK                            x       y       z     vdW  Elec       q    Type
REMARK                         _______ _______ _______ _____ _____    ______ ____
ROOT
ATOM      1  C   UNL     1      -0.176  10.983  21.598  0.00  0.00    +0.000 C 
ATOM      2  C   UNL     1      -1.456  11.296  22.363  0.00  0.00    +0.000 C 
ATOM      3  C   UNL     1      -2.295  12.437  21.771  0.00  0.00    +0.000 C 
ATOM      4  C   UNL     1      -1.438  13.740  21.605  0.00  0.00    +0.000 C 
ATOM      5  C   UNL     1      -0.983  14.183  23.025  0.00  0.00    +0.000 C 
ATOM      6  C   UNL     1      -2.296  14.861  20.962  0.00  0.00    +0.000 C 
ATOM      7  C   UNL     1      -1.497  16.057  20.428  0.00  0.00    +0.000 C 
ATOM      8  C   UNL     1      -0.414  15.629  19.432  0.00  0.00    +0.000 C 
ATOM      9  C   UNL     1       0.258  16.837  18.788  0.00  0.00    +0.000 C 
ATOM     10  O   UNL     1      -0.291  17.932  18.740  0.00  0.00    +0.000 OA
ATOM     11  O   UNL     1       1.436  16.645  18.157  0.00  0.00    +0.000 OA
ATOM     12  C   UNL     1       2.300  15.500  18.333  0.00  0.00    +0.000 C 
ATOM     13  C   UNL     1       1.568  14.281  18.935  0.00  0.00    +0.000 C 
ATOM     14  C   UNL     1       0.583  14.648  20.086  0.00  0.00    +0.000 C 
ATOM     15  C   UNL     1       1.380  15.330  21.214  0.00  0.00    +0.000 C 
ATOM     16  C   UNL     1      -0.240  13.404  20.618  0.00  0.00    +0.000 C 
ATOM     17  C   UNL     1       0.613  12.255  21.196  0.00  0.00    +0.000 C 
ATOM     18  O   UNL     1       1.830  12.291  21.200  0.00  0.00    +0.000 OA
ENDROOT
BRANCH  12  19
ATOM     19  C   UNL     1       3.582  15.875  19.046  0.00  0.00    +0.000 A 
ATOM     20  C   UNL     1       3.975  17.136  19.605  0.00  0.00    +0.000 A 
ATOM     21  C   UNL     1       5.143  16.912  20.297  0.00  0.00    +0.000 A 
ATOM     22  O   UNL     1       5.584  15.651  20.078  0.00  0.00    +0.000 OA
ATOM     23  C   UNL     1       4.662  15.045  19.289  0.00  0.00    +0.000 A 
ENDBRANCH  12  19
BRANCH   3  24
ATOM     24  C   UNL     1      -3.542  12.630  22.647  0.00  0.00    +0.000 C 
ATOM     25  O   UNL     1      -4.507  13.317  22.339  0.00  0.00    +0.000 OA
BRANCH  24  26
ATOM     26  O   UNL     1      -3.444  11.918  23.805  0.00  0.00    +0.000 OA
ATOM     27  C   UNL     1      -4.370  12.352  24.806  0.00  0.00    +0.000 C 
ENDBRANCH  24  26
ENDBRANCH   3  24
BRANCH   1  28
ATOM     28  O   UNL     1       0.644  10.079  22.342  0.00  0.00    +0.000 OA
BRANCH  28  29
ATOM     29  C   UNL     1       0.660   8.759  21.808  0.00  0.00    +0.000 C 
BRANCH  29  31
ATOM     30  C   UNL     1       1.834   7.350  20.359  0.00  0.00    +0.000 C 
ATOM     31  O   UNL     1       1.371   8.677  20.577  0.00  0.00    +0.000 OA
ENDBRANCH  29  31
ENDBRANCH  28  29
ENDBRANCH   1  28
TORSDOF 6
ENDMDL
