MODEL 1
REMARK VINA RESULT:      -6.6      0.000      0.000
REMARK  Name = 
REMARK  3 active torsions:
REMARK  status: ('A' for Active; 'I' for Inactive)
REMARK    1  A    between atoms: C_1  and  C_2
REMARK    2  A    between atoms: C_2  and  N_3
REMARK    3  A    between atoms: C_12  and  C_13
REMARK                            x       y       z     vdW  Elec       q    Type
REMARK                         _______ _______ _______ _____ _____    ______ ____
ROOT
ATOM      1  N   UNL     1       6.259  15.606  18.165  0.00  0.00    +0.000 N 
ATOM      2  C   UNL     1       6.384  14.287  17.830  0.00  0.00    +0.000 A 
ATOM      3  N   UNL     1       7.644  13.921  17.760  0.00  0.00    +0.000 NA
ATOM      4  C   UNL     1       8.372  15.042  18.119  0.00  0.00    +0.000 A 
ATOM      5  C   UNL     1       9.756  15.278  18.302  0.00  0.00    +0.000 A 
ATOM      6  N   UNL     1      10.771  14.364  18.079  0.00  0.00    +0.000 N 
ATOM      7  C   UNL     1      10.615  13.293  17.104  0.00  0.00    +0.000 C 
ATOM      8  C   UNL     1      10.501  11.933  17.782  0.00  0.00    +0.000 C 
ATOM      9  C   UNL     1      11.633  11.737  18.794  0.00  0.00    +0.000 C 
ATOM     10  C   UNL     1      11.612  12.845  19.878  0.00  0.00    +0.000 C 
ATOM     11  C   UNL     1      11.778  14.203  19.129  0.00  0.00    +0.000 C 
ATOM     12  N   UNL     1      10.114  16.526  18.739  0.00  0.00    +0.000 NA
ATOM     13  C   UNL     1       9.165  17.469  18.918  0.00  0.00    +0.000 A 
ATOM     14  N   UNL     1       7.836  17.348  18.765  0.00  0.00    +0.000 NA
ATOM     15  C   UNL     1       7.515  16.102  18.379  0.00  0.00    +0.000 A 
ENDROOT
BRANCH  10  16
ATOM     16  C   UNL     1      10.418  12.734  20.835  0.00  0.00    +0.000 A 
ATOM     17  C   UNL     1       9.965  13.845  21.562  0.00  0.00    +0.000 A 
ATOM     18  C   UNL     1       8.925  13.701  22.473  0.00  0.00    +0.000 A 
ATOM     19  N   UNL     1       8.280  12.541  22.694  0.00  0.00    +0.000 NA
ATOM     20  C   UNL     1       8.679  11.493  21.946  0.00  0.00    +0.000 A 
ATOM     21  C   UNL     1       9.705  11.543  21.010  0.00  0.00    +0.000 A 
ENDBRANCH  10  16
BRANCH   1  23
ATOM     22  C   UNL     1       3.842  15.602  17.677  0.00  0.00    +0.000 C 
ATOM     23  C   UNL     1       5.024  16.350  18.267  0.00  0.00    +0.000 C 
ENDBRANCH   1  23
TORSDOF 2
ENDMDL
MODEL 2
REMARK VINA RESULT:      -6.5      9.094     11.412
REMARK  Name = 
REMARK  3 active torsions:
REMARK  status: ('A' for Active; 'I' for Inactive)
REMARK    1  A    between atoms: C_1  and  C_2
REMARK    2  A    between atoms: C_2  and  N_3
REMARK    3  A    between atoms: C_12  and  C_13
REMARK                            x       y       z     vdW  Elec       q    Type
REMARK                         _______ _______ _______ _____ _____    ______ ____
ROOT
ATOM      1  N   UNL     1       6.447   4.739  14.886  0.00  0.00    +0.000 N 
ATOM      2  C   UNL     1       5.133   4.446  14.651  0.00  0.00    +0.000 A 
ATOM      3  N   UNL     1       4.509   4.094  15.754  0.00  0.00    +0.000 NA
ATOM      4  C   UNL     1       5.450   4.215  16.761  0.00  0.00    +0.000 A 
ATOM      5  C   UNL     1       5.388   4.051  18.166  0.00  0.00    +0.000 A 
ATOM      6  N   UNL     1       4.282   3.634  18.885  0.00  0.00    +0.000 N 
ATOM      7  C   UNL     1       3.272   2.777  18.280  0.00  0.00    +0.000 C 
ATOM      8  C   UNL     1       1.963   3.525  18.058  0.00  0.00    +0.000 C 
ATOM      9  C   UNL     1       1.528   4.245  19.337  0.00  0.00    +0.000 C 
ATOM     10  C   UNL     1       2.610   5.249  19.808  0.00  0.00    +0.000 C 
ATOM     11  C   UNL     1       3.906   4.419  20.063  0.00  0.00    +0.000 C 
ATOM     12  N   UNL     1       6.531   4.330  18.868  0.00  0.00    +0.000 NA
ATOM     13  C   UNL     1       7.651   4.687  18.207  0.00  0.00    +0.000 A 
ATOM     14  N   UNL     1       7.814   4.862  16.885  0.00  0.00    +0.000 NA
ATOM     15  C   UNL     1       6.665   4.623  16.230  0.00  0.00    +0.000 A 
ENDROOT
BRANCH  10  16
ATOM     16  C   UNL     1       2.749   6.468  18.887  0.00  0.00    +0.000 A 
ATOM     17  C   UNL     1       1.822   7.521  18.932  0.00  0.00    +0.000 A 
ATOM     18  C   UNL     1       1.932   8.580  18.040  0.00  0.00    +0.000 A 
ATOM     19  N   UNL     1       2.913   8.689  17.125  0.00  0.00    +0.000 NA
ATOM     20  C   UNL     1       3.835   7.705  17.130  0.00  0.00    +0.000 A 
ATOM     21  C   UNL     1       3.809   6.611  17.986  0.00  0.00    +0.000 A 
ENDBRANCH  10  16
BRANCH   1  23
ATOM     22  C   UNL     1       7.169   4.451  12.546  0.00  0.00    +0.000 C 
ATOM     23  C   UNL     1       7.434   5.099  13.893  0.00  0.00    +0.000 C 
ENDBRANCH   1  23
TORSDOF 2
ENDMDL
MODEL 3
REMARK VINA RESULT:      -6.5      0.270      1.009
REMARK  Name = 
REMARK  3 active torsions:
REMARK  status: ('A' for Active; 'I' for Inactive)
REMARK    1  A    between atoms: C_1  and  C_2
REMARK    2  A    between atoms: C_2  and  N_3
REMARK    3  A    between atoms: C_12  and  C_13
REMARK                            x       y       z     vdW  Elec       q    Type
REMARK                         _______ _______ _______ _____ _____    ______ ____
ROOT
ATOM      1  N   UNL     1       6.139  15.748  18.227  0.00  0.00    +0.000 N 
ATOM      2  C   UNL     1       6.294  14.428  17.908  0.00  0.00    +0.000 A 
ATOM      3  N   UNL     1       7.562  14.099  17.803  0.00  0.00    +0.000 NA
ATOM      4  C   UNL     1       8.265  15.248  18.122  0.00  0.00    +0.000 A 
ATOM      5  C   UNL     1       9.646  15.529  18.258  0.00  0.00    +0.000 A 
ATOM      6  N   UNL     1      10.682  14.643  18.016  0.00  0.00    +0.000 N 
ATOM      7  C   UNL     1      10.529  13.552  17.063  0.00  0.00    +0.000 C 
ATOM      8  C   UNL     1      10.479  12.200  17.764  0.00  0.00    +0.000 C 
ATOM      9  C   UNL     1      11.647  12.055  18.743  0.00  0.00    +0.000 C 
ATOM     10  C   UNL     1      11.626  13.179  19.810  0.00  0.00    +0.000 C 
ATOM     11  C   UNL     1      11.726  14.529  19.035  0.00  0.00    +0.000 C 
ATOM     12  N   UNL     1       9.979  16.794  18.664  0.00  0.00    +0.000 NA
ATOM     13  C   UNL     1       9.008  17.710  18.859  0.00  0.00    +0.000 A 
ATOM     14  N   UNL     1       7.679  17.547  18.751  0.00  0.00    +0.000 NA
ATOM     15  C   UNL     1       7.385  16.285  18.393  0.00  0.00    +0.000 A 
ENDROOT
BRANCH  10  16
ATOM     16  C   UNL     1      10.466  13.047  20.806  0.00  0.00    +0.000 A 
ATOM     17  C   UNL     1       9.837  11.812  21.028  0.00  0.00    +0.000 A 
ATOM     18  C   UNL     1       8.746  11.734  21.885  0.00  0.00    +0.000 A 
ATOM     19  N   UNL     1       8.249  12.785  22.562  0.00  0.00    +0.000 NA
ATOM     20  C   UNL     1       8.898  13.955  22.391  0.00  0.00    +0.000 A 
ATOM     21  C   UNL     1       9.999  14.128  21.560  0.00  0.00    +0.000 A 
ENDBRANCH  10  16
BRANCH   1  23
ATOM     22  C   UNL     1       3.747  15.766  17.626  0.00  0.00    +0.000 C 
ATOM     23  C   UNL     1       4.885  16.455  18.357  0.00  0.00    +0.000 C 
ENDBRANCH   1  23
TORSDOF 2
ENDMDL
MODEL 4
REMARK VINA RESULT:      -6.1      9.214     11.620
REMARK  Name = 
REMARK  3 active torsions:
REMARK  status: ('A' for Active; 'I' for Inactive)
REMARK    1  A    between atoms: C_1  and  C_2
REMARK    2  A    between atoms: C_2  and  N_3
REMARK    3  A    between atoms: C_12  and  C_13
REMARK                            x       y       z     vdW  Elec       q    Type
REMARK                         _______ _______ _______ _____ _____    ______ ____
ROOT
ATOM      1  N   UNL     1       6.028   4.771  15.881  0.00  0.00    +0.000 N 
ATOM      2  C   UNL     1       4.760   4.351  15.593  0.00  0.00    +0.000 A 
ATOM      3  N   UNL     1       4.120   3.963  16.674  0.00  0.00    +0.000 NA
ATOM      4  C   UNL     1       4.996   4.193  17.720  0.00  0.00    +0.000 A 
ATOM      5  C   UNL     1       4.882   4.053  19.124  0.00  0.00    +0.000 A 
ATOM      6  N   UNL     1       3.787   3.548  19.802  0.00  0.00    +0.000 N 
ATOM      7  C   UNL     1       2.891   2.587  19.173  0.00  0.00    +0.000 C 
ATOM      8  C   UNL     1       1.531   3.203  18.872  0.00  0.00    +0.000 C 
ATOM      9  C   UNL     1       0.970   3.905  20.112  0.00  0.00    +0.000 C 
ATOM     10  C   UNL     1       1.930   5.016  20.608  0.00  0.00    +0.000 C 
ATOM     11  C   UNL     1       3.284   4.318  20.942  0.00  0.00    +0.000 C 
ATOM     12  N   UNL     1       5.959   4.452  19.871  0.00  0.00    +0.000 NA
ATOM     13  C   UNL     1       7.072   4.900  19.253  0.00  0.00    +0.000 A 
ATOM     14  N   UNL     1       7.281   5.063  17.936  0.00  0.00    +0.000 NA
ATOM     15  C   UNL     1       6.192   4.703  17.235  0.00  0.00    +0.000 A 
ENDROOT
BRANCH  10  16
ATOM     16  C   UNL     1       1.998   6.224  19.665  0.00  0.00    +0.000 A 
ATOM     17  C   UNL     1       2.230   6.059  18.290  0.00  0.00    +0.000 A 
ATOM     18  C   UNL     1       2.355   7.174  17.469  0.00  0.00    +0.000 A 
ATOM     19  N   UNL     1       2.236   8.441  17.905  0.00  0.00    +0.000 NA
ATOM     20  C   UNL     1       1.951   8.589  19.215  0.00  0.00    +0.000 A 
ATOM     21  C   UNL     1       1.804   7.536  20.110  0.00  0.00    +0.000 A 
ENDBRANCH  10  16
BRANCH   1  23
ATOM     22  C   UNL     1       6.878   4.514  13.579  0.00  0.00    +0.000 C 
ATOM     23  C   UNL     1       7.024   5.202  14.925  0.00  0.00    +0.000 C 
ENDBRANCH   1  23
TORSDOF 2
ENDMDL
MODEL 5
REMARK VINA RESULT:      -6.0      0.956      1.055
REMARK  Name = 
REMARK  3 active torsions:
REMARK  status: ('A' for Active; 'I' for Inactive)
REMARK    1  A    between atoms: C_1  and  C_2
REMARK    2  A    between atoms: C_2  and  N_3
REMARK    3  A    between atoms: C_12  and  C_13
REMARK                            x       y       z     vdW  Elec       q    Type
REMARK                         _______ _______ _______ _____ _____    ______ ____
ROOT
ATOM      1  N   UNL     1       5.892  15.480  18.466  0.00  0.00    +0.000 N 
ATOM      2  C   UNL     1       6.377  14.430  17.738  0.00  0.00    +0.000 A 
ATOM      3  N   UNL     1       7.690  14.444  17.680  0.00  0.00    +0.000 NA
ATOM      4  C   UNL     1       8.079  15.524  18.452  0.00  0.00    +0.000 A 
ATOM      5  C   UNL     1       9.343  16.030  18.840  0.00  0.00    +0.000 A 
ATOM      6  N   UNL     1      10.572  15.536  18.437  0.00  0.00    +0.000 N 
ATOM      7  C   UNL     1      10.724  14.855  17.159  0.00  0.00    +0.000 C 
ATOM      8  C   UNL     1      10.982  13.365  17.346  0.00  0.00    +0.000 C 
ATOM      9  C   UNL     1      12.116  13.135  18.350  0.00  0.00    +0.000 C 
ATOM     10  C   UNL     1      11.782  13.767  19.725  0.00  0.00    +0.000 C 
ATOM     11  C   UNL     1      11.576  15.293  19.474  0.00  0.00    +0.000 C 
ATOM     12  N   UNL     1       9.341  17.105  19.689  0.00  0.00    +0.000 NA
ATOM     13  C   UNL     1       8.169  17.656  20.067  0.00  0.00    +0.000 A 
ATOM     14  N   UNL     1       6.925  17.258  19.751  0.00  0.00    +0.000 NA
ATOM     15  C   UNL     1       6.962  16.178  18.953  0.00  0.00    +0.000 A 
ENDROOT
BRANCH  10  16
ATOM     16  C   UNL     1      10.656  13.039  20.470  0.00  0.00    +0.000 A 
ATOM     17  C   UNL     1       9.908  13.685  21.466  0.00  0.00    +0.000 A 
ATOM     18  C   UNL     1       8.940  12.981  22.173  0.00  0.00    +0.000 A 
ATOM     19  N   UNL     1       8.637  11.690  21.943  0.00  0.00    +0.000 NA
ATOM     20  C   UNL     1       9.316  11.094  20.943  0.00  0.00    +0.000 A 
ATOM     21  C   UNL     1      10.297  11.718  20.181  0.00  0.00    +0.000 A 
ENDBRANCH  10  16
BRANCH   1  23
ATOM     22  C   UNL     1       3.682  15.730  17.401  0.00  0.00    +0.000 C 
ATOM     23  C   UNL     1       4.499  15.804  18.678  0.00  0.00    +0.000 C 
ENDBRANCH   1  23
TORSDOF 2
ENDMDL
MODEL 6
REMARK VINA RESULT:      -6.0      1.673      2.287
REMARK  Name = 
REMARK  3 active torsions:
REMARK  status: ('A' for Active; 'I' for Inactive)
REMARK    1  A    between atoms: C_1  and  C_2
REMARK    2  A    between atoms: C_2  and  N_3
REMARK    3  A    between atoms: C_12  and  C_13
REMARK                            x       y       z     vdW  Elec       q    Type
REMARK                         _______ _______ _______ _____ _____    ______ ____
ROOT
ATOM      1  N   UNL     1       6.134  15.179  19.099  0.00  0.00    +0.000 N 
ATOM      2  C   UNL     1       6.575  14.781  17.867  0.00  0.00    +0.000 A 
ATOM      3  N   UNL     1       7.883  14.864  17.770  0.00  0.00    +0.000 NA
ATOM      4  C   UNL     1       8.317  15.286  19.014  0.00  0.00    +0.000 A 
ATOM      5  C   UNL     1       9.602  15.499  19.569  0.00  0.00    +0.000 A 
ATOM      6  N   UNL     1      10.805  15.377  18.896  0.00  0.00    +0.000 N 
ATOM      7  C   UNL     1      10.887  15.592  17.458  0.00  0.00    +0.000 C 
ATOM      8  C   UNL     1      11.149  14.290  16.711  0.00  0.00    +0.000 C 
ATOM      9  C   UNL     1      12.333  13.542  17.328  0.00  0.00    +0.000 C 
ATOM     10  C   UNL     1      12.077  13.225  18.824  0.00  0.00    +0.000 C 
ATOM     11  C   UNL     1      11.863  14.595  19.538  0.00  0.00    +0.000 C 
ATOM     12  N   UNL     1       9.650  15.859  20.889  0.00  0.00    +0.000 NA
ATOM     13  C   UNL     1       8.502  16.045  21.573  0.00  0.00    +0.000 A 
ATOM     14  N   UNL     1       7.241  15.877  21.140  0.00  0.00    +0.000 NA
ATOM     15  C   UNL     1       7.231  15.482  19.855  0.00  0.00    +0.000 A 
ENDROOT
BRANCH  10  16
ATOM     16  C   UNL     1      10.990  12.164  19.040  0.00  0.00    +0.000 A 
ATOM     17  C   UNL     1      10.476  11.901  20.320  0.00  0.00    +0.000 A 
ATOM     18  C   UNL     1       9.542  10.888  20.497  0.00  0.00    +0.000 A 
ATOM     19  N   UNL     1       9.055  10.135  19.494  0.00  0.00    +0.000 NA
ATOM     20  C   UNL     1       9.506  10.435  18.260  0.00  0.00    +0.000 A 
ATOM     21  C   UNL     1      10.435  11.432  17.985  0.00  0.00    +0.000 A 
ENDBRANCH  10  16
BRANCH   1  23
ATOM     22  C   UNL     1       3.794  14.639  18.535  0.00  0.00    +0.000 C 
ATOM     23  C   UNL     1       4.755  15.273  19.524  0.00  0.00    +0.000 C 
ENDBRANCH   1  23
TORSDOF 2
ENDMDL
MODEL 7
REMARK VINA RESULT:      -5.9      1.843      5.095
REMARK  Name = 
REMARK  3 active torsions:
REMARK  status: ('A' for Active; 'I' for Inactive)
REMARK    1  A    between atoms: C_1  and  C_2
REMARK    2  A    between atoms: C_2  and  N_3
REMARK    3  A    between atoms: C_12  and  C_13
REMARK                            x       y       z     vdW  Elec       q    Type
REMARK                         _______ _______ _______ _____ _____    ______ ____
ROOT
ATOM      1  N   UNL     1       9.118  15.141  23.119  0.00  0.00    +0.000 N 
ATOM      2  C   UNL     1      10.139  15.540  22.302  0.00  0.00    +0.000 A 
ATOM      3  N   UNL     1      10.557  14.560  21.532  0.00  0.00    +0.000 NA
ATOM      4  C   UNL     1       9.732  13.488  21.824  0.00  0.00    +0.000 A 
ATOM      5  C   UNL     1       9.622  12.180  21.294  0.00  0.00    +0.000 A 
ATOM      6  N   UNL     1      10.439  11.629  20.322  0.00  0.00    +0.000 N 
ATOM      7  C   UNL     1      11.814  12.076  20.154  0.00  0.00    +0.000 C 
ATOM      8  C   UNL     1      11.994  12.858  18.858  0.00  0.00    +0.000 C 
ATOM      9  C   UNL     1      11.410  12.083  17.674  0.00  0.00    +0.000 C 
ATOM     10  C   UNL     1       9.902  11.794  17.885  0.00  0.00    +0.000 C 
ATOM     11  C   UNL     1       9.789  10.955  19.195  0.00  0.00    +0.000 C 
ATOM     12  N   UNL     1       8.617  11.395  21.795  0.00  0.00    +0.000 NA
ATOM     13  C   UNL     1       7.830  11.868  22.783  0.00  0.00    +0.000 A 
ATOM     14  N   UNL     1       7.857  13.083  23.356  0.00  0.00    +0.000 NA
ATOM     15  C   UNL     1       8.825  13.842  22.813  0.00  0.00    +0.000 A 
ENDROOT
BRANCH  10  16
ATOM     16  C   UNL     1       9.026  13.050  17.799  0.00  0.00    +0.000 A 
ATOM     17  C   UNL     1       9.570  14.329  17.995  0.00  0.00    +0.000 A 
ATOM     18  C   UNL     1       8.742  15.445  17.979  0.00  0.00    +0.000 A 
ATOM     19  N   UNL     1       7.416  15.390  17.753  0.00  0.00    +0.000 NA
ATOM     20  C   UNL     1       6.912  14.165  17.505  0.00  0.00    +0.000 A 
ATOM     21  C   UNL     1       7.661  12.995  17.495  0.00  0.00    +0.000 A 
ENDBRANCH  10  16
BRANCH   1  23
ATOM     22  C   UNL     1       9.448  16.509  25.144  0.00  0.00    +0.000 C 
ATOM     23  C   UNL     1       8.469  15.943  24.131  0.00  0.00    +0.000 C 
ENDBRANCH   1  23
TORSDOF 2
ENDMDL
MODEL 8
REMARK VINA RESULT:      -5.9      1.225      1.707
REMARK  Name = 
REMARK  3 active torsions:
REMARK  status: ('A' for Active; 'I' for Inactive)
REMARK    1  A    between atoms: C_1  and  C_2
REMARK    2  A    between atoms: C_2  and  N_3
REMARK    3  A    between atoms: C_12  and  C_13
REMARK                            x       y       z     vdW  Elec       q    Type
REMARK                         _______ _______ _______ _____ _____    ______ ____
ROOT
ATOM      1  N   UNL     1       6.200  15.537  18.751  0.00  0.00    +0.000 N 
ATOM      2  C   UNL     1       6.603  14.647  17.795  0.00  0.00    +0.000 A 
ATOM      3  N   UNL     1       7.908  14.655  17.643  0.00  0.00    +0.000 NA
ATOM      4  C   UNL     1       8.381  15.555  18.581  0.00  0.00    +0.000 A 
ATOM      5  C   UNL     1       9.683  15.957  18.965  0.00  0.00    +0.000 A 
ATOM      6  N   UNL     1      10.865  15.539  18.381  0.00  0.00    +0.000 N 
ATOM      7  C   UNL     1      10.908  15.124  16.986  0.00  0.00    +0.000 C 
ATOM      8  C   UNL     1      11.138  13.623  16.855  0.00  0.00    +0.000 C 
ATOM      9  C   UNL     1      12.333  13.184  17.705  0.00  0.00    +0.000 C 
ATOM     10  C   UNL     1      12.116  13.534  19.199  0.00  0.00    +0.000 C 
ATOM     11  C   UNL     1      11.934  15.081  19.271  0.00  0.00    +0.000 C 
ATOM     12  N   UNL     1       9.771  16.842  20.008  0.00  0.00    +0.000 NA
ATOM     13  C   UNL     1       8.644  17.321  20.574  0.00  0.00    +0.000 A 
ATOM     14  N   UNL     1       7.371  17.010  20.280  0.00  0.00    +0.000 NA
ATOM     15  C   UNL     1       7.320  16.110  19.284  0.00  0.00    +0.000 A 
ENDROOT
BRANCH  10  16
ATOM     16  C   UNL     1      11.027  12.686  19.868  0.00  0.00    +0.000 A 
ATOM     17  C   UNL     1      10.594  11.478  19.298  0.00  0.00    +0.000 A 
ATOM     18  C   UNL     1       9.559  10.764  19.889  0.00  0.00    +0.000 A 
ATOM     19  N   UNL     1       8.940  11.143  21.022  0.00  0.00    +0.000 NA
ATOM     20  C   UNL     1       9.403  12.271  21.597  0.00  0.00    +0.000 A 
ATOM     21  C   UNL     1      10.435  13.047  21.083  0.00  0.00    +0.000 A 
ENDBRANCH  10  16
BRANCH   1  23
ATOM     22  C   UNL     1       3.934  14.610  19.048  0.00  0.00    +0.000 C 
ATOM     23  C   UNL     1       4.835  15.829  19.127  0.00  0.00    +0.000 C 
ENDBRANCH   1  23
TORSDOF 2
ENDMDL
MODEL 9
REMARK VINA RESULT:      -5.8      1.603      5.307
REMARK  Name = 
REMARK  3 active torsions:
REMARK  status: ('A' for Active; 'I' for Inactive)
REMARK    1  A    between atoms: C_1  and  C_2
REMARK    2  A    between atoms: C_2  and  N_3
REMARK    3  A    between atoms: C_12  and  C_13
REMARK                            x       y       z     vdW  Elec       q    Type
REMARK                         _______ _______ _______ _____ _____    ______ ____
ROOT
ATOM      1  N   UNL     1       8.907  12.452  22.289  0.00  0.00    +0.000 N 
ATOM      2  C   UNL     1       9.243  13.750  22.554  0.00  0.00    +0.000 A 
ATOM      3  N   UNL     1       9.958  14.274  21.584  0.00  0.00    +0.000 NA
ATOM      4  C   UNL     1      10.046  13.287  20.619  0.00  0.00    +0.000 A 
ATOM      5  C   UNL     1      10.616  13.249  19.324  0.00  0.00    +0.000 A 
ATOM      6  N   UNL     1      11.327  14.272  18.721  0.00  0.00    +0.000 N 
ATOM      7  C   UNL     1      12.064  15.244  19.517  0.00  0.00    +0.000 C 
ATOM      8  C   UNL     1      11.412  16.620  19.463  0.00  0.00    +0.000 C 
ATOM      9  C   UNL     1      11.140  17.033  18.014  0.00  0.00    +0.000 C 
ATOM     10  C   UNL     1      10.217  16.009  17.305  0.00  0.00    +0.000 C 
ATOM     11  C   UNL     1      10.958  14.637  17.352  0.00  0.00    +0.000 C 
ATOM     12  N   UNL     1      10.445  12.092  18.610  0.00  0.00    +0.000 NA
ATOM     13  C   UNL     1       9.807  11.047  19.176  0.00  0.00    +0.000 A 
ATOM     14  N   UNL     1       9.240  10.979  20.392  0.00  0.00    +0.000 NA
ATOM     15  C   UNL     1       9.388  12.143  21.048  0.00  0.00    +0.000 A 
ENDROOT
BRANCH  10  16
ATOM     16  C   UNL     1       8.776  16.026  17.830  0.00  0.00    +0.000 A 
ATOM     17  C   UNL     1       7.973  14.875  17.785  0.00  0.00    +0.000 A 
ATOM     18  C   UNL     1       6.650  14.936  18.204  0.00  0.00    +0.000 A 
ATOM     19  N   UNL     1       6.070  16.048  18.695  0.00  0.00    +0.000 NA
ATOM     20  C   UNL     1       6.866  17.132  18.793  0.00  0.00    +0.000 A 
ATOM     21  C   UNL     1       8.200  17.164  18.404  0.00  0.00    +0.000 A 
ENDBRANCH  10  16
BRANCH   1  23
ATOM     22  C   UNL     1       8.184  12.031  24.609  0.00  0.00    +0.000 C 
ATOM     23  C   UNL     1       8.182  11.560  23.166  0.00  0.00    +0.000 C 
ENDBRANCH   1  23
TORSDOF 2
ENDMDL
