MODEL 1
REMARK VINA RESULT:      -7.1      0.000      0.000
REMARK  Name = 
REMARK  7 active torsions:
REMARK  status: ('A' for Active; 'I' for Inactive)
REMARK    1  A    between atoms: C_1  and  C_2
REMARK    2  A    between atoms: C_2  and  C_3
REMARK    3  A    between atoms: C_2  and  C_4
REMARK    4  A    between atoms: C_7  and  N_8
REMARK    5  A    between atoms: N_9  and  C_10
REMARK    6  A    between atoms: C_13  and  C_14
REMARK    7  A    between atoms: C_14  and  O_16
REMARK                            x       y       z     vdW  Elec       q    Type
REMARK                         _______ _______ _______ _____ _____    ______ ____
ROOT
ATOM      1  N   UNL     1       2.508   7.684  18.079  0.00  0.00    +0.000 NA
ATOM      2  N   UNL     1       3.131   6.708  18.545  0.00  0.00    +0.000 NA
ENDROOT
BRANCH   1   6
ATOM      3  C   UNL     1       0.538  10.052  21.009  0.00  0.00    +0.000 A 
ATOM      4  C   UNL     1       0.685  10.482  19.682  0.00  0.00    +0.000 A 
ATOM      5  C   UNL     1       1.328   9.676  18.736  0.00  0.00    +0.000 A 
ATOM      6  C   UNL     1       1.850   8.427  19.085  0.00  0.00    +0.000 A 
ATOM      7  C   UNL     1       1.686   7.993  20.408  0.00  0.00    +0.000 A 
ATOM      8  C   UNL     1       1.043   8.793  21.357  0.00  0.00    +0.000 A 
BRANCH   3  10
ATOM      9  C   UNL     1      -1.314  11.694  21.243  0.00  0.00    +0.000 C 
ATOM     10  C   UNL     1      -0.234  10.913  21.996  0.00  0.00    +0.000 C 
ATOM     11  C   UNL     1      -0.854  10.133  23.162  0.00  0.00    +0.000 C 
ENDBRANCH   3  10
ENDBRANCH   1   6
BRANCH   2  12
ATOM     12  C   UNL     1       3.969   6.091  17.596  0.00  0.00    +0.000 A 
ATOM     13  C   UNL     1       4.734   6.931  16.778  0.00  0.00    +0.000 A 
ATOM     14  C   UNL     1       5.584   6.403  15.800  0.00  0.00    +0.000 A 
ATOM     15  C   UNL     1       5.686   5.017  15.627  0.00  0.00    +0.000 A 
ATOM     16  C   UNL     1       4.956   4.165  16.462  0.00  0.00    +0.000 A 
ATOM     17  C   UNL     1       4.103   4.704  17.440  0.00  0.00    +0.000 A 
BRANCH  15  18
ATOM     18  C   UNL     1       6.622   4.527  14.581  0.00  0.00    +0.000 C 
ATOM     19  O   UNL     1       7.616   5.153  14.243  0.00  0.00    +0.000 OA
BRANCH  18  20
ATOM     20  O   UNL     1       6.267   3.361  14.002  0.00  0.00    +0.000 OA
ATOM     21  H   UNL     1       6.910   2.987  13.374  0.00  0.00    +0.000 HD
ENDBRANCH  18  20
ENDBRANCH  15  18
ENDBRANCH   2  12
TORSDOF 5
ENDMDL
MODEL 2
REMARK VINA RESULT:      -7.1      4.241      8.777
REMARK  Name = 
REMARK  7 active torsions:
REMARK  status: ('A' for Active; 'I' for Inactive)
REMARK    1  A    between atoms: C_1  and  C_2
REMARK    2  A    between atoms: C_2  and  C_3
REMARK    3  A    between atoms: C_2  and  C_4
REMARK    4  A    between atoms: C_7  and  N_8
REMARK    5  A    between atoms: N_9  and  C_10
REMARK    6  A    between atoms: C_13  and  C_14
REMARK    7  A    between atoms: C_14  and  O_16
REMARK                            x       y       z     vdW  Elec       q    Type
REMARK                         _______ _______ _______ _____ _____    ______ ____
ROOT
ATOM      1  N   UNL     1       2.755   6.664  18.544  0.00  0.00    +0.000 NA
ATOM      2  N   UNL     1       2.376   7.809  18.223  0.00  0.00    +0.000 NA
ENDROOT
BRANCH   1   6
ATOM      3  C   UNL     1       5.362   4.828  15.731  0.00  0.00    +0.000 A 
ATOM      4  C   UNL     1       4.523   4.077  16.567  0.00  0.00    +0.000 A 
ATOM      5  C   UNL     1       3.667   4.709  17.476  0.00  0.00    +0.000 A 
ATOM      6  C   UNL     1       3.628   6.103  17.584  0.00  0.00    +0.000 A 
ATOM      7  C   UNL     1       4.454   6.851  16.734  0.00  0.00    +0.000 A 
ATOM      8  C   UNL     1       5.311   6.225  15.824  0.00  0.00    +0.000 A 
BRANCH   3  10
ATOM      9  C   UNL     1       5.357   3.743  13.494  0.00  0.00    +0.000 C 
ATOM     10  C   UNL     1       6.224   4.118  14.699  0.00  0.00    +0.000 C 
ATOM     11  C   UNL     1       7.451   4.918  14.246  0.00  0.00    +0.000 C 
ENDBRANCH   3  10
ENDBRANCH   1   6
BRANCH   2  12
ATOM     12  C   UNL     1       1.691   8.469  19.261  0.00  0.00    +0.000 A 
ATOM     13  C   UNL     1       1.721   7.871  20.527  0.00  0.00    +0.000 A 
ATOM     14  C   UNL     1       1.058   8.452  21.613  0.00  0.00    +0.000 A 
ATOM     15  C   UNL     1       0.353   9.651  21.450  0.00  0.00    +0.000 A 
ATOM     16  C   UNL     1       0.344  10.279  20.200  0.00  0.00    +0.000 A 
ATOM     17  C   UNL     1       1.012   9.687  19.115  0.00  0.00    +0.000 A 
BRANCH  15  18
ATOM     18  C   UNL     1      -0.313  10.220  22.651  0.00  0.00    +0.000 C 
ATOM     19  O   UNL     1      -0.335  11.419  22.884  0.00  0.00    +0.000 OA
BRANCH  18  20
ATOM     20  O   UNL     1      -0.852   9.308  23.487  0.00  0.00    +0.000 OA
ATOM     21  H   UNL     1      -1.195   8.499  23.067  0.00  0.00    +0.000 HD
ENDBRANCH  18  20
ENDBRANCH  15  18
ENDBRANCH   2  12
TORSDOF 5
ENDMDL
MODEL 3
REMARK VINA RESULT:      -7.1      4.124      8.709
REMARK  Name = 
REMARK  7 active torsions:
REMARK  status: ('A' for Active; 'I' for Inactive)
REMARK    1  A    between atoms: C_1  and  C_2
REMARK    2  A    between atoms: C_2  and  C_3
REMARK    3  A    between atoms: C_2  and  C_4
REMARK    4  A    between atoms: C_7  and  N_8
REMARK    5  A    between atoms: N_9  and  C_10
REMARK    6  A    between atoms: C_13  and  C_14
REMARK    7  A    between atoms: C_14  and  O_16
REMARK                            x       y       z     vdW  Elec       q    Type
REMARK                         _______ _______ _______ _____ _____    ______ ____
ROOT
ATOM      1  N   UNL     1       3.140   6.490  18.558  0.00  0.00    +0.000 NA
ATOM      2  N   UNL     1       2.396   7.373  18.086  0.00  0.00    +0.000 NA
ENDROOT
BRANCH   1   6
ATOM      3  C   UNL     1       5.462   4.706  15.475  0.00  0.00    +0.000 A 
ATOM      4  C   UNL     1       5.396   6.097  15.645  0.00  0.00    +0.000 A 
ATOM      5  C   UNL     1       4.632   6.655  16.677  0.00  0.00    +0.000 A 
ATOM      6  C   UNL     1       3.907   5.848  17.559  0.00  0.00    +0.000 A 
ATOM      7  C   UNL     1       3.990   4.459  17.396  0.00  0.00    +0.000 A 
ATOM      8  C   UNL     1       4.752   3.895  16.368  0.00  0.00    +0.000 A 
BRANCH   3  10
ATOM      9  C   UNL     1       5.498   3.655  13.222  0.00  0.00    +0.000 C 
ATOM     10  C   UNL     1       6.362   4.124  14.396  0.00  0.00    +0.000 C 
ATOM     11  C   UNL     1       7.456   5.080  13.906  0.00  0.00    +0.000 C 
ENDBRANCH   3  10
ENDBRANCH   1   6
BRANCH   2  12
ATOM     12  C   UNL     1       1.794   8.169  19.079  0.00  0.00    +0.000 A 
ATOM     13  C   UNL     1       1.754   7.648  20.377  0.00  0.00    +0.000 A 
ATOM     14  C   UNL     1       1.164   8.366  21.423  0.00  0.00    +0.000 A 
ATOM     15  C   UNL     1       0.604   9.628  21.185  0.00  0.00    +0.000 A 
ATOM     16  C   UNL     1       0.669  10.177  19.900  0.00  0.00    +0.000 A 
ATOM     17  C   UNL     1       1.262   9.447  18.856  0.00  0.00    +0.000 A 
BRANCH  15  18
ATOM     18  C   UNL     1       0.010  10.341  22.346  0.00  0.00    +0.000 C 
ATOM     19  O   UNL     1      -0.676  11.344  22.221  0.00  0.00    +0.000 OA
BRANCH  18  20
ATOM     20  O   UNL     1       0.324   9.822  23.552  0.00  0.00    +0.000 OA
ATOM     21  H   UNL     1      -0.252  10.089  24.290  0.00  0.00    +0.000 HD
ENDBRANCH  18  20
ENDBRANCH  15  18
ENDBRANCH   2  12
TORSDOF 5
ENDMDL
MODEL 4
REMARK VINA RESULT:      -7.0      2.782      3.875
REMARK  Name = 
REMARK  7 active torsions:
REMARK  status: ('A' for Active; 'I' for Inactive)
REMARK    1  A    between atoms: C_1  and  C_2
REMARK    2  A    between atoms: C_2  and  C_3
REMARK    3  A    between atoms: C_2  and  C_4
REMARK    4  A    between atoms: C_7  and  N_8
REMARK    5  A    between atoms: N_9  and  C_10
REMARK    6  A    between atoms: C_13  and  C_14
REMARK    7  A    between atoms: C_14  and  O_16
REMARK                            x       y       z     vdW  Elec       q    Type
REMARK                         _______ _______ _______ _____ _____    ______ ____
ROOT
ATOM      1  N   UNL     1       1.236   7.756  21.161  0.00  0.00    +0.000 NA
ATOM      2  N   UNL     1       1.836   7.784  20.067  0.00  0.00    +0.000 NA
ENDROOT
BRANCH   1   6
ATOM      3  C   UNL     1      -1.042  11.245  22.008  0.00  0.00    +0.000 A 
ATOM      4  C   UNL     1      -0.710  10.314  23.004  0.00  0.00    +0.000 A 
ATOM      5  C   UNL     1       0.051   9.180  22.698  0.00  0.00    +0.000 A 
ATOM      6  C   UNL     1       0.494   8.937  21.394  0.00  0.00    +0.000 A 
ATOM      7  C   UNL     1       0.176   9.878  20.406  0.00  0.00    +0.000 A 
ATOM      8  C   UNL     1      -0.583  11.013  20.705  0.00  0.00    +0.000 A 
BRANCH   3  10
ATOM      9  C   UNL     1      -2.887  12.154  23.404  0.00  0.00    +0.000 C 
ATOM     10  C   UNL     1      -1.801  12.507  22.384  0.00  0.00    +0.000 C 
ATOM     11  C   UNL     1      -0.916  13.641  22.916  0.00  0.00    +0.000 C 
ENDBRANCH   3  10
ENDBRANCH   1   6
BRANCH   2  12
ATOM     12  C   UNL     1       2.393   6.540  19.717  0.00  0.00    +0.000 A 
ATOM     13  C   UNL     1       2.046   5.439  20.508  0.00  0.00    +0.000 A 
ATOM     14  C   UNL     1       2.564   4.168  20.240  0.00  0.00    +0.000 A 
ATOM     15  C   UNL     1       3.441   3.975  19.165  0.00  0.00    +0.000 A 
ATOM     16  C   UNL     1       3.769   5.059  18.343  0.00  0.00    +0.000 A 
ATOM     17  C   UNL     1       3.244   6.333  18.622  0.00  0.00    +0.000 A 
BRANCH  15  18
ATOM     18  C   UNL     1       3.938   2.595  18.928  0.00  0.00    +0.000 C 
ATOM     19  O   UNL     1       3.435   1.847  18.103  0.00  0.00    +0.000 OA
BRANCH  18  20
ATOM     20  O   UNL     1       4.958   2.214  19.725  0.00  0.00    +0.000 OA
ATOM     21  H   UNL     1       5.827   2.136  19.293  0.00  0.00    +0.000 HD
ENDBRANCH  18  20
ENDBRANCH  15  18
ENDBRANCH   2  12
TORSDOF 5
ENDMDL
MODEL 5
REMARK VINA RESULT:      -7.0      0.473      1.389
REMARK  Name = 
REMARK  7 active torsions:
REMARK  status: ('A' for Active; 'I' for Inactive)
REMARK    1  A    between atoms: C_1  and  C_2
REMARK    2  A    between atoms: C_2  and  C_3
REMARK    3  A    between atoms: C_2  and  C_4
REMARK    4  A    between atoms: C_7  and  N_8
REMARK    5  A    between atoms: N_9  and  C_10
REMARK    6  A    between atoms: C_13  and  C_14
REMARK    7  A    between atoms: C_14  and  O_16
REMARK                            x       y       z     vdW  Elec       q    Type
REMARK                         _______ _______ _______ _____ _____    ______ ____
ROOT
ATOM      1  N   UNL     1       2.313   7.765  17.978  0.00  0.00    +0.000 NA
ATOM      2  N   UNL     1       2.907   6.806  18.512  0.00  0.00    +0.000 NA
ENDROOT
BRANCH   1   6
ATOM      3  C   UNL     1       0.055   9.886  20.891  0.00  0.00    +0.000 A 
ATOM      4  C   UNL     1       0.787   8.733  21.213  0.00  0.00    +0.000 A 
ATOM      5  C   UNL     1       1.530   8.062  20.235  0.00  0.00    +0.000 A 
ATOM      6  C   UNL     1       1.559   8.513  18.912  0.00  0.00    +0.000 A 
ATOM      7  C   UNL     1       0.841   9.675  18.598  0.00  0.00    +0.000 A 
ATOM      8  C   UNL     1       0.097  10.350  19.570  0.00  0.00    +0.000 A 
BRANCH   3  10
ATOM      9  C   UNL     1      -0.485   9.905  23.318  0.00  0.00    +0.000 C 
ATOM     10  C   UNL     1      -0.680  10.639  21.989  0.00  0.00    +0.000 C 
ATOM     11  C   UNL     1      -0.270  12.110  22.125  0.00  0.00    +0.000 C 
ENDBRANCH   3  10
ENDBRANCH   1   6
BRANCH   2  12
ATOM     12  C   UNL     1       3.833   6.188  17.650  0.00  0.00    +0.000 A 
ATOM     13  C   UNL     1       4.548   7.019  16.780  0.00  0.00    +0.000 A 
ATOM     14  C   UNL     1       5.479   6.488  15.881  0.00  0.00    +0.000 A 
ATOM     15  C   UNL     1       5.714   5.108  15.841  0.00  0.00    +0.000 A 
ATOM     16  C   UNL     1       5.032   4.269  16.729  0.00  0.00    +0.000 A 
ATOM     17  C   UNL     1       4.098   4.811  17.627  0.00  0.00    +0.000 A 
BRANCH  15  18
ATOM     18  C   UNL     1       6.729   4.616  14.873  0.00  0.00    +0.000 C 
ATOM     19  O   UNL     1       7.752   5.236  14.622  0.00  0.00    +0.000 OA
BRANCH  18  20
ATOM     20  O   UNL     1       6.415   3.456  14.260  0.00  0.00    +0.000 OA
ATOM     21  H   UNL     1       5.475   3.338  14.034  0.00  0.00    +0.000 HD
ENDBRANCH  18  20
ENDBRANCH  15  18
ENDBRANCH   2  12
TORSDOF 5
ENDMDL
MODEL 6
REMARK VINA RESULT:      -7.0      4.172      8.665
REMARK  Name = 
REMARK  7 active torsions:
REMARK  status: ('A' for Active; 'I' for Inactive)
REMARK    1  A    between atoms: C_1  and  C_2
REMARK    2  A    between atoms: C_2  and  C_3
REMARK    3  A    between atoms: C_2  and  C_4
REMARK    4  A    between atoms: C_7  and  N_8
REMARK    5  A    between atoms: N_9  and  C_10
REMARK    6  A    between atoms: C_13  and  C_14
REMARK    7  A    between atoms: C_14  and  O_16
REMARK                            x       y       z     vdW  Elec       q    Type
REMARK                         _______ _______ _______ _____ _____    ______ ____
ROOT
ATOM      1  N   UNL     1       2.998   6.271  18.533  0.00  0.00    +0.000 NA
ATOM      2  N   UNL     1       2.558   7.389  18.196  0.00  0.00    +0.000 NA
ENDROOT
BRANCH   1   6
ATOM      3  C   UNL     1       5.516   4.718  15.479  0.00  0.00    +0.000 A 
ATOM      4  C   UNL     1       5.356   6.097  15.681  0.00  0.00    +0.000 A 
ATOM      5  C   UNL     1       4.529   6.579  16.702  0.00  0.00    +0.000 A 
ATOM      6  C   UNL     1       3.833   5.705  17.542  0.00  0.00    +0.000 A 
ATOM      7  C   UNL     1       4.009   4.328  17.349  0.00  0.00    +0.000 A 
ATOM      8  C   UNL     1       4.834   3.840  16.331  0.00  0.00    +0.000 A 
BRANCH   3  10
ATOM      9  C   UNL     1       5.683   3.675  13.229  0.00  0.00    +0.000 C 
ATOM     10  C   UNL     1       6.481   4.223  14.414  0.00  0.00    +0.000 C 
ATOM     11  C   UNL     1       7.490   5.275  13.939  0.00  0.00    +0.000 C 
ENDBRANCH   3  10
ENDBRANCH   1   6
BRANCH   2  12
ATOM     12  C   UNL     1       1.912   8.062  19.251  0.00  0.00    +0.000 A 
ATOM     13  C   UNL     1       1.346   9.309  18.960  0.00  0.00    +0.000 A 
ATOM     14  C   UNL     1       0.697  10.053  19.951  0.00  0.00    +0.000 A 
ATOM     15  C   UNL     1       0.598   9.555  21.256  0.00  0.00    +0.000 A 
ATOM     16  C   UNL     1       1.126   8.294  21.553  0.00  0.00    +0.000 A 
ATOM     17  C   UNL     1       1.778   7.556  20.551  0.00  0.00    +0.000 A 
BRANCH  15  18
ATOM     18  C   UNL     1      -0.121  10.391  22.253  0.00  0.00    +0.000 C 
ATOM     19  O   UNL     1      -0.068  11.612  22.248  0.00  0.00    +0.000 OA
BRANCH  18  20
ATOM     20  O   UNL     1      -0.801   9.698  23.191  0.00  0.00    +0.000 OA
ATOM     21  H   UNL     1      -1.120  10.216  23.951  0.00  0.00    +0.000 HD
ENDBRANCH  18  20
ENDBRANCH  15  18
ENDBRANCH   2  12
TORSDOF 5
ENDMDL
MODEL 7
REMARK VINA RESULT:      -7.0      4.224      8.740
REMARK  Name = 
REMARK  7 active torsions:
REMARK  status: ('A' for Active; 'I' for Inactive)
REMARK    1  A    between atoms: C_1  and  C_2
REMARK    2  A    between atoms: C_2  and  C_3
REMARK    3  A    between atoms: C_2  and  C_4
REMARK    4  A    between atoms: C_7  and  N_8
REMARK    5  A    between atoms: N_9  and  C_10
REMARK    6  A    between atoms: C_13  and  C_14
REMARK    7  A    between atoms: C_14  and  O_16
REMARK                            x       y       z     vdW  Elec       q    Type
REMARK                         _______ _______ _______ _____ _____    ______ ____
ROOT
ATOM      1  N   UNL     1       3.090   6.561  18.642  0.00  0.00    +0.000 NA
ATOM      2  N   UNL     1       2.389   7.521  18.264  0.00  0.00    +0.000 NA
ENDROOT
BRANCH   1   6
ATOM      3  C   UNL     1       5.472   4.835  15.572  0.00  0.00    +0.000 A 
ATOM      4  C   UNL     1       4.722   4.050  16.460  0.00  0.00    +0.000 A 
ATOM      5  C   UNL     1       3.938   4.647  17.454  0.00  0.00    +0.000 A 
ATOM      6  C   UNL     1       3.885   6.037  17.598  0.00  0.00    +0.000 A 
ATOM      7  C   UNL     1       4.622   6.818  16.697  0.00  0.00    +0.000 A 
ATOM      8  C   UNL     1       5.407   6.228  15.701  0.00  0.00    +0.000 A 
BRANCH   3  10
ATOM      9  C   UNL     1       5.282   3.749  13.343  0.00  0.00    +0.000 C 
ATOM     10  C   UNL     1       6.252   4.164  14.452  0.00  0.00    +0.000 C 
ATOM     11  C   UNL     1       7.389   5.018  13.877  0.00  0.00    +0.000 C 
ENDBRANCH   3  10
ENDBRANCH   1   6
BRANCH   2  12
ATOM     12  C   UNL     1       1.764   8.195  19.331  0.00  0.00    +0.000 A 
ATOM     13  C   UNL     1       1.187   9.439  19.050  0.00  0.00    +0.000 A 
ATOM     14  C   UNL     1       0.556  10.182  20.054  0.00  0.00    +0.000 A 
ATOM     15  C   UNL     1       0.488   9.687  21.362  0.00  0.00    +0.000 A 
ATOM     16  C   UNL     1       1.028   8.429  21.649  0.00  0.00    +0.000 A 
ATOM     17  C   UNL     1       1.661   7.691  20.635  0.00  0.00    +0.000 A 
BRANCH  15  18
ATOM     18  C   UNL     1      -0.213  10.523  22.372  0.00  0.00    +0.000 C 
ATOM     19  O   UNL     1      -0.185  11.744  22.348  0.00  0.00    +0.000 OA
BRANCH  18  20
ATOM     20  O   UNL     1      -0.844   9.830  23.342  0.00  0.00    +0.000 OA
ATOM     21  H   UNL     1      -0.296   9.192  23.832  0.00  0.00    +0.000 HD
ENDBRANCH  18  20
ENDBRANCH  15  18
ENDBRANCH   2  12
TORSDOF 5
ENDMDL
MODEL 8
REMARK VINA RESULT:      -6.9      0.196      1.301
REMARK  Name = 
REMARK  7 active torsions:
REMARK  status: ('A' for Active; 'I' for Inactive)
REMARK    1  A    between atoms: C_1  and  C_2
REMARK    2  A    between atoms: C_2  and  C_3
REMARK    3  A    between atoms: C_2  and  C_4
REMARK    4  A    between atoms: C_7  and  N_8
REMARK    5  A    between atoms: N_9  and  C_10
REMARK    6  A    between atoms: C_13  and  C_14
REMARK    7  A    between atoms: C_14  and  O_16
REMARK                            x       y       z     vdW  Elec       q    Type
REMARK                         _______ _______ _______ _____ _____    ______ ____
ROOT
ATOM      1  N   UNL     1       2.444   7.806  17.943  0.00  0.00    +0.000 NA
ATOM      2  N   UNL     1       3.037   6.823  18.432  0.00  0.00    +0.000 NA
ENDROOT
BRANCH   1   6
ATOM      3  C   UNL     1       0.456   9.989  21.003  0.00  0.00    +0.000 A 
ATOM      4  C   UNL     1       1.025   8.729  21.239  0.00  0.00    +0.000 A 
ATOM      5  C   UNL     1       1.684   8.038  20.215  0.00  0.00    +0.000 A 
ATOM      6  C   UNL     1       1.786   8.577  18.929  0.00  0.00    +0.000 A 
ATOM      7  C   UNL     1       1.232   9.844  18.701  0.00  0.00    +0.000 A 
ATOM      8  C   UNL     1       0.574  10.539  19.721  0.00  0.00    +0.000 A 
BRANCH   3  10
ATOM      9  C   UNL     1      -1.306  11.636  21.605  0.00  0.00    +0.000 C 
ATOM     10  C   UNL     1      -0.183  10.751  22.153  0.00  0.00    +0.000 C 
ATOM     11  C   UNL     1      -0.709   9.859  23.284  0.00  0.00    +0.000 C 
ENDBRANCH   3  10
ENDBRANCH   1   6
BRANCH   2  12
ATOM     12  C   UNL     1       3.876   6.174  17.506  0.00  0.00    +0.000 A 
ATOM     13  C   UNL     1       4.588   6.984  16.614  0.00  0.00    +0.000 A 
ATOM     14  C   UNL     1       5.435   6.424  15.652  0.00  0.00    +0.000 A 
ATOM     15  C   UNL     1       5.588   5.034  15.570  0.00  0.00    +0.000 A 
ATOM     16  C   UNL     1       4.911   4.214  16.479  0.00  0.00    +0.000 A 
ATOM     17  C   UNL     1       4.061   4.786  17.440  0.00  0.00    +0.000 A 
BRANCH  15  18
ATOM     18  C   UNL     1       6.518   4.510  14.536  0.00  0.00    +0.000 C 
ATOM     19  O   UNL     1       6.282   3.498  13.892  0.00  0.00    +0.000 OA
BRANCH  18  20
ATOM     20  O   UNL     1       7.663   5.210  14.394  0.00  0.00    +0.000 OA
ATOM     21  H   UNL     1       8.328   4.818  13.800  0.00  0.00    +0.000 HD
ENDBRANCH  18  20
ENDBRANCH  15  18
ENDBRANCH   2  12
TORSDOF 5
ENDMDL
MODEL 9
REMARK VINA RESULT:      -6.9      2.681      3.635
REMARK  Name = 
REMARK  7 active torsions:
REMARK  status: ('A' for Active; 'I' for Inactive)
REMARK    1  A    between atoms: C_1  and  C_2
REMARK    2  A    between atoms: C_2  and  C_3
REMARK    3  A    between atoms: C_2  and  C_4
REMARK    4  A    between atoms: C_7  and  N_8
REMARK    5  A    between atoms: N_9  and  C_10
REMARK    6  A    between atoms: C_13  and  C_14
REMARK    7  A    between atoms: C_14  and  O_16
REMARK                            x       y       z     vdW  Elec       q    Type
REMARK                         _______ _______ _______ _____ _____    ______ ____
ROOT
ATOM      1  N   UNL     1       1.329   7.931  21.296  0.00  0.00    +0.000 NA
ATOM      2  N   UNL     1       1.699   7.973  20.105  0.00  0.00    +0.000 NA
ENDROOT
BRANCH   1   6
ATOM      3  C   UNL     1      -1.040  11.344  22.203  0.00  0.00    +0.000 A 
ATOM      4  C   UNL     1      -0.528  11.115  20.917  0.00  0.00    +0.000 A 
ATOM      5  C   UNL     1       0.239   9.976  20.645  0.00  0.00    +0.000 A 
ATOM      6  C   UNL     1       0.525   9.041  21.644  0.00  0.00    +0.000 A 
ATOM      7  C   UNL     1      -0.002   9.264  22.923  0.00  0.00    +0.000 A 
ATOM      8  C   UNL     1      -0.771  10.399  23.201  0.00  0.00    +0.000 A 
BRANCH   3  10
ATOM      9  C   UNL     1      -2.422  13.096  21.107  0.00  0.00    +0.000 C 
ATOM     10  C   UNL     1      -1.936  12.547  22.451  0.00  0.00    +0.000 C 
ATOM     11  C   UNL     1      -3.126  12.266  23.376  0.00  0.00    +0.000 C 
ENDBRANCH   3  10
ENDBRANCH   1   6
BRANCH   2  12
ATOM     12  C   UNL     1       2.307   6.777  19.679  0.00  0.00    +0.000 A 
ATOM     13  C   UNL     1       2.049   5.626  20.433  0.00  0.00    +0.000 A 
ATOM     14  C   UNL     1       2.622   4.397  20.090  0.00  0.00    +0.000 A 
ATOM     15  C   UNL     1       3.465   4.298  18.976  0.00  0.00    +0.000 A 
ATOM     16  C   UNL     1       3.703   5.432  18.191  0.00  0.00    +0.000 A 
ATOM     17  C   UNL     1       3.124   6.662  18.546  0.00  0.00    +0.000 A 
BRANCH  15  18
ATOM     18  C   UNL     1       4.024   2.958  18.660  0.00  0.00    +0.000 C 
ATOM     19  O   UNL     1       3.533   2.224  17.814  0.00  0.00    +0.000 OA
BRANCH  18  20
ATOM     20  O   UNL     1       5.087   2.594  19.408  0.00  0.00    +0.000 OA
ATOM     21  H   UNL     1       5.093   2.926  20.323  0.00  0.00    +0.000 HD
ENDBRANCH  18  20
ENDBRANCH  15  18
ENDBRANCH   2  12
TORSDOF 5
ENDMDL
