MODEL 1
REMARK VINA RESULT:      -8.1      0.000      0.000
REMARK  Name = 
REMARK  6 active torsions:
REMARK  status: ('A' for Active; 'I' for Inactive)
REMARK    1  A    between atoms: C_2  and  C_3
REMARK    2  A    between atoms: C_3  and  C_4
REMARK    3  A    between atoms: C_4  and  C_5
REMARK    4  A    between atoms: C_6  and  C_7
REMARK    5  A    between atoms: N_22  and  C_23
REMARK    6  A    between atoms: C_28  and  O_29
REMARK                            x       y       z     vdW  Elec       q    Type
REMARK                         _______ _______ _______ _____ _____    ______ ____
ROOT
ATOM      1  C   UNL     1       2.062   6.540  19.158  0.00  0.00    +0.000 A 
ATOM      2  C   UNL     1       1.632   7.128  20.348  0.00  0.00    +0.000 A 
ATOM      3  N   UNL     1       1.723   6.156  21.322  0.00  0.00    +0.000 N 
ATOM      4  C   UNL     1       2.125   4.954  20.796  0.00  0.00    +0.000 A 
ATOM      5  C   UNL     1       2.320   3.719  21.426  0.00  0.00    +0.000 A 
ATOM      6  C   UNL     1       2.700   2.640  20.624  0.00  0.00    +0.000 A 
ATOM      7  C   UNL     1       2.879   2.803  19.254  0.00  0.00    +0.000 A 
ATOM      8 CL   UNL     1       3.324   1.444  18.291  0.00  0.00    +0.000 Cl
ATOM      9  C   UNL     1       2.704   4.049  18.643  0.00  0.00    +0.000 A 
ATOM     10  C   UNL     1       2.319   5.153  19.432  0.00  0.00    +0.000 A 
ATOM     11  H   UNL     1       1.488   6.293  22.293  0.00  0.00    +0.000 HD
ENDROOT
BRANCH   2  12
ATOM     12  C   UNL     1       1.169   8.487  20.648  0.00  0.00    +0.000 A 
ATOM     13  C   UNL     1       0.836   8.859  21.963  0.00  0.00    +0.000 A 
ATOM     14  C   UNL     1       0.326  10.122  22.250  0.00  0.00    +0.000 A 
ATOM     15  C   UNL     1       0.187  11.044  21.227  0.00  0.00    +0.000 A 
ATOM     16  F   UNL     1      -0.294  12.263  21.500  0.00  0.00    +0.000 F 
ATOM     17  C   UNL     1       0.540  10.720  19.923  0.00  0.00    +0.000 A 
ATOM     18  C   UNL     1       1.020   9.444  19.632  0.00  0.00    +0.000 A 
ENDBRANCH   2  12
BRANCH   1  19
ATOM     19  C   UNL     1       2.214   7.198  17.815  0.00  0.00    +0.000 C 
BRANCH  19  20
ATOM     20  C   UNL     1       3.584   7.856  17.608  0.00  0.00    +0.000 C 
BRANCH  20  22
ATOM     21  O   UNL     1       5.348   6.550  18.592  0.00  0.00    +0.000 OA
ATOM     22  C   UNL     1       4.663   6.798  17.613  0.00  0.00    +0.000 C 
ATOM     23  N   UNL     1       4.781   6.088  16.434  0.00  0.00    +0.000 N 
ATOM     24  H   UNL     1       4.421   6.489  15.577  0.00  0.00    +0.000 HD
BRANCH  23  25
ATOM     25  C   UNL     1       5.807   5.053  16.341  0.00  0.00    +0.000 C 
ATOM     26  C   UNL     1       7.125   5.633  15.821  0.00  0.00    +0.000 C 
ATOM     27  O   UNL     1       7.827   6.457  16.383  0.00  0.00    +0.000 OA
ATOM     28  N   UNL     1       7.346   5.163  14.539  0.00  0.00    +0.000 N 
ATOM     29  C   UNL     1       6.196   4.472  14.026  0.00  0.00    +0.000 C 
ATOM     30  C   UNL     1       5.501   3.966  15.282  0.00  0.00    +0.000 C 
ATOM     31  H   UNL     1       8.094   5.554  13.975  0.00  0.00    +0.000 HD
BRANCH  30  32
ATOM     32  O   UNL     1       6.054   2.701  15.670  0.00  0.00    +0.000 OA
ATOM     33  H   UNL     1       7.007   2.822  15.830  0.00  0.00    +0.000 HD
ENDBRANCH  30  32
ENDBRANCH  23  25
ENDBRANCH  20  22
ENDBRANCH  19  20
ENDBRANCH   1  19
TORSDOF 6
ENDMDL
MODEL 2
REMARK VINA RESULT:      -8.0      4.370      8.101
REMARK  Name = 
REMARK  6 active torsions:
REMARK  status: ('A' for Active; 'I' for Inactive)
REMARK    1  A    between atoms: C_2  and  C_3
REMARK    2  A    between atoms: C_3  and  C_4
REMARK    3  A    between atoms: C_4  and  C_5
REMARK    4  A    between atoms: C_6  and  C_7
REMARK    5  A    between atoms: N_22  and  C_23
REMARK    6  A    between atoms: C_28  and  O_29
REMARK                            x       y       z     vdW  Elec       q    Type
REMARK                         _______ _______ _______ _____ _____    ______ ____
ROOT
ATOM      1  C   UNL     1       1.612   8.252  20.067  0.00  0.00    +0.000 A 
ATOM      2  C   UNL     1       1.477   9.168  19.024  0.00  0.00    +0.000 A 
ATOM      3  N   UNL     1       2.006   8.567  17.901  0.00  0.00    +0.000 N 
ATOM      4  C   UNL     1       2.536   7.337  18.193  0.00  0.00    +0.000 A 
ATOM      5  C   UNL     1       3.181   6.416  17.359  0.00  0.00    +0.000 A 
ATOM      6  C   UNL     1       3.660   5.241  17.944  0.00  0.00    +0.000 A 
ATOM      7  C   UNL     1       3.490   5.006  19.305  0.00  0.00    +0.000 A 
ATOM      8 CL   UNL     1       4.115   3.558  19.999  0.00  0.00    +0.000 Cl
ATOM      9  C   UNL     1       2.821   5.924  20.121  0.00  0.00    +0.000 A 
ATOM     10  C   UNL     1       2.330   7.119  19.553  0.00  0.00    +0.000 A 
ATOM     11  H   UNL     1       2.039   8.990  16.985  0.00  0.00    +0.000 HD
ENDROOT
BRANCH   2  12
ATOM     12  C   UNL     1       0.899  10.517  18.984  0.00  0.00    +0.000 A 
ATOM     13  C   UNL     1      -0.413  10.723  18.523  0.00  0.00    +0.000 A 
ATOM     14  C   UNL     1      -0.948  12.003  18.411  0.00  0.00    +0.000 A 
ATOM     15  C   UNL     1      -0.186  13.091  18.803  0.00  0.00    +0.000 A 
ATOM     16  F   UNL     1      -0.699  14.324  18.706  0.00  0.00    +0.000 F 
ATOM     17  C   UNL     1       1.102  12.919  19.296  0.00  0.00    +0.000 A 
ATOM     18  C   UNL     1       1.647  11.638  19.377  0.00  0.00    +0.000 A 
ENDBRANCH   2  12
BRANCH   1  19
ATOM     19  C   UNL     1       1.130   8.400  21.483  0.00  0.00    +0.000 C 
BRANCH  19  20
ATOM     20  C   UNL     1      -0.331   8.855  21.588  0.00  0.00    +0.000 C 
BRANCH  20  22
ATOM     21  O   UNL     1       0.086   9.968  23.680  0.00  0.00    +0.000 OA
ATOM     22  C   UNL     1      -0.440   9.992  22.579  0.00  0.00    +0.000 C 
ATOM     23  N   UNL     1      -1.141  11.091  22.122  0.00  0.00    +0.000 N 
ATOM     24  H   UNL     1      -1.791  10.979  21.353  0.00  0.00    +0.000 HD
BRANCH  23  25
ATOM     25  C   UNL     1      -1.310  12.233  23.015  0.00  0.00    +0.000 C 
ATOM     26  C   UNL     1      -2.793  12.500  23.288  0.00  0.00    +0.000 C 
ATOM     27  O   UNL     1      -3.567  11.764  23.876  0.00  0.00    +0.000 OA
ATOM     28  N   UNL     1      -3.161  13.672  22.652  0.00  0.00    +0.000 N 
ATOM     29  C   UNL     1      -2.123  14.145  21.778  0.00  0.00    +0.000 C 
ATOM     30  C   UNL     1      -0.854  13.578  22.400  0.00  0.00    +0.000 C 
ATOM     31  H   UNL     1      -4.139  13.936  22.594  0.00  0.00    +0.000 HD
BRANCH  30  32
ATOM     32  O   UNL     1      -0.368  14.469  23.413  0.00  0.00    +0.000 OA
ATOM     33  H   UNL     1      -1.132  14.927  23.806  0.00  0.00    +0.000 HD
ENDBRANCH  30  32
ENDBRANCH  23  25
ENDBRANCH  20  22
ENDBRANCH  19  20
ENDBRANCH   1  19
TORSDOF 6
ENDMDL
MODEL 3
REMARK VINA RESULT:      -8.0      3.856      6.240
REMARK  Name = 
REMARK  6 active torsions:
REMARK  status: ('A' for Active; 'I' for Inactive)
REMARK    1  A    between atoms: C_2  and  C_3
REMARK    2  A    between atoms: C_3  and  C_4
REMARK    3  A    between atoms: C_4  and  C_5
REMARK    4  A    between atoms: C_6  and  C_7
REMARK    5  A    between atoms: N_22  and  C_23
REMARK    6  A    between atoms: C_28  and  O_29
REMARK                            x       y       z     vdW  Elec       q    Type
REMARK                         _______ _______ _______ _____ _____    ______ ____
ROOT
ATOM      1  C   UNL     1       2.605   7.496  18.890  0.00  0.00    +0.000 A 
ATOM      2  C   UNL     1       2.106   7.223  20.164  0.00  0.00    +0.000 A 
ATOM      3  N   UNL     1       2.549   5.961  20.497  0.00  0.00    +0.000 N 
ATOM      4  C   UNL     1       3.249   5.385  19.468  0.00  0.00    +0.000 A 
ATOM      5  C   UNL     1       3.844   4.121  19.383  0.00  0.00    +0.000 A 
ATOM      6  C   UNL     1       4.468   3.783  18.180  0.00  0.00    +0.000 A 
ATOM      7  C   UNL     1       4.495   4.680  17.117  0.00  0.00    +0.000 A 
ATOM      8 CL   UNL     1       5.251   4.220  15.639  0.00  0.00    +0.000 Cl
ATOM      9  C   UNL     1       3.917   5.949  17.225  0.00  0.00    +0.000 A 
ATOM     10  C   UNL     1       3.279   6.313  18.431  0.00  0.00    +0.000 A 
ATOM     11  H   UNL     1       2.352   5.496  21.371  0.00  0.00    +0.000 HD
ENDROOT
BRANCH   2  12
ATOM     12  C   UNL     1       1.284   8.025  21.078  0.00  0.00    +0.000 A 
ATOM     13  C   UNL     1      -0.088   7.756  21.233  0.00  0.00    +0.000 A 
ATOM     14  C   UNL     1      -0.894   8.554  22.040  0.00  0.00    +0.000 A 
ATOM     15  C   UNL     1      -0.323   9.605  22.738  0.00  0.00    +0.000 A 
ATOM     16  F   UNL     1      -1.092  10.369  23.523  0.00  0.00    +0.000 F 
ATOM     17  C   UNL     1       1.036   9.875  22.634  0.00  0.00    +0.000 A 
ATOM     18  C   UNL     1       1.835   9.095  21.800  0.00  0.00    +0.000 A 
ENDBRANCH   2  12
BRANCH   1  19
ATOM     19  C   UNL     1       2.460   8.769  18.104  0.00  0.00    +0.000 C 
BRANCH  19  20
ATOM     20  C   UNL     1       1.025   9.041  17.638  0.00  0.00    +0.000 C 
BRANCH  20  22
ATOM     21  O   UNL     1      -0.743  10.156  18.828  0.00  0.00    +0.000 OA
ATOM     22  C   UNL     1       0.422  10.153  18.466  0.00  0.00    +0.000 C 
ATOM     23  N   UNL     1       1.309  11.146  18.833  0.00  0.00    +0.000 N 
ATOM     24  H   UNL     1       2.162  11.270  18.300  0.00  0.00    +0.000 HD
BRANCH  23  25
ATOM     25  C   UNL     1       0.814  12.268  19.624  0.00  0.00    +0.000 C 
ATOM     26  C   UNL     1       0.378  13.425  18.721  0.00  0.00    +0.000 C 
ATOM     27  O   UNL     1      -0.545  13.415  17.924  0.00  0.00    +0.000 OA
ATOM     28  N   UNL     1       1.278  14.466  18.860  0.00  0.00    +0.000 N 
ATOM     29  C   UNL     1       2.430  14.068  19.620  0.00  0.00    +0.000 C 
ATOM     30  C   UNL     1       1.900  12.942  20.498  0.00  0.00    +0.000 C 
ATOM     31  H   UNL     1       1.239  15.262  18.231  0.00  0.00    +0.000 HD
BRANCH  30  32
ATOM     32  O   UNL     1       1.331  13.485  21.698  0.00  0.00    +0.000 OA
ATOM     33  H   UNL     1       2.051  13.625  22.338  0.00  0.00    +0.000 HD
ENDBRANCH  30  32
ENDBRANCH  23  25
ENDBRANCH  20  22
ENDBRANCH  19  20
ENDBRANCH   1  19
TORSDOF 6
ENDMDL
MODEL 4
REMARK VINA RESULT:      -7.9      3.175      5.321
REMARK  Name = 
REMARK  6 active torsions:
REMARK  status: ('A' for Active; 'I' for Inactive)
REMARK    1  A    between atoms: C_2  and  C_3
REMARK    2  A    between atoms: C_3  and  C_4
REMARK    3  A    between atoms: C_4  and  C_5
REMARK    4  A    between atoms: C_6  and  C_7
REMARK    5  A    between atoms: N_22  and  C_23
REMARK    6  A    between atoms: C_28  and  O_29
REMARK                            x       y       z     vdW  Elec       q    Type
REMARK                         _______ _______ _______ _____ _____    ______ ____
ROOT
ATOM      1  C   UNL     1       1.867   7.490  19.005  0.00  0.00    +0.000 A 
ATOM      2  C   UNL     1       1.940   6.328  19.773  0.00  0.00    +0.000 A 
ATOM      3  N   UNL     1       1.475   6.656  21.029  0.00  0.00    +0.000 N 
ATOM      4  C   UNL     1       1.174   7.991  21.120  0.00  0.00    +0.000 A 
ATOM      5  C   UNL     1       0.700   8.732  22.209  0.00  0.00    +0.000 A 
ATOM      6  C   UNL     1       0.515  10.105  22.022  0.00  0.00    +0.000 A 
ATOM      7  C   UNL     1       0.791  10.697  20.794  0.00  0.00    +0.000 A 
ATOM      8 CL   UNL     1       0.576  12.397  20.607  0.00  0.00    +0.000 Cl
ATOM      9  C   UNL     1       1.240   9.939  19.708  0.00  0.00    +0.000 A 
ATOM     10  C   UNL     1       1.436   8.551  19.872  0.00  0.00    +0.000 A 
ATOM     11  H   UNL     1       1.401   6.010  21.800  0.00  0.00    +0.000 HD
ENDROOT
BRANCH   2  12
ATOM     12  C   UNL     1       2.383   4.969  19.439  0.00  0.00    +0.000 A 
ATOM     13  C   UNL     1       2.028   4.378  18.213  0.00  0.00    +0.000 A 
ATOM     14  C   UNL     1       2.379   3.065  17.915  0.00  0.00    +0.000 A 
ATOM     15  C   UNL     1       3.131   2.342  18.826  0.00  0.00    +0.000 A 
ATOM     16  F   UNL     1       3.479   1.082  18.539  0.00  0.00    +0.000 F 
ATOM     17  C   UNL     1       3.528   2.908  20.031  0.00  0.00    +0.000 A 
ATOM     18  C   UNL     1       3.147   4.213  20.341  0.00  0.00    +0.000 A 
ENDBRANCH   2  12
BRANCH   1  19
ATOM     19  C   UNL     1       2.196   7.645  17.546  0.00  0.00    +0.000 C 
BRANCH  19  20
ATOM     20  C   UNL     1       3.620   8.151  17.290  0.00  0.00    +0.000 C 
BRANCH  20  22
ATOM     21  O   UNL     1       5.141   6.724  18.491  0.00  0.00    +0.000 OA
ATOM     22  C   UNL     1       4.600   7.008  17.434  0.00  0.00    +0.000 C 
ATOM     23  N   UNL     1       4.799   6.270  16.284  0.00  0.00    +0.000 N 
ATOM     24  H   UNL     1       4.577   6.683  15.386  0.00  0.00    +0.000 HD
BRANCH  23  25
ATOM     25  C   UNL     1       5.739   5.154  16.324  0.00  0.00    +0.000 C 
ATOM     26  C   UNL     1       7.146   5.608  15.926  0.00  0.00    +0.000 C 
ATOM     27  O   UNL     1       7.854   6.392  16.535  0.00  0.00    +0.000 OA
ATOM     28  N   UNL     1       7.454   5.077  14.686  0.00  0.00    +0.000 N 
ATOM     29  C   UNL     1       6.307   4.463  14.077  0.00  0.00    +0.000 C 
ATOM     30  C   UNL     1       5.450   4.058  15.269  0.00  0.00    +0.000 C 
ATOM     31  H   UNL     1       8.284   5.387  14.191  0.00  0.00    +0.000 HD
BRANCH  30  32
ATOM     32  O   UNL     1       5.854   2.767  15.745  0.00  0.00    +0.000 OA
ATOM     33  H   UNL     1       5.275   2.523  16.489  0.00  0.00    +0.000 HD
ENDBRANCH  30  32
ENDBRANCH  23  25
ENDBRANCH  20  22
ENDBRANCH  19  20
ENDBRANCH   1  19
TORSDOF 6
ENDMDL
MODEL 5
REMARK VINA RESULT:      -7.9      3.867      7.546
REMARK  Name = 
REMARK  6 active torsions:
REMARK  status: ('A' for Active; 'I' for Inactive)
REMARK    1  A    between atoms: C_2  and  C_3
REMARK    2  A    between atoms: C_3  and  C_4
REMARK    3  A    between atoms: C_4  and  C_5
REMARK    4  A    between atoms: C_6  and  C_7
REMARK    5  A    between atoms: N_22  and  C_23
REMARK    6  A    between atoms: C_28  and  O_29
REMARK                            x       y       z     vdW  Elec       q    Type
REMARK                         _______ _______ _______ _____ _____    ______ ____
ROOT
ATOM      1  C   UNL     1       4.238   4.853  17.811  0.00  0.00    +0.000 A 
ATOM      2  C   UNL     1       4.772   4.107  16.761  0.00  0.00    +0.000 A 
ATOM      3  N   UNL     1       4.265   2.831  16.887  0.00  0.00    +0.000 N 
ATOM      4  C   UNL     1       3.487   2.709  18.010  0.00  0.00    +0.000 A 
ATOM      5  C   UNL     1       2.810   1.593  18.517  0.00  0.00    +0.000 A 
ATOM      6  C   UNL     1       2.116   1.752  19.719  0.00  0.00    +0.000 A 
ATOM      7  C   UNL     1       2.101   2.979  20.373  0.00  0.00    +0.000 A 
ATOM      8 CL   UNL     1       1.256   3.132  21.867  0.00  0.00    +0.000 Cl
ATOM      9  C   UNL     1       2.762   4.091  19.842  0.00  0.00    +0.000 A 
ATOM     10  C   UNL     1       3.472   3.955  18.630  0.00  0.00    +0.000 A 
ATOM     11  H   UNL     1       4.468   2.068  16.260  0.00  0.00    +0.000 HD
ENDROOT
BRANCH   2  12
ATOM     12  C   UNL     1       5.681   4.477  15.669  0.00  0.00    +0.000 A 
ATOM     13  C   UNL     1       5.438   4.042  14.354  0.00  0.00    +0.000 A 
ATOM     14  C   UNL     1       6.330   4.324  13.323  0.00  0.00    +0.000 A 
ATOM     15  C   UNL     1       7.455   5.085  13.591  0.00  0.00    +0.000 A 
ATOM     16  F   UNL     1       8.311   5.368  12.602  0.00  0.00    +0.000 F 
ATOM     17  C   UNL     1       7.705   5.561  14.873  0.00  0.00    +0.000 A 
ATOM     18  C   UNL     1       6.827   5.249  15.910  0.00  0.00    +0.000 A 
ENDBRANCH   2  12
BRANCH   1  19
ATOM     19  C   UNL     1       4.429   6.320  18.081  0.00  0.00    +0.000 C 
BRANCH  19  20
ATOM     20  C   UNL     1       3.405   7.212  17.369  0.00  0.00    +0.000 C 
BRANCH  20  22
ATOM     21  O   UNL     1       2.359   7.398  19.527  0.00  0.00    +0.000 OA
ATOM     22  C   UNL     1       2.458   7.812  18.384  0.00  0.00    +0.000 C 
ATOM     23  N   UNL     1       1.748   8.906  17.933  0.00  0.00    +0.000 N 
ATOM     24  H   UNL     1       1.631   9.045  16.936  0.00  0.00    +0.000 HD
BRANCH  23  25
ATOM     25  C   UNL     1       0.798   9.545  18.840  0.00  0.00    +0.000 C 
ATOM     26  C   UNL     1      -0.327  10.232  18.061  0.00  0.00    +0.000 C 
ATOM     27  O   UNL     1      -1.165   9.685  17.364  0.00  0.00    +0.000 OA
ATOM     28  N   UNL     1      -0.176  11.603  18.172  0.00  0.00    +0.000 N 
ATOM     29  C   UNL     1       1.077  11.946  18.784  0.00  0.00    +0.000 C 
ATOM     30  C   UNL     1       1.398  10.727  19.638  0.00  0.00    +0.000 C 
ATOM     31  H   UNL     1      -0.739  12.225  17.602  0.00  0.00    +0.000 HD
BRANCH  30  32
ATOM     32  O   UNL     1       0.769  10.853  20.922  0.00  0.00    +0.000 OA
ATOM     33  H   UNL     1       1.273  11.503  21.443  0.00  0.00    +0.000 HD
ENDBRANCH  30  32
ENDBRANCH  23  25
ENDBRANCH  20  22
ENDBRANCH  19  20
ENDBRANCH   1  19
TORSDOF 6
ENDMDL
MODEL 6
REMARK VINA RESULT:      -7.9      5.835      9.258
REMARK  Name = 
REMARK  6 active torsions:
REMARK  status: ('A' for Active; 'I' for Inactive)
REMARK    1  A    between atoms: C_2  and  C_3
REMARK    2  A    between atoms: C_3  and  C_4
REMARK    3  A    between atoms: C_4  and  C_5
REMARK    4  A    between atoms: C_6  and  C_7
REMARK    5  A    between atoms: N_22  and  C_23
REMARK    6  A    between atoms: C_28  and  O_29
REMARK                            x       y       z     vdW  Elec       q    Type
REMARK                         _______ _______ _______ _____ _____    ______ ____
ROOT
ATOM      1  C   UNL     1       0.609   9.510  19.605  0.00  0.00    +0.000 A 
ATOM      2  C   UNL     1       1.428   8.430  19.935  0.00  0.00    +0.000 A 
ATOM      3  N   UNL     1       1.293   8.235  21.293  0.00  0.00    +0.000 N 
ATOM      4  C   UNL     1       0.479   9.183  21.858  0.00  0.00    +0.000 A 
ATOM      5  C   UNL     1       0.100   9.360  23.194  0.00  0.00    +0.000 A 
ATOM      6  C   UNL     1      -0.721  10.450  23.492  0.00  0.00    +0.000 A 
ATOM      7  C   UNL     1      -1.143  11.316  22.488  0.00  0.00    +0.000 A 
ATOM      8 CL   UNL     1      -2.135  12.665  22.895  0.00  0.00    +0.000 Cl
ATOM      9  C   UNL     1      -0.777  11.112  21.154  0.00  0.00    +0.000 A 
ATOM     10  C   UNL     1       0.054  10.018  20.829  0.00  0.00    +0.000 A 
ATOM     11  H   UNL     1       1.761   7.512  21.818  0.00  0.00    +0.000 HD
ENDROOT
BRANCH   2  12
ATOM     12  C   UNL     1       2.294   7.580  19.110  0.00  0.00    +0.000 A 
ATOM     13  C   UNL     1       2.943   8.100  17.976  0.00  0.00    +0.000 A 
ATOM     14  C   UNL     1       3.708   7.288  17.144  0.00  0.00    +0.000 A 
ATOM     15  C   UNL     1       3.868   5.951  17.465  0.00  0.00    +0.000 A 
ATOM     16  F   UNL     1       4.611   5.168  16.674  0.00  0.00    +0.000 F 
ATOM     17  C   UNL     1       3.269   5.413  18.598  0.00  0.00    +0.000 A 
ATOM     18  C   UNL     1       2.477   6.221  19.412  0.00  0.00    +0.000 A 
ENDBRANCH   2  12
BRANCH   1  19
ATOM     19  C   UNL     1       0.351  10.079  18.237  0.00  0.00    +0.000 C 
BRANCH  19  20
ATOM     20  C   UNL     1      -1.017   9.694  17.662  0.00  0.00    +0.000 C 
BRANCH  20  22
ATOM     21  O   UNL     1      -1.537  12.040  17.543  0.00  0.00    +0.000 OA
ATOM     22  C   UNL     1      -1.936  10.895  17.684  0.00  0.00    +0.000 C 
ATOM     23  N   UNL     1      -3.276  10.594  17.822  0.00  0.00    +0.000 N 
ATOM     24  H   UNL     1      -3.545   9.700  18.215  0.00  0.00    +0.000 HD
BRANCH  23  25
ATOM     25  C   UNL     1      -4.238  11.691  17.867  0.00  0.00    +0.000 C 
ATOM     26  C   UNL     1      -4.491  12.140  19.309  0.00  0.00    +0.000 C 
ATOM     27  O   UNL     1      -3.679  12.652  20.061  0.00  0.00    +0.000 OA
ATOM     28  N   UNL     1      -5.769  11.763  19.678  0.00  0.00    +0.000 N 
ATOM     29  C   UNL     1      -6.367  10.900  18.697  0.00  0.00    +0.000 C 
ATOM     30  C   UNL     1      -5.661  11.292  17.406  0.00  0.00    +0.000 C 
ATOM     31  H   UNL     1      -6.065  11.843  20.645  0.00  0.00    +0.000 HD
BRANCH  30  32
ATOM     32  O   UNL     1      -6.335  12.402  16.799  0.00  0.00    +0.000 OA
ATOM     33  H   UNL     1      -7.242  12.123  16.579  0.00  0.00    +0.000 HD
ENDBRANCH  30  32
ENDBRANCH  23  25
ENDBRANCH  20  22
ENDBRANCH  19  20
ENDBRANCH   1  19
TORSDOF 6
ENDMDL
MODEL 7
REMARK VINA RESULT:      -7.9      3.566      6.560
REMARK  Name = 
REMARK  6 active torsions:
REMARK  status: ('A' for Active; 'I' for Inactive)
REMARK    1  A    between atoms: C_2  and  C_3
REMARK    2  A    between atoms: C_3  and  C_4
REMARK    3  A    between atoms: C_4  and  C_5
REMARK    4  A    between atoms: C_6  and  C_7
REMARK    5  A    between atoms: N_22  and  C_23
REMARK    6  A    between atoms: C_28  and  O_29
REMARK                            x       y       z     vdW  Elec       q    Type
REMARK                         _______ _______ _______ _____ _____    ______ ____
ROOT
ATOM      1  C   UNL     1       2.658   7.391  18.906  0.00  0.00    +0.000 A 
ATOM      2  C   UNL     1       2.102   7.147  20.162  0.00  0.00    +0.000 A 
ATOM      3  N   UNL     1       2.494   5.876  20.525  0.00  0.00    +0.000 N 
ATOM      4  C   UNL     1       3.216   5.269  19.529  0.00  0.00    +0.000 A 
ATOM      5  C   UNL     1       3.776   3.987  19.479  0.00  0.00    +0.000 A 
ATOM      6  C   UNL     1       4.436   3.617  18.305  0.00  0.00    +0.000 A 
ATOM      7  C   UNL     1       4.530   4.502  17.235  0.00  0.00    +0.000 A 
ATOM      8 CL   UNL     1       5.329   4.003  15.792  0.00  0.00    +0.000 Cl
ATOM      9  C   UNL     1       3.986   5.788  17.309  0.00  0.00    +0.000 A 
ATOM     10  C   UNL     1       3.314   6.184  18.484  0.00  0.00    +0.000 A 
ATOM     11  H   UNL     1       2.250   5.426  21.395  0.00  0.00    +0.000 HD
ENDROOT
BRANCH   2  12
ATOM     12  C   UNL     1       1.270   7.982  21.035  0.00  0.00    +0.000 A 
ATOM     13  C   UNL     1       1.857   8.857  21.966  0.00  0.00    +0.000 A 
ATOM     14  C   UNL     1       1.081   9.601  22.850  0.00  0.00    +0.000 A 
ATOM     15  C   UNL     1      -0.299   9.509  22.780  0.00  0.00    +0.000 A 
ATOM     16  F   UNL     1      -1.050  10.229  23.621  0.00  0.00    +0.000 F 
ATOM     17  C   UNL     1      -0.912   8.681  21.848  0.00  0.00    +0.000 A 
ATOM     18  C   UNL     1      -0.131   7.913  20.985  0.00  0.00    +0.000 A 
ENDBRANCH   2  12
BRANCH   1  19
ATOM     19  C   UNL     1       2.582   8.660  18.102  0.00  0.00    +0.000 C 
BRANCH  19  20
ATOM     20  C   UNL     1       1.172   9.258  18.035  0.00  0.00    +0.000 C 
BRANCH  20  22
ATOM     21  O   UNL     1       2.130  11.464  18.105  0.00  0.00    +0.000 OA
ATOM     22  C   UNL     1       1.219  10.718  18.426  0.00  0.00    +0.000 C 
ATOM     23  N   UNL     1       0.119  11.162  19.132  0.00  0.00    +0.000 N 
ATOM     24  H   UNL     1      -0.460  10.490  19.621  0.00  0.00    +0.000 HD
BRANCH  23  25
ATOM     25  C   UNL     1       0.082  12.556  19.565  0.00  0.00    +0.000 C 
ATOM     26  C   UNL     1       0.704  12.716  20.954  0.00  0.00    +0.000 C 
ATOM     27  O   UNL     1       1.871  12.522  21.253  0.00  0.00    +0.000 OA
ATOM     28  N   UNL     1      -0.297  13.005  21.864  0.00  0.00    +0.000 N 
ATOM     29  C   UNL     1      -1.600  12.853  21.277  0.00  0.00    +0.000 C 
ATOM     30  C   UNL     1      -1.349  13.099  19.795  0.00  0.00    +0.000 C 
ATOM     31  H   UNL     1      -0.099  12.999  22.859  0.00  0.00    +0.000 HD
BRANCH  30  32
ATOM     32  O   UNL     1      -1.418  14.504  19.516  0.00  0.00    +0.000 OA
ATOM     33  H   UNL     1      -0.573  14.908  19.783  0.00  0.00    +0.000 HD
ENDBRANCH  30  32
ENDBRANCH  23  25
ENDBRANCH  20  22
ENDBRANCH  19  20
ENDBRANCH   1  19
TORSDOF 6
ENDMDL
MODEL 8
REMARK VINA RESULT:      -7.8      1.032      1.193
REMARK  Name = 
REMARK  6 active torsions:
REMARK  status: ('A' for Active; 'I' for Inactive)
REMARK    1  A    between atoms: C_2  and  C_3
REMARK    2  A    between atoms: C_3  and  C_4
REMARK    3  A    between atoms: C_4  and  C_5
REMARK    4  A    between atoms: C_6  and  C_7
REMARK    5  A    between atoms: N_22  and  C_23
REMARK    6  A    between atoms: C_28  and  O_29
REMARK                            x       y       z     vdW  Elec       q    Type
REMARK                         _______ _______ _______ _____ _____    ______ ____
ROOT
ATOM      1  C   UNL     1       2.421   6.437  18.862  0.00  0.00    +0.000 A 
ATOM      2  C   UNL     1       1.881   7.118  19.953  0.00  0.00    +0.000 A 
ATOM      3  N   UNL     1       1.830   6.215  20.994  0.00  0.00    +0.000 N 
ATOM      4  C   UNL     1       2.247   4.970  20.599  0.00  0.00    +0.000 A 
ATOM      5  C   UNL     1       2.329   3.778  21.328  0.00  0.00    +0.000 A 
ATOM      6  C   UNL     1       2.761   2.635  20.649  0.00  0.00    +0.000 A 
ATOM      7  C   UNL     1       3.099   2.696  19.301  0.00  0.00    +0.000 A 
ATOM      8 CL   UNL     1       3.603   1.263  18.489  0.00  0.00    +0.000 Cl
ATOM      9  C   UNL     1       3.035   3.900  18.592  0.00  0.00    +0.000 A 
ATOM     10  C   UNL     1       2.600   5.067  19.256  0.00  0.00    +0.000 A 
ATOM     11  H   UNL     1       1.491   6.426  21.920  0.00  0.00    +0.000 HD
ENDROOT
BRANCH   2  12
ATOM     12  C   UNL     1       1.432   8.507  20.106  0.00  0.00    +0.000 A 
ATOM     13  C   UNL     1       1.121   9.025  21.376  0.00  0.00    +0.000 A 
ATOM     14  C   UNL     1       0.625  10.317  21.528  0.00  0.00    +0.000 A 
ATOM     15  C   UNL     1       0.477  11.121  20.411  0.00  0.00    +0.000 A 
ATOM     16  F   UNL     1       0.010  12.367  20.553  0.00  0.00    +0.000 F 
ATOM     17  C   UNL     1       0.810  10.651  19.146  0.00  0.00    +0.000 A 
ATOM     18  C   UNL     1       1.275   9.346  18.992  0.00  0.00    +0.000 A 
ENDBRANCH   2  12
BRANCH   1  19
ATOM     19  C   UNL     1       2.745   6.995  17.504  0.00  0.00    +0.000 C 
BRANCH  19  20
ATOM     20  C   UNL     1       4.058   7.786  17.465  0.00  0.00    +0.000 C 
BRANCH  20  22
ATOM     21  O   UNL     1       5.700   6.290  18.389  0.00  0.00    +0.000 OA
ATOM     22  C   UNL     1       5.228   6.830  17.402  0.00  0.00    +0.000 C 
ATOM     23  N   UNL     1       5.691   6.568  16.128  0.00  0.00    +0.000 N 
ATOM     24  H   UNL     1       5.487   7.223  15.382  0.00  0.00    +0.000 HD
BRANCH  23  25
ATOM     25  C   UNL     1       6.827   5.666  15.969  0.00  0.00    +0.000 C 
ATOM     26  C   UNL     1       6.845   5.047  14.568  0.00  0.00    +0.000 C 
ATOM     27  O   UNL     1       7.006   5.641  13.516  0.00  0.00    +0.000 OA
ATOM     28  N   UNL     1       6.526   3.705  14.668  0.00  0.00    +0.000 N 
ATOM     29  C   UNL     1       6.076   3.367  15.989  0.00  0.00    +0.000 C 
ATOM     30  C   UNL     1       6.756   4.409  16.869  0.00  0.00    +0.000 C 
ATOM     31  H   UNL     1       6.343   3.161  13.831  0.00  0.00    +0.000 HD
BRANCH  30  32
ATOM     32  O   UNL     1       8.069   3.959  17.231  0.00  0.00    +0.000 OA
ATOM     33  H   UNL     1       8.331   3.258  16.609  0.00  0.00    +0.000 HD
ENDBRANCH  30  32
ENDBRANCH  23  25
ENDBRANCH  20  22
ENDBRANCH  19  20
ENDBRANCH   1  19
TORSDOF 6
ENDMDL
MODEL 9
REMARK VINA RESULT:      -7.8      3.356      5.442
REMARK  Name = 
REMARK  6 active torsions:
REMARK  status: ('A' for Active; 'I' for Inactive)
REMARK    1  A    between atoms: C_2  and  C_3
REMARK    2  A    between atoms: C_3  and  C_4
REMARK    3  A    between atoms: C_4  and  C_5
REMARK    4  A    between atoms: C_6  and  C_7
REMARK    5  A    between atoms: N_22  and  C_23
REMARK    6  A    between atoms: C_28  and  O_29
REMARK                            x       y       z     vdW  Elec       q    Type
REMARK                         _______ _______ _______ _____ _____    ______ ____
ROOT
ATOM      1  C   UNL     1       2.259   7.052  18.750  0.00  0.00    +0.000 A 
ATOM      2  C   UNL     1       2.242   5.920  19.566  0.00  0.00    +0.000 A 
ATOM      3  N   UNL     1       1.683   6.308  20.765  0.00  0.00    +0.000 N 
ATOM      4  C   UNL     1       1.405   7.651  20.779  0.00  0.00    +0.000 A 
ATOM      5  C   UNL     1       0.860   8.445  21.794  0.00  0.00    +0.000 A 
ATOM      6  C   UNL     1       0.721   9.812  21.540  0.00  0.00    +0.000 A 
ATOM      7  C   UNL     1       1.109  10.349  20.316  0.00  0.00    +0.000 A 
ATOM      8 CL   UNL     1       0.948  12.043  20.045  0.00  0.00    +0.000 Cl
ATOM      9  C   UNL     1       1.630   9.538  19.302  0.00  0.00    +0.000 A 
ATOM     10  C   UNL     1       1.781   8.155  19.537  0.00  0.00    +0.000 A 
ATOM     11  H   UNL     1       1.531   5.696  21.553  0.00  0.00    +0.000 HD
ENDROOT
BRANCH   2  12
ATOM     12  C   UNL     1       2.681   4.541  19.324  0.00  0.00    +0.000 A 
ATOM     13  C   UNL     1       3.950   4.106  19.746  0.00  0.00    +0.000 A 
ATOM     14  C   UNL     1       4.408   2.823  19.458  0.00  0.00    +0.000 A 
ATOM     15  C   UNL     1       3.577   1.945  18.783  0.00  0.00    +0.000 A 
ATOM     16  F   UNL     1       4.009   0.707  18.513  0.00  0.00    +0.000 F 
ATOM     17  C   UNL     1       2.304   2.332  18.384  0.00  0.00    +0.000 A 
ATOM     18  C   UNL     1       1.861   3.628  18.644  0.00  0.00    +0.000 A 
ENDBRANCH   2  12
BRANCH   1  19
ATOM     19  C   UNL     1       2.709   7.141  17.319  0.00  0.00    +0.000 C 
BRANCH  19  20
ATOM     20  C   UNL     1       4.015   7.924  17.136  0.00  0.00    +0.000 C 
BRANCH  20  22
ATOM     21  O   UNL     1       5.678   6.559  18.212  0.00  0.00    +0.000 OA
ATOM     22  C   UNL     1       5.189   6.973  17.173  0.00  0.00    +0.000 C 
ATOM     23  N   UNL     1       5.638   6.561  15.934  0.00  0.00    +0.000 N 
ATOM     24  H   UNL     1       5.420   7.120  15.118  0.00  0.00    +0.000 HD
BRANCH  23  25
ATOM     25  C   UNL     1       6.778   5.652  15.870  0.00  0.00    +0.000 C 
ATOM     26  C   UNL     1       6.863   4.974  14.499  0.00  0.00    +0.000 C 
ATOM     27  O   UNL     1       7.078   5.523  13.432  0.00  0.00    +0.000 OA
ATOM     28  N   UNL     1       6.535   3.637  14.639  0.00  0.00    +0.000 N 
ATOM     29  C   UNL     1       6.019   3.357  15.950  0.00  0.00    +0.000 C 
ATOM     30  C   UNL     1       6.657   4.434  16.817  0.00  0.00    +0.000 C 
ATOM     31  H   UNL     1       6.392   3.059  13.818  0.00  0.00    +0.000 HD
BRANCH  30  32
ATOM     32  O   UNL     1       7.949   3.999  17.263  0.00  0.00    +0.000 OA
ATOM     33  H   UNL     1       7.919   3.900  18.232  0.00  0.00    +0.000 HD
ENDBRANCH  30  32
ENDBRANCH  23  25
ENDBRANCH  20  22
ENDBRANCH  19  20
ENDBRANCH   1  19
TORSDOF 6
ENDMDL
