MODEL 1
REMARK VINA RESULT:      -7.6      0.000      0.000
REMARK  Name = 
REMARK  7 active torsions:
REMARK  status: ('A' for Active; 'I' for Inactive)
REMARK    1  A    between atoms: C_1  and  O_2
REMARK    2  A    between atoms: O_2  and  C_3
REMARK    3  A    between atoms: C_5  and  O_6
REMARK    4  A    between atoms: O_6  and  C_7
REMARK    5  A    between atoms: C_9  and  C_10
REMARK    6  A    between atoms: C_17  and  C_18
REMARK    7  A    between atoms: N_19  and  N_20
REMARK                            x       y       z     vdW  Elec       q    Type
REMARK                         _______ _______ _______ _____ _____    ______ ____
ROOT
ATOM      1  C   UNL     1       4.130   4.341  18.296  0.00  0.00    +0.000 A 
ATOM      2  N   UNL     1       4.346   3.267  19.145  0.00  0.00    +0.000 NA
ATOM      3  C   UNL     1       3.304   3.284  19.923  0.00  0.00    +0.000 A 
ATOM      4  S   UNL     1       2.788   2.346  21.289  0.00  0.00    +0.000 S 
ATOM      5  C   UNL     1       1.408   3.439  21.473  0.00  0.00    +0.000 A 
ATOM      6  C   UNL     1       1.380   4.406  20.542  0.00  0.00    +0.000 A 
ATOM      7  N   UNL     1       2.443   4.308  19.668  0.00  0.00    +0.000 N 
ATOM      8  C   UNL     1       2.940   5.012  18.598  0.00  0.00    +0.000 A 
ENDROOT
BRANCH   1  13
ATOM      9  C   UNL     1       6.175   4.151  15.160  0.00  0.00    +0.000 A 
ATOM     10  C   UNL     1       7.048   5.227  15.345  0.00  0.00    +0.000 A 
ATOM     11  C   UNL     1       6.941   6.055  16.464  0.00  0.00    +0.000 A 
ATOM     12  C   UNL     1       5.942   5.808  17.404  0.00  0.00    +0.000 A 
ATOM     13  C   UNL     1       5.100   4.696  17.270  0.00  0.00    +0.000 A 
ATOM     14  C   UNL     1       5.203   3.890  16.127  0.00  0.00    +0.000 A 
BRANCH   9  16
ATOM     15  C   UNL     1       5.550   3.721  12.905  0.00  0.00    +0.000 C 
ATOM     16  O   UNL     1       6.384   3.425  14.020  0.00  0.00    +0.000 OA
ENDBRANCH   9  16
BRANCH  11  17
ATOM     17  O   UNL     1       7.869   7.059  16.540  0.00  0.00    +0.000 OA
ATOM     18  C   UNL     1       7.750   7.963  17.633  0.00  0.00    +0.000 C 
ENDBRANCH  11  17
ENDBRANCH   1  13
BRANCH   8  19
ATOM     19  C   UNL     1       2.333   6.172  18.012  0.00  0.00    +0.000 C 
ATOM     20  N   UNL     1       2.734   7.351  18.360  0.00  0.00    +0.000 NA
BRANCH  20  21
ATOM     21  N   UNL     1       2.063   8.403  17.807  0.00  0.00    +0.000 N 
ATOM     22  C   UNL     1       1.301   9.240  18.568  0.00  0.00    +0.000 C 
ATOM     23  N   UNL     1       1.196   9.163  19.852  0.00  0.00    +0.000 NA
ATOM     24  N   UNL     1       0.637  10.198  17.890  0.00  0.00    +0.000 N 
ATOM     25  H   UNL     1       1.777   8.369  16.831  0.00  0.00    +0.000 HD
ATOM     26  H   UNL     1       1.780   8.348  20.093  0.00  0.00    +0.000 HD
ATOM     27  H   UNL     1       1.218  10.723  17.249  0.00  0.00    +0.000 HD
ATOM     28  H   UNL     1       0.212  10.832  18.566  0.00  0.00    +0.000 HD
ENDBRANCH  20  21
ENDBRANCH   8  19
TORSDOF 5
ENDMDL
MODEL 2
REMARK VINA RESULT:      -7.6      0.345      2.496
REMARK  Name = 
REMARK  7 active torsions:
REMARK  status: ('A' for Active; 'I' for Inactive)
REMARK    1  A    between atoms: C_1  and  O_2
REMARK    2  A    between atoms: O_2  and  C_3
REMARK    3  A    between atoms: C_5  and  O_6
REMARK    4  A    between atoms: O_6  and  C_7
REMARK    5  A    between atoms: C_9  and  C_10
REMARK    6  A    between atoms: C_17  and  C_18
REMARK    7  A    between atoms: N_19  and  N_20
REMARK                            x       y       z     vdW  Elec       q    Type
REMARK                         _______ _______ _______ _____ _____    ______ ____
ROOT
ATOM      1  C   UNL     1       4.163   4.178  18.323  0.00  0.00    +0.000 A 
ATOM      2  N   UNL     1       4.353   3.110  19.186  0.00  0.00    +0.000 NA
ATOM      3  C   UNL     1       3.325   3.180  19.981  0.00  0.00    +0.000 A 
ATOM      4  S   UNL     1       2.798   2.284  21.371  0.00  0.00    +0.000 S 
ATOM      5  C   UNL     1       1.465   3.433  21.561  0.00  0.00    +0.000 A 
ATOM      6  C   UNL     1       1.457   4.385  20.614  0.00  0.00    +0.000 A 
ATOM      7  N   UNL     1       2.501   4.233  19.724  0.00  0.00    +0.000 N 
ATOM      8  C   UNL     1       3.006   4.900  18.634  0.00  0.00    +0.000 A 
ENDROOT
BRANCH   1  13
ATOM      9  C   UNL     1       6.901   5.920  16.446  0.00  0.00    +0.000 A 
ATOM     10  C   UNL     1       6.891   5.211  15.242  0.00  0.00    +0.000 A 
ATOM     11  C   UNL     1       6.033   4.126  15.052  0.00  0.00    +0.000 A 
ATOM     12  C   UNL     1       5.181   3.742  16.086  0.00  0.00    +0.000 A 
ATOM     13  C   UNL     1       5.128   4.479  17.275  0.00  0.00    +0.000 A 
ATOM     14  C   UNL     1       6.016   5.550  17.460  0.00  0.00    +0.000 A 
BRANCH   9  16
ATOM     15  C   UNL     1       7.716   7.810  17.638  0.00  0.00    +0.000 C 
ATOM     16  O   UNL     1       7.792   6.956  16.503  0.00  0.00    +0.000 OA
ENDBRANCH   9  16
BRANCH  11  17
ATOM     17  O   UNL     1       6.105   3.531  13.821  0.00  0.00    +0.000 OA
ATOM     18  C   UNL     1       6.907   4.180  12.840  0.00  0.00    +0.000 C 
ENDBRANCH  11  17
ENDBRANCH   1  13
BRANCH   8  19
ATOM     19  C   UNL     1       2.433   6.073  18.039  0.00  0.00    +0.000 C 
ATOM     20  N   UNL     1       2.911   7.238  18.331  0.00  0.00    +0.000 NA
BRANCH  20  21
ATOM     21  N   UNL     1       2.270   8.308  17.776  0.00  0.00    +0.000 N 
ATOM     22  C   UNL     1       1.473   9.125  18.521  0.00  0.00    +0.000 C 
ATOM     23  N   UNL     1       1.303   9.012  19.795  0.00  0.00    +0.000 NA
ATOM     24  N   UNL     1       0.846  10.105  17.838  0.00  0.00    +0.000 N 
ATOM     25  H   UNL     1       2.034   8.303  16.786  0.00  0.00    +0.000 HD
ATOM     26  H   UNL     1       1.872   8.188  20.042  0.00  0.00    +0.000 HD
ATOM     27  H   UNL     1       1.460  10.646  17.243  0.00  0.00    +0.000 HD
ATOM     28  H   UNL     1       0.388  10.720  18.509  0.00  0.00    +0.000 HD
ENDBRANCH  20  21
ENDBRANCH   8  19
TORSDOF 5
ENDMDL
MODEL 3
REMARK VINA RESULT:      -7.4      0.849      2.670
REMARK  Name = 
REMARK  7 active torsions:
REMARK  status: ('A' for Active; 'I' for Inactive)
REMARK    1  A    between atoms: C_1  and  O_2
REMARK    2  A    between atoms: O_2  and  C_3
REMARK    3  A    between atoms: C_5  and  O_6
REMARK    4  A    between atoms: O_6  and  C_7
REMARK    5  A    between atoms: C_9  and  C_10
REMARK    6  A    between atoms: C_17  and  C_18
REMARK    7  A    between atoms: N_19  and  N_20
REMARK                            x       y       z     vdW  Elec       q    Type
REMARK                         _______ _______ _______ _____ _____    ______ ____
ROOT
ATOM      1  C   UNL     1       4.334   4.561  18.775  0.00  0.00    +0.000 A 
ATOM      2  N   UNL     1       4.497   3.471  19.616  0.00  0.00    +0.000 NA
ATOM      3  C   UNL     1       3.315   3.313  20.135  0.00  0.00    +0.000 A 
ATOM      4  S   UNL     1       2.639   2.235  21.317  0.00  0.00    +0.000 S 
ATOM      5  C   UNL     1       1.119   3.137  21.216  0.00  0.00    +0.000 A 
ATOM      6  C   UNL     1       1.170   4.148  20.335  0.00  0.00    +0.000 A 
ATOM      7  N   UNL     1       2.404   4.237  19.724  0.00  0.00    +0.000 N 
ATOM      8  C   UNL     1       3.028   5.061  18.819  0.00  0.00    +0.000 A 
ENDROOT
BRANCH   1  13
ATOM      9  C   UNL     1       7.362   6.593  17.910  0.00  0.00    +0.000 A 
ATOM     10  C   UNL     1       7.515   6.281  16.555  0.00  0.00    +0.000 A 
ATOM     11  C   UNL     1       6.667   5.366  15.928  0.00  0.00    +0.000 A 
ATOM     12  C   UNL     1       5.662   4.748  16.669  0.00  0.00    +0.000 A 
ATOM     13  C   UNL     1       5.451   5.095  18.010  0.00  0.00    +0.000 A 
ATOM     14  C   UNL     1       6.328   5.997  18.632  0.00  0.00    +0.000 A 
BRANCH   9  16
ATOM     15  C   UNL     1       8.134   8.842  17.948  0.00  0.00    +0.000 C 
ATOM     16  O   UNL     1       8.262   7.499  18.400  0.00  0.00    +0.000 OA
ENDBRANCH   9  16
BRANCH  11  17
ATOM     17  O   UNL     1       6.906   5.165  14.595  0.00  0.00    +0.000 OA
ATOM     18  C   UNL     1       6.205   4.094  13.971  0.00  0.00    +0.000 C 
ENDBRANCH  11  17
ENDBRANCH   1  13
BRANCH   8  19
ATOM     19  C   UNL     1       2.416   6.171  18.147  0.00  0.00    +0.000 C 
ATOM     20  N   UNL     1       2.732   7.378  18.485  0.00  0.00    +0.000 NA
BRANCH  20  21
ATOM     21  N   UNL     1       2.059   8.379  17.845  0.00  0.00    +0.000 N 
ATOM     22  C   UNL     1       1.270   9.255  18.529  0.00  0.00    +0.000 C 
ATOM     23  N   UNL     1       1.137   9.268  19.812  0.00  0.00    +0.000 NA
ATOM     24  N   UNL     1       0.608  10.154  17.771  0.00  0.00    +0.000 N 
ATOM     25  H   UNL     1       1.796   8.272  16.868  0.00  0.00    +0.000 HD
ATOM     26  H   UNL     1       1.726   8.480  20.123  0.00  0.00    +0.000 HD
ATOM     27  H   UNL     1       1.196  10.641  17.107  0.00  0.00    +0.000 HD
ATOM     28  H   UNL     1       0.159  10.826  18.391  0.00  0.00    +0.000 HD
ENDBRANCH  20  21
ENDBRANCH   8  19
TORSDOF 5
ENDMDL
MODEL 4
REMARK VINA RESULT:      -7.2      1.025      1.076
REMARK  Name = 
REMARK  7 active torsions:
REMARK  status: ('A' for Active; 'I' for Inactive)
REMARK    1  A    between atoms: C_1  and  O_2
REMARK    2  A    between atoms: O_2  and  C_3
REMARK    3  A    between atoms: C_5  and  O_6
REMARK    4  A    between atoms: O_6  and  C_7
REMARK    5  A    between atoms: C_9  and  C_10
REMARK    6  A    between atoms: C_17  and  C_18
REMARK    7  A    between atoms: N_19  and  N_20
REMARK                            x       y       z     vdW  Elec       q    Type
REMARK                         _______ _______ _______ _____ _____    ______ ____
ROOT
ATOM      1  C   UNL     1       3.780   4.423  17.582  0.00  0.00    +0.000 A 
ATOM      2  N   UNL     1       3.355   3.112  17.731  0.00  0.00    +0.000 NA
ATOM      3  C   UNL     1       2.390   3.206  18.598  0.00  0.00    +0.000 A 
ATOM      4  S   UNL     1       1.352   2.064  19.392  0.00  0.00    +0.000 S 
ATOM      5  C   UNL     1       0.682   3.393  20.350  0.00  0.00    +0.000 A 
ATOM      6  C   UNL     1       1.223   4.583  20.042  0.00  0.00    +0.000 A 
ATOM      7  N   UNL     1       2.177   4.472  19.051  0.00  0.00    +0.000 N 
ATOM      8  C   UNL     1       3.055   5.301  18.396  0.00  0.00    +0.000 A 
ENDROOT
BRANCH   1  13
ATOM      9  C   UNL     1       6.156   4.269  14.687  0.00  0.00    +0.000 A 
ATOM     10  C   UNL     1       7.089   5.243  15.056  0.00  0.00    +0.000 A 
ATOM     11  C   UNL     1       6.922   5.995  16.220  0.00  0.00    +0.000 A 
ATOM     12  C   UNL     1       5.802   5.775  17.019  0.00  0.00    +0.000 A 
ATOM     13  C   UNL     1       4.891   4.760  16.703  0.00  0.00    +0.000 A 
ATOM     14  C   UNL     1       5.060   4.031  15.516  0.00  0.00    +0.000 A 
BRANCH   9  16
ATOM     15  C   UNL     1       5.388   3.523  12.564  0.00  0.00    +0.000 C 
ATOM     16  O   UNL     1       6.437   3.610  13.522  0.00  0.00    +0.000 OA
ENDBRANCH   9  16
BRANCH  11  17
ATOM     17  O   UNL     1       7.916   6.900  16.480  0.00  0.00    +0.000 OA
ATOM     18  C   UNL     1       7.670   7.843  17.519  0.00  0.00    +0.000 C 
ENDBRANCH  11  17
ENDBRANCH   1  13
BRANCH   8  19
ATOM     19  C   UNL     1       3.159   6.719  18.587  0.00  0.00    +0.000 C 
ATOM     20  N   UNL     1       2.367   7.512  17.943  0.00  0.00    +0.000 NA
BRANCH  20  21
ATOM     21  N   UNL     1       2.571   8.849  18.130  0.00  0.00    +0.000 N 
ATOM     22  C   UNL     1       1.575   9.757  17.922  0.00  0.00    +0.000 C 
ATOM     23  N   UNL     1       0.363   9.447  17.605  0.00  0.00    +0.000 NA
ATOM     24  N   UNL     1       1.926  11.050  18.075  0.00  0.00    +0.000 N 
ATOM     25  H   UNL     1       3.505   9.242  18.028  0.00  0.00    +0.000 HD
ATOM     26  H   UNL     1       0.386   8.418  17.538  0.00  0.00    +0.000 HD
ATOM     27  H   UNL     1       2.412  11.241  18.942  0.00  0.00    +0.000 HD
ATOM     28  H   UNL     1       1.082  11.618  18.022  0.00  0.00    +0.000 HD
ENDBRANCH  20  21
ENDBRANCH   8  19
TORSDOF 5
ENDMDL
MODEL 5
REMARK VINA RESULT:      -7.1      1.048      2.685
REMARK  Name = 
REMARK  7 active torsions:
REMARK  status: ('A' for Active; 'I' for Inactive)
REMARK    1  A    between atoms: C_1  and  O_2
REMARK    2  A    between atoms: O_2  and  C_3
REMARK    3  A    between atoms: C_5  and  O_6
REMARK    4  A    between atoms: O_6  and  C_7
REMARK    5  A    between atoms: C_9  and  C_10
REMARK    6  A    between atoms: C_17  and  C_18
REMARK    7  A    between atoms: N_19  and  N_20
REMARK                            x       y       z     vdW  Elec       q    Type
REMARK                         _______ _______ _______ _____ _____    ______ ____
ROOT
ATOM      1  C   UNL     1       3.815   4.313  17.659  0.00  0.00    +0.000 A 
ATOM      2  N   UNL     1       3.351   3.028  17.894  0.00  0.00    +0.000 NA
ATOM      3  C   UNL     1       2.398   3.207  18.762  0.00  0.00    +0.000 A 
ATOM      4  S   UNL     1       1.334   2.150  19.635  0.00  0.00    +0.000 S 
ATOM      5  C   UNL     1       0.716   3.558  20.513  0.00  0.00    +0.000 A 
ATOM      6  C   UNL     1       1.291   4.708  20.127  0.00  0.00    +0.000 A 
ATOM      7  N   UNL     1       2.230   4.505  19.136  0.00  0.00    +0.000 N 
ATOM      8  C   UNL     1       3.127   5.263  18.422  0.00  0.00    +0.000 A 
ENDROOT
BRANCH   1  13
ATOM      9  C   UNL     1       6.915   5.847  16.215  0.00  0.00    +0.000 A 
ATOM     10  C   UNL     1       6.989   5.190  14.983  0.00  0.00    +0.000 A 
ATOM     11  C   UNL     1       6.062   4.204  14.637  0.00  0.00    +0.000 A 
ATOM     12  C   UNL     1       5.057   3.866  15.540  0.00  0.00    +0.000 A 
ATOM     13  C   UNL     1       4.926   4.558  16.751  0.00  0.00    +0.000 A 
ATOM     14  C   UNL     1       5.881   5.527  17.095  0.00  0.00    +0.000 A 
BRANCH   9  16
ATOM     15  C   UNL     1       7.664   7.711  17.488  0.00  0.00    +0.000 C 
ATOM     16  O   UNL     1       7.886   6.785  16.430  0.00  0.00    +0.000 OA
ENDBRANCH   9  16
BRANCH  11  17
ATOM     17  O   UNL     1       6.230   3.654  13.394  0.00  0.00    +0.000 OA
ATOM     18  C   UNL     1       7.053   4.371  12.481  0.00  0.00    +0.000 C 
ENDBRANCH  11  17
ENDBRANCH   1  13
BRANCH   8  19
ATOM     19  C   UNL     1       3.277   6.686  18.522  0.00  0.00    +0.000 C 
ATOM     20  N   UNL     1       2.450   7.463  17.902  0.00  0.00    +0.000 NA
BRANCH  20  21
ATOM     21  N   UNL     1       2.698   8.802  17.994  0.00  0.00    +0.000 N 
ATOM     22  C   UNL     1       1.700   9.721  17.861  0.00  0.00    +0.000 C 
ATOM     23  N   UNL     1       0.453   9.424  17.708  0.00  0.00    +0.000 NA
ATOM     24  N   UNL     1       2.088  11.012  17.905  0.00  0.00    +0.000 N 
ATOM     25  H   UNL     1       3.619   9.168  17.762  0.00  0.00    +0.000 HD
ATOM     26  H   UNL     1       0.451   8.393  17.692  0.00  0.00    +0.000 HD
ATOM     27  H   UNL     1       2.680  11.234  18.696  0.00  0.00    +0.000 HD
ATOM     28  H   UNL     1       1.254  11.596  17.925  0.00  0.00    +0.000 HD
ENDBRANCH  20  21
ENDBRANCH   8  19
TORSDOF 5
ENDMDL
MODEL 6
REMARK VINA RESULT:      -6.8      2.655      5.048
REMARK  Name = 
REMARK  7 active torsions:
REMARK  status: ('A' for Active; 'I' for Inactive)
REMARK    1  A    between atoms: C_1  and  O_2
REMARK    2  A    between atoms: O_2  and  C_3
REMARK    3  A    between atoms: C_5  and  O_6
REMARK    4  A    between atoms: O_6  and  C_7
REMARK    5  A    between atoms: C_9  and  C_10
REMARK    6  A    between atoms: C_17  and  C_18
REMARK    7  A    between atoms: N_19  and  N_20
REMARK                            x       y       z     vdW  Elec       q    Type
REMARK                         _______ _______ _______ _____ _____    ______ ____
ROOT
ATOM      1  C   UNL     1       2.539   7.439  18.505  0.00  0.00    +0.000 A 
ATOM      2  N   UNL     1       2.347   8.666  17.889  0.00  0.00    +0.000 NA
ATOM      3  C   UNL     1       1.672   9.343  18.772  0.00  0.00    +0.000 A 
ATOM      4  S   UNL     1       0.969  10.930  18.811  0.00  0.00    +0.000 S 
ATOM      5  C   UNL     1       0.267  10.539  20.388  0.00  0.00    +0.000 A 
ATOM      6  C   UNL     1       0.583   9.304  20.810  0.00  0.00    +0.000 A 
ATOM      7  N   UNL     1       1.380   8.640  19.900  0.00  0.00    +0.000 N 
ATOM      8  C   UNL     1       1.946   7.394  19.772  0.00  0.00    +0.000 A 
ENDROOT
BRANCH   1  13
ATOM      9  C   UNL     1       3.318   4.008  17.212  0.00  0.00    +0.000 A 
ATOM     10  C   UNL     1       4.598   4.205  16.687  0.00  0.00    +0.000 A 
ATOM     11  C   UNL     1       5.195   5.468  16.701  0.00  0.00    +0.000 A 
ATOM     12  C   UNL     1       4.495   6.547  17.237  0.00  0.00    +0.000 A 
ATOM     13  C   UNL     1       3.239   6.358  17.827  0.00  0.00    +0.000 A 
ATOM     14  C   UNL     1       2.643   5.088  17.783  0.00  0.00    +0.000 A 
BRANCH   9  16
ATOM     15  C   UNL     1       3.393   1.782  18.048  0.00  0.00    +0.000 C 
ATOM     16  O   UNL     1       2.849   2.726  17.131  0.00  0.00    +0.000 OA
ENDBRANCH   9  16
BRANCH  11  17
ATOM     17  O   UNL     1       6.459   5.524  16.177  0.00  0.00    +0.000 OA
ATOM     18  C   UNL     1       6.779   4.570  15.170  0.00  0.00    +0.000 C 
ENDBRANCH  11  17
ENDBRANCH   1  13
BRANCH   8  19
ATOM     19  C   UNL     1       1.870   6.343  20.745  0.00  0.00    +0.000 C 
ATOM     20  N   UNL     1       2.497   5.232  20.539  0.00  0.00    +0.000 NA
BRANCH  20  21
ATOM     21  N   UNL     1       2.323   4.258  21.479  0.00  0.00    +0.000 N 
ATOM     22  C   UNL     1       1.440   3.236  21.290  0.00  0.00    +0.000 C 
ATOM     23  N   UNL     1       0.755   3.057  20.211  0.00  0.00    +0.000 NA
ATOM     24  N   UNL     1       1.314   2.379  22.323  0.00  0.00    +0.000 N 
ATOM     25  H   UNL     1       2.509   4.457  22.460  0.00  0.00    +0.000 HD
ATOM     26  H   UNL     1       1.031   3.852  19.615  0.00  0.00    +0.000 HD
ATOM     27  H   UNL     1       2.196   2.032  22.677  0.00  0.00    +0.000 HD
ATOM     28  H   UNL     1       0.733   1.597  22.021  0.00  0.00    +0.000 HD
ENDBRANCH  20  21
ENDBRANCH   8  19
TORSDOF 5
ENDMDL
MODEL 7
REMARK VINA RESULT:      -6.8      2.610      4.866
REMARK  Name = 
REMARK  7 active torsions:
REMARK  status: ('A' for Active; 'I' for Inactive)
REMARK    1  A    between atoms: C_1  and  O_2
REMARK    2  A    between atoms: O_2  and  C_3
REMARK    3  A    between atoms: C_5  and  O_6
REMARK    4  A    between atoms: O_6  and  C_7
REMARK    5  A    between atoms: C_9  and  C_10
REMARK    6  A    between atoms: C_17  and  C_18
REMARK    7  A    between atoms: N_19  and  N_20
REMARK                            x       y       z     vdW  Elec       q    Type
REMARK                         _______ _______ _______ _____ _____    ______ ____
ROOT
ATOM      1  C   UNL     1       2.674   7.872  18.366  0.00  0.00    +0.000 A 
ATOM      2  N   UNL     1       2.206   9.013  17.733  0.00  0.00    +0.000 NA
ATOM      3  C   UNL     1       1.324   9.479  18.568  0.00  0.00    +0.000 A 
ATOM      4  S   UNL     1       0.228  10.825  18.556  0.00  0.00    +0.000 S 
ATOM      5  C   UNL     1      -0.445  10.245  20.087  0.00  0.00    +0.000 A 
ATOM      6  C   UNL     1       0.157   9.130  20.533  0.00  0.00    +0.000 A 
ATOM      7  N   UNL     1       1.156   8.710  19.679  0.00  0.00    +0.000 N 
ATOM      8  C   UNL     1       2.036   7.657  19.593  0.00  0.00    +0.000 A 
ENDROOT
BRANCH   1  13
ATOM      9  C   UNL     1       4.317   4.809  16.963  0.00  0.00    +0.000 A 
ATOM     10  C   UNL     1       5.599   5.295  16.690  0.00  0.00    +0.000 A 
ATOM     11  C   UNL     1       5.922   6.636  16.909  0.00  0.00    +0.000 A 
ATOM     12  C   UNL     1       4.945   7.502  17.398  0.00  0.00    +0.000 A 
ATOM     13  C   UNL     1       3.675   7.020  17.739  0.00  0.00    +0.000 A 
ATOM     14  C   UNL     1       3.359   5.676  17.488  0.00  0.00    +0.000 A 
BRANCH   9  16
ATOM     15  C   UNL     1       3.592   2.683  17.747  0.00  0.00    +0.000 C 
ATOM     16  O   UNL     1       4.133   3.480  16.698  0.00  0.00    +0.000 OA
ENDBRANCH   9  16
BRANCH  11  17
ATOM     17  O   UNL     1       7.216   6.981  16.624  0.00  0.00    +0.000 OA
ATOM     18  C   UNL     1       7.825   7.945  17.476  0.00  0.00    +0.000 C 
ENDBRANCH  11  17
ENDBRANCH   1  13
BRANCH   8  19
ATOM     19  C   UNL     1       2.177   6.611  20.564  0.00  0.00    +0.000 C 
ATOM     20  N   UNL     1       1.781   5.414  20.278  0.00  0.00    +0.000 NA
BRANCH  20  21
ATOM     21  N   UNL     1       1.889   4.489  21.277  0.00  0.00    +0.000 N 
ATOM     22  C   UNL     1       1.334   3.250  21.161  0.00  0.00    +0.000 C 
ATOM     23  N   UNL     1       0.729   2.818  20.106  0.00  0.00    +0.000 NA
ATOM     24  N   UNL     1       1.455   2.456  22.245  0.00  0.00    +0.000 N 
ATOM     25  H   UNL     1       2.010   4.792  22.241  0.00  0.00    +0.000 HD
ATOM     26  H   UNL     1       0.768   3.622  19.460  0.00  0.00    +0.000 HD
ATOM     27  H   UNL     1       2.399   2.396  22.604  0.00  0.00    +0.000 HD
ATOM     28  H   UNL     1       1.121   1.525  21.998  0.00  0.00    +0.000 HD
ENDBRANCH  20  21
ENDBRANCH   8  19
TORSDOF 5
ENDMDL
MODEL 8
REMARK VINA RESULT:      -6.7      3.859      7.122
REMARK  Name = 
REMARK  7 active torsions:
REMARK  status: ('A' for Active; 'I' for Inactive)
REMARK    1  A    between atoms: C_1  and  O_2
REMARK    2  A    between atoms: O_2  and  C_3
REMARK    3  A    between atoms: C_5  and  O_6
REMARK    4  A    between atoms: O_6  and  C_7
REMARK    5  A    between atoms: C_9  and  C_10
REMARK    6  A    between atoms: C_17  and  C_18
REMARK    7  A    between atoms: N_19  and  N_20
REMARK                            x       y       z     vdW  Elec       q    Type
REMARK                         _______ _______ _______ _____ _____    ______ ____
ROOT
ATOM      1  C   UNL     1       2.676   7.313  18.599  0.00  0.00    +0.000 A 
ATOM      2  N   UNL     1       3.531   7.635  17.557  0.00  0.00    +0.000 NA
ATOM      3  C   UNL     1       4.147   6.514  17.317  0.00  0.00    +0.000 A 
ATOM      4  S   UNL     1       5.407   6.027  16.227  0.00  0.00    +0.000 S 
ATOM      5  C   UNL     1       5.403   4.431  16.994  0.00  0.00    +0.000 A 
ATOM      6  C   UNL     1       4.493   4.326  17.976  0.00  0.00    +0.000 A 
ATOM      7  N   UNL     1       3.784   5.497  18.146  0.00  0.00    +0.000 N 
ATOM      8  C   UNL     1       2.810   5.976  18.989  0.00  0.00    +0.000 A 
ENDROOT
BRANCH   1  13
ATOM      9  C   UNL     1       0.301  10.198  18.896  0.00  0.00    +0.000 A 
ATOM     10  C   UNL     1       0.259  10.368  20.282  0.00  0.00    +0.000 A 
ATOM     11  C   UNL     1       0.960   9.510  21.134  0.00  0.00    +0.000 A 
ATOM     12  C   UNL     1       1.702   8.465  20.589  0.00  0.00    +0.000 A 
ATOM     13  C   UNL     1       1.810   8.318  19.200  0.00  0.00    +0.000 A 
ATOM     14  C   UNL     1       1.079   9.171  18.360  0.00  0.00    +0.000 A 
BRANCH   9  16
ATOM     15  C   UNL     1      -1.805  11.244  18.535  0.00  0.00    +0.000 C 
ATOM     16  O   UNL     1      -0.434  11.101  18.179  0.00  0.00    +0.000 OA
ENDBRANCH   9  16
BRANCH  11  17
ATOM     17  O   UNL     1       0.856   9.797  22.468  0.00  0.00    +0.000 OA
ATOM     18  C   UNL     1      -0.411   9.571  23.077  0.00  0.00    +0.000 C 
ENDBRANCH  11  17
ENDBRANCH   1  13
BRANCH   8  19
ATOM     19  C   UNL     1       2.159   5.220  20.020  0.00  0.00    +0.000 C 
ATOM     20  N   UNL     1       1.545   4.123  19.721  0.00  0.00    +0.000 NA
BRANCH  20  21
ATOM     21  N   UNL     1       0.896   3.497  20.746  0.00  0.00    +0.000 N 
ATOM     22  C   UNL     1       1.574   2.762  21.673  0.00  0.00    +0.000 C 
ATOM     23  N   UNL     1       2.859   2.646  21.712  0.00  0.00    +0.000 NA
ATOM     24  N   UNL     1       0.809   2.139  22.593  0.00  0.00    +0.000 N 
ATOM     25  H   UNL     1      -0.076   3.216  20.638  0.00  0.00    +0.000 HD
ATOM     26  H   UNL     1       3.176   3.196  20.899  0.00  0.00    +0.000 HD
ATOM     27  H   UNL     1       0.131   2.745  23.038  0.00  0.00    +0.000 HD
ATOM     28  H   UNL     1       1.423   1.734  23.298  0.00  0.00    +0.000 HD
ENDBRANCH  20  21
ENDBRANCH   8  19
TORSDOF 5
ENDMDL
MODEL 9
REMARK VINA RESULT:      -6.7      2.588      5.160
REMARK  Name = 
REMARK  7 active torsions:
REMARK  status: ('A' for Active; 'I' for Inactive)
REMARK    1  A    between atoms: C_1  and  O_2
REMARK    2  A    between atoms: O_2  and  C_3
REMARK    3  A    between atoms: C_5  and  O_6
REMARK    4  A    between atoms: O_6  and  C_7
REMARK    5  A    between atoms: C_9  and  C_10
REMARK    6  A    between atoms: C_17  and  C_18
REMARK    7  A    between atoms: N_19  and  N_20
REMARK                            x       y       z     vdW  Elec       q    Type
REMARK                         _______ _______ _______ _____ _____    ______ ____
ROOT
ATOM      1  C   UNL     1       2.711   7.437  18.309  0.00  0.00    +0.000 A 
ATOM      2  N   UNL     1       2.448   8.620  17.635  0.00  0.00    +0.000 NA
ATOM      3  C   UNL     1       1.727   9.294  18.482  0.00  0.00    +0.000 A 
ATOM      4  S   UNL     1       0.928  10.835  18.443  0.00  0.00    +0.000 S 
ATOM      5  C   UNL     1       0.238  10.476  20.033  0.00  0.00    +0.000 A 
ATOM      6  C   UNL     1       0.626   9.284  20.514  0.00  0.00    +0.000 A 
ATOM      7  N   UNL     1       1.470   8.628  19.641  0.00  0.00    +0.000 N 
ATOM      8  C   UNL     1       2.112   7.415  19.574  0.00  0.00    +0.000 A 
ENDROOT
BRANCH   1  13
ATOM      9  C   UNL     1       5.380   5.717  16.318  0.00  0.00    +0.000 A 
ATOM     10  C   UNL     1       4.917   4.398  16.334  0.00  0.00    +0.000 A 
ATOM     11  C   UNL     1       3.763   4.050  17.040  0.00  0.00    +0.000 A 
ATOM     12  C   UNL     1       3.072   5.033  17.744  0.00  0.00    +0.000 A 
ATOM     13  C   UNL     1       3.481   6.371  17.687  0.00  0.00    +0.000 A 
ATOM     14  C   UNL     1       4.657   6.700  16.995  0.00  0.00    +0.000 A 
BRANCH   9  16
ATOM     15  C   UNL     1       6.938   4.865  14.735  0.00  0.00    +0.000 C 
ATOM     16  O   UNL     1       6.523   5.921  15.595  0.00  0.00    +0.000 OA
ENDBRANCH   9  16
BRANCH  11  17
ATOM     17  O   UNL     1       3.403   2.731  16.958  0.00  0.00    +0.000 OA
ATOM     18  C   UNL     1       3.421   1.985  18.170  0.00  0.00    +0.000 C 
ENDBRANCH  11  17
ENDBRANCH   1  13
BRANCH   8  19
ATOM     19  C   UNL     1       2.093   6.408  20.595  0.00  0.00    +0.000 C 
ATOM     20  N   UNL     1       2.381   5.184  20.294  0.00  0.00    +0.000 NA
BRANCH  20  21
ATOM     21  N   UNL     1       2.278   4.274  21.306  0.00  0.00    +0.000 N 
ATOM     22  C   UNL     1       1.388   3.243  21.248  0.00  0.00    +0.000 C 
ATOM     23  N   UNL     1       0.628   2.994  20.235  0.00  0.00    +0.000 NA
ATOM     24  N   UNL     1       1.339   2.455  22.342  0.00  0.00    +0.000 N 
ATOM     25  H   UNL     1       2.532   4.537  22.256  0.00  0.00    +0.000 HD
ATOM     26  H   UNL     1       0.858   3.748  19.570  0.00  0.00    +0.000 HD
ATOM     27  H   UNL     1       2.245   2.132  22.653  0.00  0.00    +0.000 HD
ATOM     28  H   UNL     1       0.741   1.657  22.134  0.00  0.00    +0.000 HD
ENDBRANCH  20  21
ENDBRANCH   8  19
TORSDOF 5
ENDMDL
