MODEL 1
REMARK VINA RESULT:      -8.7      0.000      0.000
REMARK  Name = 
REMARK  8 active torsions:
REMARK  status: ('A' for Active; 'I' for Inactive)
REMARK    1  A    between atoms: C_1  and  O_2
REMARK    2  A    between atoms: O_2  and  C_3
REMARK    3  A    between atoms: C_6  and  C_7
REMARK    4  A    between atoms: C_12  and  C_13
REMARK    5  A    between atoms: C_14  and  C_15
REMARK    6  A    between atoms: N_17  and  C_18
REMARK    7  A    between atoms: C_21  and  C_22
REMARK    8  A    between atoms: C_22  and  N_23
REMARK                            x       y       z     vdW  Elec       q    Type
REMARK                         _______ _______ _______ _____ _____    ______ ____
ROOT
ATOM      1  C   UNL     1       2.104   8.786  18.189  0.00  0.00    +0.000 C 
ATOM      2  O   UNL     1       1.969   9.844  17.588  0.00  0.00    +0.000 OA
ATOM      3  N   UNL     1       1.758   8.520  19.497  0.00  0.00    +0.000 N 
ATOM      4  H   UNL     1       1.968   7.598  19.858  0.00  0.00    +0.000 HD
ENDROOT
BRANCH   3   5
ATOM      5  C   UNL     1       1.018   9.355  20.365  0.00  0.00    +0.000 A 
ATOM      6  C   UNL     1       0.274  10.458  19.943  0.00  0.00    +0.000 A 
ATOM      7  C   UNL     1      -0.561  11.140  20.837  0.00  0.00    +0.000 A 
ATOM      8  C   UNL     1      -0.672  10.729  22.169  0.00  0.00    +0.000 A 
ATOM      9  C   UNL     1       0.159   9.693  22.615  0.00  0.00    +0.000 A 
ATOM     10  C   UNL     1       0.987   9.007  21.720  0.00  0.00    +0.000 A 
BRANCH   8  11
ATOM     11  C   UNL     1      -1.672  11.372  23.102  0.00  0.00    +0.000 C 
BRANCH  11  12
ATOM     12  N   UNL     1      -2.278  12.637  22.681  0.00  0.00    +0.000 NA
ATOM     13  C   UNL     1      -1.907  13.845  23.427  0.00  0.00    +0.000 C 
ATOM     14  C   UNL     1      -2.870  14.254  24.563  0.00  0.00    +0.000 C 
ATOM     15  O   UNL     1      -4.237  14.264  24.136  0.00  0.00    +0.000 OA
ATOM     16  C   UNL     1      -4.607  12.985  23.610  0.00  0.00    +0.000 C 
ATOM     17  C   UNL     1      -3.722  12.610  22.413  0.00  0.00    +0.000 C 
ENDBRANCH  11  12
ENDBRANCH   8  11
ENDBRANCH   3   5
BRANCH   1  19
ATOM     18  C   UNL     1       3.944   7.243  17.734  0.00  0.00    +0.000 C 
ATOM     19  C   UNL     1       2.668   7.588  17.499  0.00  0.00    +0.000 C 
BRANCH  18  25
ATOM     20  C   UNL     1       4.216   4.782  17.102  0.00  0.00    +0.000 A 
ATOM     21  C   UNL     1       4.983   3.850  16.380  0.00  0.00    +0.000 A 
ATOM     22  C   UNL     1       6.063   4.286  15.627  0.00  0.00    +0.000 A 
ATOM     23  N   UNL     1       6.449   5.572  15.545  0.00  0.00    +0.000 NA
ATOM     24  C   UNL     1       5.719   6.460  16.257  0.00  0.00    +0.000 A 
ATOM     25  C   UNL     1       4.611   6.134  17.043  0.00  0.00    +0.000 A 
BRANCH  20  29
ATOM     26  C   UNL     1       1.572   3.587  19.777  0.00  0.00    +0.000 A 
ATOM     27  C   UNL     1       0.982   3.434  18.539  0.00  0.00    +0.000 A 
ATOM     28  C   UNL     1       1.809   3.882  17.470  0.00  0.00    +0.000 A 
ATOM     29  C   UNL     1       3.048   4.329  17.894  0.00  0.00    +0.000 A 
ATOM     30  S   UNL     1       3.128   4.281  19.613  0.00  0.00    +0.000 S 
BRANCH  26  32
ATOM     31  C   UNL     1       2.069   2.676  21.880  0.00  0.00    +0.000 C 
ATOM     32  O   UNL     1       1.131   3.291  21.006  0.00  0.00    +0.000 OA
ENDBRANCH  26  32
ENDBRANCH  20  29
ENDBRANCH  18  25
ENDBRANCH   1  19
TORSDOF 7
ENDMDL
MODEL 2
REMARK VINA RESULT:      -8.5      1.234      1.719
REMARK  Name = 
REMARK  8 active torsions:
REMARK  status: ('A' for Active; 'I' for Inactive)
REMARK    1  A    between atoms: C_1  and  O_2
REMARK    2  A    between atoms: O_2  and  C_3
REMARK    3  A    between atoms: C_6  and  C_7
REMARK    4  A    between atoms: C_12  and  C_13
REMARK    5  A    between atoms: C_14  and  C_15
REMARK    6  A    between atoms: N_17  and  C_18
REMARK    7  A    between atoms: C_21  and  C_22
REMARK    8  A    between atoms: C_22  and  N_23
REMARK                            x       y       z     vdW  Elec       q    Type
REMARK                         _______ _______ _______ _____ _____    ______ ____
ROOT
ATOM      1  C   UNL     1       2.197   8.721  18.105  0.00  0.00    +0.000 C 
ATOM      2  O   UNL     1       2.010   9.825  17.608  0.00  0.00    +0.000 OA
ATOM      3  N   UNL     1       1.837   8.304  19.369  0.00  0.00    +0.000 N 
ATOM      4  H   UNL     1       2.096   7.365  19.642  0.00  0.00    +0.000 HD
ENDROOT
BRANCH   3   5
ATOM      5  C   UNL     1       1.024   9.000  20.293  0.00  0.00    +0.000 A 
ATOM      6  C   UNL     1       1.186   8.938  21.678  0.00  0.00    +0.000 A 
ATOM      7  C   UNL     1       0.448   9.778  22.522  0.00  0.00    +0.000 A 
ATOM      8  C   UNL     1      -0.462  10.700  21.996  0.00  0.00    +0.000 A 
ATOM      9  C   UNL     1      -0.703  10.681  20.616  0.00  0.00    +0.000 A 
ATOM     10  C   UNL     1       0.040   9.848  19.773  0.00  0.00    +0.000 A 
BRANCH   8  11
ATOM     11  C   UNL     1      -1.158  11.702  22.887  0.00  0.00    +0.000 C 
BRANCH  11  12
ATOM     12  N   UNL     1      -0.536  13.019  23.044  0.00  0.00    +0.000 NA
ATOM     13  C   UNL     1      -1.311  14.051  23.743  0.00  0.00    +0.000 C 
ATOM     14  C   UNL     1      -2.116  15.011  22.840  0.00  0.00    +0.000 C 
ATOM     15  O   UNL     1      -1.324  15.541  21.771  0.00  0.00    +0.000 OA
ATOM     16  C   UNL     1      -0.764  14.480  20.989  0.00  0.00    +0.000 C 
ATOM     17  C   UNL     1       0.123  13.574  21.854  0.00  0.00    +0.000 C 
ENDBRANCH  11  12
ENDBRANCH   8  11
ENDBRANCH   3   5
BRANCH   1  19
ATOM     18  C   UNL     1       3.974   7.072  17.794  0.00  0.00    +0.000 C 
ATOM     19  C   UNL     1       2.852   7.635  17.317  0.00  0.00    +0.000 C 
BRANCH  18  25
ATOM     20  C   UNL     1       4.453   4.676  17.043  0.00  0.00    +0.000 A 
ATOM     21  C   UNL     1       5.298   3.849  16.283  0.00  0.00    +0.000 A 
ATOM     22  C   UNL     1       6.341   4.410  15.561  0.00  0.00    +0.000 A 
ATOM     23  N   UNL     1       6.618   5.727  15.546  0.00  0.00    +0.000 NA
ATOM     24  C   UNL     1       5.814   6.514  16.294  0.00  0.00    +0.000 A 
ATOM     25  C   UNL     1       4.734   6.058  17.054  0.00  0.00    +0.000 A 
BRANCH  20  29
ATOM     26  C   UNL     1       1.969   2.856  19.512  0.00  0.00    +0.000 A 
ATOM     27  C   UNL     1       1.225   3.251  18.419  0.00  0.00    +0.000 A 
ATOM     28  C   UNL     1       1.989   3.977  17.460  0.00  0.00    +0.000 A 
ATOM     29  C   UNL     1       3.324   4.089  17.804  0.00  0.00    +0.000 A 
ATOM     30  S   UNL     1       3.590   3.384  19.352  0.00  0.00    +0.000 S 
BRANCH  26  32
ATOM     31  C   UNL     1       1.780   2.843  21.849  0.00  0.00    +0.000 C 
ATOM     32  O   UNL     1       1.629   2.167  20.608  0.00  0.00    +0.000 OA
ENDBRANCH  26  32
ENDBRANCH  20  29
ENDBRANCH  18  25
ENDBRANCH   1  19
TORSDOF 7
ENDMDL
MODEL 3
REMARK VINA RESULT:      -8.5      2.339      3.849
REMARK  Name = 
REMARK  8 active torsions:
REMARK  status: ('A' for Active; 'I' for Inactive)
REMARK    1  A    between atoms: C_1  and  O_2
REMARK    2  A    between atoms: O_2  and  C_3
REMARK    3  A    between atoms: C_6  and  C_7
REMARK    4  A    between atoms: C_12  and  C_13
REMARK    5  A    between atoms: C_14  and  C_15
REMARK    6  A    between atoms: N_17  and  C_18
REMARK    7  A    between atoms: C_21  and  C_22
REMARK    8  A    between atoms: C_22  and  N_23
REMARK                            x       y       z     vdW  Elec       q    Type
REMARK                         _______ _______ _______ _____ _____    ______ ____
ROOT
ATOM      1  C   UNL     1       1.735   7.952  20.022  0.00  0.00    +0.000 C 
ATOM      2  O   UNL     1       1.972   8.816  19.186  0.00  0.00    +0.000 OA
ATOM      3  N   UNL     1       1.047   8.107  21.207  0.00  0.00    +0.000 N 
ATOM      4  H   UNL     1       0.967   7.298  21.810  0.00  0.00    +0.000 HD
ENDROOT
BRANCH   3   5
ATOM      5  C   UNL     1       0.322   9.246  21.625  0.00  0.00    +0.000 A 
ATOM      6  C   UNL     1      -0.418   9.311  22.808  0.00  0.00    +0.000 A 
ATOM      7  C   UNL     1      -0.978  10.522  23.234  0.00  0.00    +0.000 A 
ATOM      8  C   UNL     1      -0.805  11.692  22.488  0.00  0.00    +0.000 A 
ATOM      9  C   UNL     1      -0.159  11.600  21.249  0.00  0.00    +0.000 A 
ATOM     10  C   UNL     1       0.408  10.392  20.827  0.00  0.00    +0.000 A 
BRANCH   8  11
ATOM     11  C   UNL     1      -1.287  13.026  23.010  0.00  0.00    +0.000 C 
BRANCH  11  12
ATOM     12  N   UNL     1      -2.472  13.613  22.380  0.00  0.00    +0.000 NA
ATOM     13  C   UNL     1      -2.811  14.996  22.738  0.00  0.00    +0.000 C 
ATOM     14  C   UNL     1      -3.853  15.160  23.865  0.00  0.00    +0.000 C 
ATOM     15  O   UNL     1      -5.010  14.342  23.656  0.00  0.00    +0.000 OA
ATOM     16  C   UNL     1      -4.634  12.966  23.527  0.00  0.00    +0.000 C 
ATOM     17  C   UNL     1      -3.675  12.771  22.344  0.00  0.00    +0.000 C 
ENDBRANCH  11  12
ENDBRANCH   8  11
ENDBRANCH   3   5
BRANCH   1  19
ATOM     18  C   UNL     1       2.303   6.089  18.546  0.00  0.00    +0.000 C 
ATOM     19  C   UNL     1       2.175   6.543  19.804  0.00  0.00    +0.000 C 
BRANCH  18  25
ATOM     20  C   UNL     1       3.957   4.208  18.035  0.00  0.00    +0.000 A 
ATOM     21  C   UNL     1       4.099   2.844  17.730  0.00  0.00    +0.000 A 
ATOM     22  C   UNL     1       2.974   2.034  17.662  0.00  0.00    +0.000 A 
ATOM     23  N   UNL     1       1.719   2.477  17.860  0.00  0.00    +0.000 NA
ATOM     24  C   UNL     1       1.589   3.794  18.134  0.00  0.00    +0.000 A 
ATOM     25  C   UNL     1       2.649   4.699  18.232  0.00  0.00    +0.000 A 
BRANCH  20  29
ATOM     26  C   UNL     1       6.974   6.715  17.600  0.00  0.00    +0.000 A 
ATOM     27  C   UNL     1       7.195   6.027  18.775  0.00  0.00    +0.000 A 
ATOM     28  C   UNL     1       6.147   5.116  19.092  0.00  0.00    +0.000 A 
ATOM     29  C   UNL     1       5.153   5.078  18.129  0.00  0.00    +0.000 A 
ATOM     30  S   UNL     1       5.483   6.241  16.904  0.00  0.00    +0.000 S 
BRANCH  26  32
ATOM     31  C   UNL     1       8.040   8.801  17.719  0.00  0.00    +0.000 C 
ATOM     32  O   UNL     1       7.707   7.641  16.968  0.00  0.00    +0.000 OA
ENDBRANCH  26  32
ENDBRANCH  20  29
ENDBRANCH  18  25
ENDBRANCH   1  19
TORSDOF 7
ENDMDL
MODEL 4
REMARK VINA RESULT:      -8.5      2.379      3.879
REMARK  Name = 
REMARK  8 active torsions:
REMARK  status: ('A' for Active; 'I' for Inactive)
REMARK    1  A    between atoms: C_1  and  O_2
REMARK    2  A    between atoms: O_2  and  C_3
REMARK    3  A    between atoms: C_6  and  C_7
REMARK    4  A    between atoms: C_12  and  C_13
REMARK    5  A    between atoms: C_14  and  C_15
REMARK    6  A    between atoms: N_17  and  C_18
REMARK    7  A    between atoms: C_21  and  C_22
REMARK    8  A    between atoms: C_22  and  N_23
REMARK                            x       y       z     vdW  Elec       q    Type
REMARK                         _______ _______ _______ _____ _____    ______ ____
ROOT
ATOM      1  C   UNL     1       2.031   8.293  18.596  0.00  0.00    +0.000 C 
ATOM      2  O   UNL     1       2.317   8.808  17.522  0.00  0.00    +0.000 OA
ATOM      3  N   UNL     1       1.333   8.869  19.637  0.00  0.00    +0.000 N 
ATOM      4  H   UNL     1       1.209   8.318  20.477  0.00  0.00    +0.000 HD
ENDROOT
BRANCH   3   5
ATOM      5  C   UNL     1       0.651  10.107  19.620  0.00  0.00    +0.000 A 
ATOM      6  C   UNL     1      -0.685  10.258  19.244  0.00  0.00    +0.000 A 
ATOM      7  C   UNL     1      -1.337  11.487  19.405  0.00  0.00    +0.000 A 
ATOM      8  C   UNL     1      -0.667  12.587  19.949  0.00  0.00    +0.000 A 
ATOM      9  C   UNL     1       0.702  12.463  20.220  0.00  0.00    +0.000 A 
ATOM     10  C   UNL     1       1.351  11.233  20.067  0.00  0.00    +0.000 A 
BRANCH   8  11
ATOM     11  C   UNL     1      -1.401  13.873  20.253  0.00  0.00    +0.000 C 
BRANCH  11  12
ATOM     12  N   UNL     1      -1.961  14.034  21.597  0.00  0.00    +0.000 NA
ATOM     13  C   UNL     1      -1.388  13.212  22.669  0.00  0.00    +0.000 C 
ATOM     14  C   UNL     1      -2.136  11.897  22.978  0.00  0.00    +0.000 C 
ATOM     15  O   UNL     1      -3.547  12.099  23.127  0.00  0.00    +0.000 OA
ATOM     16  C   UNL     1      -4.091  12.714  21.954  0.00  0.00    +0.000 C 
ATOM     17  C   UNL     1      -3.426  14.073  21.692  0.00  0.00    +0.000 C 
ENDBRANCH  11  12
ENDBRANCH   8  11
ENDBRANCH   3   5
BRANCH   1  19
ATOM     18  C   UNL     1       2.181   5.939  17.955  0.00  0.00    +0.000 C 
ATOM     19  C   UNL     1       2.413   6.879  18.886  0.00  0.00    +0.000 C 
BRANCH  18  25
ATOM     20  C   UNL     1       3.604   3.825  17.765  0.00  0.00    +0.000 A 
ATOM     21  C   UNL     1       3.682   2.452  18.057  0.00  0.00    +0.000 A 
ATOM     22  C   UNL     1       2.650   1.839  18.754  0.00  0.00    +0.000 A 
ATOM     23  N   UNL     1       1.543   2.479  19.170  0.00  0.00    +0.000 NA
ATOM     24  C   UNL     1       1.466   3.794  18.868  0.00  0.00    +0.000 A 
ATOM     25  C   UNL     1       2.446   4.514  18.179  0.00  0.00    +0.000 A 
BRANCH  20  29
ATOM     26  C   UNL     1       6.646   5.971  16.455  0.00  0.00    +0.000 A 
ATOM     27  C   UNL     1       6.109   5.333  15.357  0.00  0.00    +0.000 A 
ATOM     28  C   UNL     1       5.025   4.471  15.691  0.00  0.00    +0.000 A 
ATOM     29  C   UNL     1       4.709   4.494  17.038  0.00  0.00    +0.000 A 
ATOM     30  S   UNL     1       5.821   5.503  17.881  0.00  0.00    +0.000 S 
BRANCH  26  32
ATOM     31  C   UNL     1       7.772   7.524  17.805  0.00  0.00    +0.000 C 
ATOM     32  O   UNL     1       7.655   6.846  16.561  0.00  0.00    +0.000 OA
ENDBRANCH  26  32
ENDBRANCH  20  29
ENDBRANCH  18  25
ENDBRANCH   1  19
TORSDOF 7
ENDMDL
MODEL 5
REMARK VINA RESULT:      -8.4      0.752      1.408
REMARK  Name = 
REMARK  8 active torsions:
REMARK  status: ('A' for Active; 'I' for Inactive)
REMARK    1  A    between atoms: C_1  and  O_2
REMARK    2  A    between atoms: O_2  and  C_3
REMARK    3  A    between atoms: C_6  and  C_7
REMARK    4  A    between atoms: C_12  and  C_13
REMARK    5  A    between atoms: C_14  and  C_15
REMARK    6  A    between atoms: N_17  and  C_18
REMARK    7  A    between atoms: C_21  and  C_22
REMARK    8  A    between atoms: C_22  and  N_23
REMARK                            x       y       z     vdW  Elec       q    Type
REMARK                         _______ _______ _______ _____ _____    ______ ____
ROOT
ATOM      1  C   UNL     1       2.157   9.140  17.945  0.00  0.00    +0.000 C 
ATOM      2  O   UNL     1       2.280  10.260  17.464  0.00  0.00    +0.000 OA
ATOM      3  N   UNL     1       1.433   8.789  19.064  0.00  0.00    +0.000 N 
ATOM      4  H   UNL     1       1.460   7.820  19.353  0.00  0.00    +0.000 HD
ENDROOT
BRANCH   3   5
ATOM      5  C   UNL     1       0.541   9.612  19.791  0.00  0.00    +0.000 A 
ATOM      6  C   UNL     1       0.663   9.881  21.155  0.00  0.00    +0.000 A 
ATOM      7  C   UNL     1      -0.162  10.830  21.772  0.00  0.00    +0.000 A 
ATOM      8  C   UNL     1      -1.121  11.532  21.034  0.00  0.00    +0.000 A 
ATOM      9  C   UNL     1      -1.315  11.179  19.692  0.00  0.00    +0.000 A 
ATOM     10  C   UNL     1      -0.485  10.237  19.075  0.00  0.00    +0.000 A 
BRANCH   8  11
ATOM     11  C   UNL     1      -1.918  12.653  21.660  0.00  0.00    +0.000 C 
BRANCH  11  12
ATOM     12  N   UNL     1      -1.969  12.716  23.123  0.00  0.00    +0.000 NA
ATOM     13  C   UNL     1      -3.226  12.324  23.771  0.00  0.00    +0.000 C 
ATOM     14  C   UNL     1      -4.192  13.479  24.114  0.00  0.00    +0.000 C 
ATOM     15  O   UNL     1      -3.531  14.555  24.790  0.00  0.00    +0.000 OA
ATOM     16  C   UNL     1      -2.436  15.042  24.006  0.00  0.00    +0.000 C 
ATOM     17  C   UNL     1      -1.415  13.926  23.743  0.00  0.00    +0.000 C 
ENDBRANCH  11  12
ENDBRANCH   8  11
ENDBRANCH   3   5
BRANCH   1  19
ATOM     18  C   UNL     1       3.882   7.411  17.872  0.00  0.00    +0.000 C 
ATOM     19  C   UNL     1       2.801   7.961  17.295  0.00  0.00    +0.000 C 
BRANCH  18  25
ATOM     20  C   UNL     1       4.274   4.941  17.341  0.00  0.00    +0.000 A 
ATOM     21  C   UNL     1       5.120   4.014  16.709  0.00  0.00    +0.000 A 
ATOM     22  C   UNL     1       6.240   4.462  16.024  0.00  0.00    +0.000 A 
ATOM     23  N   UNL     1       6.592   5.757  15.929  0.00  0.00    +0.000 NA
ATOM     24  C   UNL     1       5.785   6.641  16.556  0.00  0.00    +0.000 A 
ATOM     25  C   UNL     1       4.631   6.304  17.268  0.00  0.00    +0.000 A 
BRANCH  20  29
ATOM     26  C   UNL     1       1.514   3.573  19.808  0.00  0.00    +0.000 A 
ATOM     27  C   UNL     1       0.919   3.684  18.569  0.00  0.00    +0.000 A 
ATOM     28  C   UNL     1       1.791   4.224  17.580  0.00  0.00    +0.000 A 
ATOM     29  C   UNL     1       3.064   4.476  18.060  0.00  0.00    +0.000 A 
ATOM     30  S   UNL     1       3.130   4.136  19.746  0.00  0.00    +0.000 S 
BRANCH  26  32
ATOM     31  C   UNL     1       2.008   2.669  21.915  0.00  0.00    +0.000 C 
ATOM     32  O   UNL     1       1.041   3.121  20.976  0.00  0.00    +0.000 OA
ENDBRANCH  26  32
ENDBRANCH  20  29
ENDBRANCH  18  25
ENDBRANCH   1  19
TORSDOF 7
ENDMDL
MODEL 6
REMARK VINA RESULT:      -8.4      1.630      2.002
REMARK  Name = 
REMARK  8 active torsions:
REMARK  status: ('A' for Active; 'I' for Inactive)
REMARK    1  A    between atoms: C_1  and  O_2
REMARK    2  A    between atoms: O_2  and  C_3
REMARK    3  A    between atoms: C_6  and  C_7
REMARK    4  A    between atoms: C_12  and  C_13
REMARK    5  A    between atoms: C_14  and  C_15
REMARK    6  A    between atoms: N_17  and  C_18
REMARK    7  A    between atoms: C_21  and  C_22
REMARK    8  A    between atoms: C_22  and  N_23
REMARK                            x       y       z     vdW  Elec       q    Type
REMARK                         _______ _______ _______ _____ _____    ______ ____
ROOT
ATOM      1  C   UNL     1       1.692   8.836  18.597  0.00  0.00    +0.000 C 
ATOM      2  O   UNL     1       1.581   8.553  19.783  0.00  0.00    +0.000 OA
ATOM      3  N   UNL     1       0.956   9.762  17.889  0.00  0.00    +0.000 N 
ATOM      4  H   UNL     1       1.147   9.853  16.899  0.00  0.00    +0.000 HD
ENDROOT
BRANCH   3   5
ATOM      5  C   UNL     1       0.041  10.702  18.416  0.00  0.00    +0.000 A 
ATOM      6  C   UNL     1      -1.342  10.628  18.246  0.00  0.00    +0.000 A 
ATOM      7  C   UNL     1      -2.194  11.504  18.930  0.00  0.00    +0.000 A 
ATOM      8  C   UNL     1      -1.679  12.468  19.803  0.00  0.00    +0.000 A 
ATOM      9  C   UNL     1      -0.288  12.612  19.885  0.00  0.00    +0.000 A 
ATOM     10  C   UNL     1       0.563  11.732  19.208  0.00  0.00    +0.000 A 
BRANCH   8  11
ATOM     11  C   UNL     1      -2.595  13.322  20.648  0.00  0.00    +0.000 C 
BRANCH  11  12
ATOM     12  N   UNL     1      -3.380  12.653  21.689  0.00  0.00    +0.000 NA
ATOM     13  C   UNL     1      -4.840  12.788  21.623  0.00  0.00    +0.000 C 
ATOM     14  C   UNL     1      -5.448  13.915  22.486  0.00  0.00    +0.000 C 
ATOM     15  O   UNL     1      -4.953  13.894  23.830  0.00  0.00    +0.000 OA
ATOM     16  C   UNL     1      -3.524  13.981  23.838  0.00  0.00    +0.000 C 
ATOM     17  C   UNL     1      -2.900  12.809  23.068  0.00  0.00    +0.000 C 
ENDBRANCH  11  12
ENDBRANCH   8  11
ENDBRANCH   3   5
BRANCH   1  19
ATOM     18  C   UNL     1       3.141   6.939  18.074  0.00  0.00    +0.000 C 
ATOM     19  C   UNL     1       2.733   8.177  17.753  0.00  0.00    +0.000 C 
BRANCH  18  25
ATOM     20  C   UNL     1       4.354   4.843  17.254  0.00  0.00    +0.000 A 
ATOM     21  C   UNL     1       5.455   4.352  16.533  0.00  0.00    +0.000 A 
ATOM     22  C   UNL     1       6.336   5.240  15.933  0.00  0.00    +0.000 A 
ATOM     23  N   UNL     1       6.215   6.578  16.006  0.00  0.00    +0.000 NA
ATOM     24  C   UNL     1       5.165   7.044  16.718  0.00  0.00    +0.000 A 
ATOM     25  C   UNL     1       4.215   6.243  17.356  0.00  0.00    +0.000 A 
BRANCH  20  29
ATOM     26  C   UNL     1       2.134   2.527  19.552  0.00  0.00    +0.000 A 
ATOM     27  C   UNL     1       1.851   2.180  18.248  0.00  0.00    +0.000 A 
ATOM     28  C   UNL     1       2.547   2.980  17.296  0.00  0.00    +0.000 A 
ATOM     29  C   UNL     1       3.396   3.902  17.882  0.00  0.00    +0.000 A 
ATOM     30  S   UNL     1       3.243   3.830  19.596  0.00  0.00    +0.000 S 
BRANCH  26  32
ATOM     31  C   UNL     1       1.896   2.833  21.865  0.00  0.00    +0.000 C 
ATOM     32  O   UNL     1       1.694   2.025  20.713  0.00  0.00    +0.000 OA
ENDBRANCH  26  32
ENDBRANCH  20  29
ENDBRANCH  18  25
ENDBRANCH   1  19
TORSDOF 7
ENDMDL
MODEL 7
REMARK VINA RESULT:      -8.3      2.479      3.942
REMARK  Name = 
REMARK  8 active torsions:
REMARK  status: ('A' for Active; 'I' for Inactive)
REMARK    1  A    between atoms: C_1  and  O_2
REMARK    2  A    between atoms: O_2  and  C_3
REMARK    3  A    between atoms: C_6  and  C_7
REMARK    4  A    between atoms: C_12  and  C_13
REMARK    5  A    between atoms: C_14  and  C_15
REMARK    6  A    between atoms: N_17  and  C_18
REMARK    7  A    between atoms: C_21  and  C_22
REMARK    8  A    between atoms: C_22  and  N_23
REMARK                            x       y       z     vdW  Elec       q    Type
REMARK                         _______ _______ _______ _____ _____    ______ ____
ROOT
ATOM      1  C   UNL     1       1.789   8.762  18.809  0.00  0.00    +0.000 C 
ATOM      2  O   UNL     1       2.195   9.398  17.844  0.00  0.00    +0.000 OA
ATOM      3  N   UNL     1       1.011   9.230  19.847  0.00  0.00    +0.000 N 
ATOM      4  H   UNL     1       0.788   8.582  20.592  0.00  0.00    +0.000 HD
ENDROOT
BRANCH   3   5
ATOM      5  C   UNL     1       0.373  10.488  19.929  0.00  0.00    +0.000 A 
ATOM      6  C   UNL     1      -0.929  10.735  19.490  0.00  0.00    +0.000 A 
ATOM      7  C   UNL     1      -1.550  11.963  19.750  0.00  0.00    +0.000 A 
ATOM      8  C   UNL     1      -0.882  12.967  20.459  0.00  0.00    +0.000 A 
ATOM      9  C   UNL     1       0.461  12.758  20.799  0.00  0.00    +0.000 A 
ATOM     10  C   UNL     1       1.078  11.528  20.547  0.00  0.00    +0.000 A 
BRANCH   8  11
ATOM     11  C   UNL     1      -1.591  14.239  20.863  0.00  0.00    +0.000 C 
BRANCH  11  12
ATOM     12  N   UNL     1      -2.280  14.252  22.156  0.00  0.00    +0.000 NA
ATOM     13  C   UNL     1      -1.793  13.330  23.188  0.00  0.00    +0.000 C 
ATOM     14  C   UNL     1      -2.537  11.981  23.286  0.00  0.00    +0.000 C 
ATOM     15  O   UNL     1      -3.959  12.147  23.318  0.00  0.00    +0.000 OA
ATOM     16  C   UNL     1      -4.404  12.875  22.168  0.00  0.00    +0.000 C 
ATOM     17  C   UNL     1      -3.748  14.262  22.111  0.00  0.00    +0.000 C 
ENDBRANCH  11  12
ENDBRANCH   8  11
ENDBRANCH   3   5
BRANCH   1  19
ATOM     18  C   UNL     1       2.482   6.621  17.856  0.00  0.00    +0.000 C 
ATOM     19  C   UNL     1       2.097   7.308  18.944  0.00  0.00    +0.000 C 
BRANCH  18  25
ATOM     20  C   UNL     1       3.992   4.562  17.983  0.00  0.00    +0.000 A 
ATOM     21  C   UNL     1       4.036   3.158  17.970  0.00  0.00    +0.000 A 
ATOM     22  C   UNL     1       2.855   2.434  17.878  0.00  0.00    +0.000 A 
ATOM     23  N   UNL     1       1.637   2.997  17.784  0.00  0.00    +0.000 NA
ATOM     24  C   UNL     1       1.604   4.348  17.778  0.00  0.00    +0.000 A 
ATOM     25  C   UNL     1       2.726   5.175  17.871  0.00  0.00    +0.000 A 
BRANCH  20  29
ATOM     26  C   UNL     1       7.141   6.916  17.641  0.00  0.00    +0.000 A 
ATOM     27  C   UNL     1       7.371   6.100  18.730  0.00  0.00    +0.000 A 
ATOM     28  C   UNL     1       6.282   5.226  19.009  0.00  0.00    +0.000 A 
ATOM     29  C   UNL     1       5.245   5.345  18.100  0.00  0.00    +0.000 A 
ATOM     30  S   UNL     1       5.593   6.604  16.979  0.00  0.00    +0.000 S 
BRANCH  26  32
ATOM     31  C   UNL     1       8.128   9.035  17.826  0.00  0.00    +0.000 C 
ATOM     32  O   UNL     1       7.903   7.855  17.066  0.00  0.00    +0.000 OA
ENDBRANCH  26  32
ENDBRANCH  20  29
ENDBRANCH  18  25
ENDBRANCH   1  19
TORSDOF 7
ENDMDL
MODEL 8
REMARK VINA RESULT:      -8.2      3.324      4.838
REMARK  Name = 
REMARK  8 active torsions:
REMARK  status: ('A' for Active; 'I' for Inactive)
REMARK    1  A    between atoms: C_1  and  O_2
REMARK    2  A    between atoms: O_2  and  C_3
REMARK    3  A    between atoms: C_6  and  C_7
REMARK    4  A    between atoms: C_12  and  C_13
REMARK    5  A    between atoms: C_14  and  C_15
REMARK    6  A    between atoms: N_17  and  C_18
REMARK    7  A    between atoms: C_21  and  C_22
REMARK    8  A    between atoms: C_22  and  N_23
REMARK                            x       y       z     vdW  Elec       q    Type
REMARK                         _______ _______ _______ _____ _____    ______ ____
ROOT
ATOM      1  C   UNL     1       2.125   8.150  18.601  0.00  0.00    +0.000 C 
ATOM      2  O   UNL     1       2.357   8.699  17.531  0.00  0.00    +0.000 OA
ATOM      3  N   UNL     1       1.492   8.697  19.697  0.00  0.00    +0.000 N 
ATOM      4  H   UNL     1       1.408   8.119  20.524  0.00  0.00    +0.000 HD
ENDROOT
BRANCH   3   5
ATOM      5  C   UNL     1       0.823   9.941  19.759  0.00  0.00    +0.000 A 
ATOM      6  C   UNL     1       0.916  10.825  20.835  0.00  0.00    +0.000 A 
ATOM      7  C   UNL     1       0.355  12.106  20.756  0.00  0.00    +0.000 A 
ATOM      8  C   UNL     1      -0.305  12.529  19.598  0.00  0.00    +0.000 A 
ATOM      9  C   UNL     1      -0.493  11.601  18.565  0.00  0.00    +0.000 A 
ATOM     10  C   UNL     1       0.075  10.325  18.641  0.00  0.00    +0.000 A 
BRANCH   8  11
ATOM     11  C   UNL     1      -0.790  13.953  19.454  0.00  0.00    +0.000 C 
BRANCH  11  12
ATOM     12  N   UNL     1       0.032  14.875  18.666  0.00  0.00    +0.000 NA
ATOM     13  C   UNL     1       1.487  14.795  18.838  0.00  0.00    +0.000 C 
ATOM     14  C   UNL     1       2.098  15.790  19.849  0.00  0.00    +0.000 C 
ATOM     15  O   UNL     1       1.637  17.129  19.637  0.00  0.00    +0.000 OA
ATOM     16  C   UNL     1       0.207  17.182  19.694  0.00  0.00    +0.000 C 
ATOM     17  C   UNL     1      -0.416  16.273  18.624  0.00  0.00    +0.000 C 
ENDBRANCH  11  12
ENDBRANCH   8  11
ENDBRANCH   3   5
BRANCH   1  19
ATOM     18  C   UNL     1       2.166   5.810  17.898  0.00  0.00    +0.000 C 
ATOM     19  C   UNL     1       2.507   6.724  18.821  0.00  0.00    +0.000 C 
BRANCH  18  25
ATOM     20  C   UNL     1       3.578   3.698  17.619  0.00  0.00    +0.000 A 
ATOM     21  C   UNL     1       3.650   2.314  17.857  0.00  0.00    +0.000 A 
ATOM     22  C   UNL     1       2.618   1.679  18.533  0.00  0.00    +0.000 A 
ATOM     23  N   UNL     1       1.516   2.308  18.979  0.00  0.00    +0.000 NA
ATOM     24  C   UNL     1       1.444   3.634  18.729  0.00  0.00    +0.000 A 
ATOM     25  C   UNL     1       2.424   4.375  18.065  0.00  0.00    +0.000 A 
BRANCH  20  29
ATOM     26  C   UNL     1       6.638   5.865  16.389  0.00  0.00    +0.000 A 
ATOM     27  C   UNL     1       6.072   5.302  15.264  0.00  0.00    +0.000 A 
ATOM     28  C   UNL     1       4.978   4.440  15.564  0.00  0.00    +0.000 A 
ATOM     29  C   UNL     1       4.683   4.390  16.915  0.00  0.00    +0.000 A 
ATOM     30  S   UNL     1       5.826   5.328  17.797  0.00  0.00    +0.000 S 
BRANCH  26  32
ATOM     31  C   UNL     1       7.674   7.499  17.715  0.00  0.00    +0.000 C 
ATOM     32  O   UNL     1       7.663   6.715  16.529  0.00  0.00    +0.000 OA
ENDBRANCH  26  32
ENDBRANCH  20  29
ENDBRANCH  18  25
ENDBRANCH   1  19
TORSDOF 7
ENDMDL
MODEL 9
REMARK VINA RESULT:      -8.2      2.415      4.048
REMARK  Name = 
REMARK  8 active torsions:
REMARK  status: ('A' for Active; 'I' for Inactive)
REMARK    1  A    between atoms: C_1  and  O_2
REMARK    2  A    between atoms: O_2  and  C_3
REMARK    3  A    between atoms: C_6  and  C_7
REMARK    4  A    between atoms: C_12  and  C_13
REMARK    5  A    between atoms: C_14  and  C_15
REMARK    6  A    between atoms: N_17  and  C_18
REMARK    7  A    between atoms: C_21  and  C_22
REMARK    8  A    between atoms: C_22  and  N_23
REMARK                            x       y       z     vdW  Elec       q    Type
REMARK                         _______ _______ _______ _____ _____    ______ ____
ROOT
ATOM      1  C   UNL     1       1.944   8.415  18.921  0.00  0.00    +0.000 C 
ATOM      2  O   UNL     1       2.287   8.953  17.876  0.00  0.00    +0.000 OA
ATOM      3  N   UNL     1       1.210   8.976  19.945  0.00  0.00    +0.000 N 
ATOM      4  H   UNL     1       1.038   8.406  20.764  0.00  0.00    +0.000 HD
ENDROOT
BRANCH   3   5
ATOM      5  C   UNL     1       0.552  10.227  19.931  0.00  0.00    +0.000 A 
ATOM      6  C   UNL     1      -0.754  10.418  19.478  0.00  0.00    +0.000 A 
ATOM      7  C   UNL     1      -1.395  11.652  19.643  0.00  0.00    +0.000 A 
ATOM      8  C   UNL     1      -0.742  12.719  20.270  0.00  0.00    +0.000 A 
ATOM      9  C   UNL     1       0.604  12.558  20.622  0.00  0.00    +0.000 A 
ATOM     10  C   UNL     1       1.240  11.322  20.465  0.00  0.00    +0.000 A 
BRANCH   8  11
ATOM     11  C   UNL     1      -1.471  14.007  20.575  0.00  0.00    +0.000 C 
BRANCH  11  12
ATOM     12  N   UNL     1      -2.134  14.121  21.877  0.00  0.00    +0.000 NA
ATOM     13  C   UNL     1      -1.637  13.268  22.963  0.00  0.00    +0.000 C 
ATOM     14  C   UNL     1      -2.395  11.938  23.171  0.00  0.00    +0.000 C 
ATOM     15  O   UNL     1      -3.815  12.126  23.217  0.00  0.00    +0.000 OA
ATOM     16  C   UNL     1      -4.273  12.776  22.027  0.00  0.00    +0.000 C 
ATOM     17  C   UNL     1      -3.602  14.147  21.860  0.00  0.00    +0.000 C 
ENDBRANCH  11  12
ENDBRANCH   8  11
ENDBRANCH   3   5
BRANCH   1  19
ATOM     18  C   UNL     1       2.261   6.110  18.172  0.00  0.00    +0.000 C 
ATOM     19  C   UNL     1       2.287   6.987  19.189  0.00  0.00    +0.000 C 
BRANCH  18  25
ATOM     20  C   UNL     1       3.700   4.003  18.031  0.00  0.00    +0.000 A 
ATOM     21  C   UNL     1       3.748   2.617  18.260  0.00  0.00    +0.000 A 
ATOM     22  C   UNL     1       2.648   1.973  18.809  0.00  0.00    +0.000 A 
ATOM     23  N   UNL     1       1.501   2.596  19.134  0.00  0.00    +0.000 NA
ATOM     24  C   UNL     1       1.455   3.925  18.892  0.00  0.00    +0.000 A 
ATOM     25  C   UNL     1       2.502   4.675  18.350  0.00  0.00    +0.000 A 
BRANCH  20  29
ATOM     26  C   UNL     1       6.813   5.345  16.010  0.00  0.00    +0.000 A 
ATOM     27  C   UNL     1       6.768   6.058  17.189  0.00  0.00    +0.000 A 
ATOM     28  C   UNL     1       5.652   5.714  18.004  0.00  0.00    +0.000 A 
ATOM     29  C   UNL     1       4.877   4.704  17.463  0.00  0.00    +0.000 A 
ATOM     30  S   UNL     1       5.485   4.269  15.912  0.00  0.00    +0.000 S 
BRANCH  26  32
ATOM     31  C   UNL     1       7.207   4.913  13.738  0.00  0.00    +0.000 C 
ATOM     32  O   UNL     1       7.687   5.372  14.995  0.00  0.00    +0.000 OA
ENDBRANCH  26  32
ENDBRANCH  20  29
ENDBRANCH  18  25
ENDBRANCH   1  19
TORSDOF 7
ENDMDL
