MODEL 1
REMARK VINA RESULT:      -7.7      0.000      0.000
REMARK  Name = 
REMARK  3 active torsions:
REMARK  status: ('A' for Active; 'I' for Inactive)
REMARK    1  A    between atoms: C_2  and  C_3
REMARK    2  A    between atoms: C_3  and  N_12
REMARK    3  A    between atoms: C_4  and  C_5
REMARK                            x       y       z     vdW  Elec       q    Type
REMARK                         _______ _______ _______ _____ _____    ______ ____
ROOT
ATOM      1  C   UNL     1       5.813   4.527  16.514  0.00  0.00    +0.000 C 
ATOM      2  C   UNL     1       4.511   4.161  16.490  0.00  0.00    +0.000 C 
ENDROOT
BRANCH   1   3
ATOM      3  N   UNL     1       6.550   4.795  15.342  0.00  0.00    +0.000 N 
ATOM      4  N   UNL     1       7.608   5.670  15.289  0.00  0.00    +0.000 NA
ATOM      5  N   UNL     1       8.121   5.679  14.071  0.00  0.00    +0.000 NA
ATOM      6  C   UNL     1       7.385   4.842  13.302  0.00  0.00    +0.000 A 
ATOM      7  N   UNL     1       7.585   4.599  11.987  0.00  0.00    +0.000 NA
ATOM      8  C   UNL     1       6.702   3.747  11.430  0.00  0.00    +0.000 A 
ATOM      9  C   UNL     1       5.649   3.138  12.094  0.00  0.00    +0.000 A 
ATOM     10  C   UNL     1       5.455   3.391  13.449  0.00  0.00    +0.000 A 
ATOM     11  C   UNL     1       6.367   4.268  14.054  0.00  0.00    +0.000 A 
ENDBRANCH   1   3
BRANCH   2  12
ATOM     12  C   UNL     1       3.723   3.836  17.686  0.00  0.00    +0.000 A 
ATOM     13  C   UNL     1       3.079   4.841  18.417  0.00  0.00    +0.000 A 
ATOM     14  C   UNL     1       2.380   4.521  19.585  0.00  0.00    +0.000 A 
ATOM     15  C   UNL     1       2.323   3.198  20.020  0.00  0.00    +0.000 A 
ATOM     16 BR   UNL     1       1.394   2.768  21.609  0.00  0.00    +0.000 Br
ATOM     17  C   UNL     1       2.953   2.189  19.294  0.00  0.00    +0.000 A 
ATOM     18  C   UNL     1       3.653   2.509  18.127  0.00  0.00    +0.000 A 
ENDBRANCH   2  12
BRANCH   1  20
ATOM     19  N   UNL     1       7.051   4.816  18.988  0.00  0.00    +0.000 NA
ATOM     20  C   UNL     1       6.490   4.685  17.866  0.00  0.00    +0.000 C 
ENDBRANCH   1  20
TORSDOF 3
ENDMDL
MODEL 2
REMARK VINA RESULT:      -7.6      0.131      1.088
REMARK  Name = 
REMARK  3 active torsions:
REMARK  status: ('A' for Active; 'I' for Inactive)
REMARK    1  A    between atoms: C_2  and  C_3
REMARK    2  A    between atoms: C_3  and  N_12
REMARK    3  A    between atoms: C_4  and  C_5
REMARK                            x       y       z     vdW  Elec       q    Type
REMARK                         _______ _______ _______ _____ _____    ______ ____
ROOT
ATOM      1  C   UNL     1       5.915   4.514  16.472  0.00  0.00    +0.000 C 
ATOM      2  C   UNL     1       4.611   4.156  16.503  0.00  0.00    +0.000 C 
ENDROOT
BRANCH   1   3
ATOM      3  N   UNL     1       6.602   4.785  15.270  0.00  0.00    +0.000 N 
ATOM      4  N   UNL     1       7.637   5.683  15.169  0.00  0.00    +0.000 NA
ATOM      5  N   UNL     1       8.105   5.691  13.932  0.00  0.00    +0.000 NA
ATOM      6  C   UNL     1       7.359   4.828  13.201  0.00  0.00    +0.000 A 
ATOM      7  N   UNL     1       7.517   4.575  11.881  0.00  0.00    +0.000 NA
ATOM      8  C   UNL     1       6.633   3.697  11.366  0.00  0.00    +0.000 A 
ATOM      9  C   UNL     1       5.619   3.073  12.076  0.00  0.00    +0.000 A 
ATOM     10  C   UNL     1       5.470   3.336  13.434  0.00  0.00    +0.000 A 
ATOM     11  C   UNL     1       6.383   4.240  13.996  0.00  0.00    +0.000 A 
ENDBRANCH   1   3
BRANCH   2  12
ATOM     12  C   UNL     1       3.874   3.828  17.730  0.00  0.00    +0.000 A 
ATOM     13  C   UNL     1       3.689   2.497  18.122  0.00  0.00    +0.000 A 
ATOM     14  C   UNL     1       2.936   2.200  19.262  0.00  0.00    +0.000 A 
ATOM     15  C   UNL     1       2.372   3.232  20.010  0.00  0.00    +0.000 A 
ATOM     16 BR   UNL     1       1.338   2.830  21.541  0.00  0.00    +0.000 Br
ATOM     17  C   UNL     1       2.558   4.561  19.633  0.00  0.00    +0.000 A 
ATOM     18  C   UNL     1       3.310   4.858  18.493  0.00  0.00    +0.000 A 
ENDBRANCH   2  12
BRANCH   1  20
ATOM     19  N   UNL     1       7.262   4.779  18.891  0.00  0.00    +0.000 NA
ATOM     20  C   UNL     1       6.651   4.659  17.794  0.00  0.00    +0.000 C 
ENDBRANCH   1  20
TORSDOF 3
ENDMDL
MODEL 3
REMARK VINA RESULT:      -7.3      1.189      1.348
REMARK  Name = 
REMARK  3 active torsions:
REMARK  status: ('A' for Active; 'I' for Inactive)
REMARK    1  A    between atoms: C_2  and  C_3
REMARK    2  A    between atoms: C_3  and  N_12
REMARK    3  A    between atoms: C_4  and  C_5
REMARK                            x       y       z     vdW  Elec       q    Type
REMARK                         _______ _______ _______ _____ _____    ______ ____
ROOT
ATOM      1  C   UNL     1       5.365   4.791  16.281  0.00  0.00    +0.000 C 
ATOM      2  C   UNL     1       4.955   3.594  16.762  0.00  0.00    +0.000 C 
ENDROOT
BRANCH   1   3
ATOM      3  N   UNL     1       6.244   4.909  15.184  0.00  0.00    +0.000 N 
ATOM      4  N   UNL     1       7.381   5.680  15.198  0.00  0.00    +0.000 NA
ATOM      5  N   UNL     1       8.018   5.558  14.046  0.00  0.00    +0.000 NA
ATOM      6  C   UNL     1       7.289   4.739  13.251  0.00  0.00    +0.000 A 
ATOM      7  N   UNL     1       7.603   4.387  11.983  0.00  0.00    +0.000 NA
ATOM      8  C   UNL     1       6.706   3.581  11.383  0.00  0.00    +0.000 A 
ATOM      9  C   UNL     1       5.534   3.117  11.960  0.00  0.00    +0.000 A 
ATOM     10  C   UNL     1       5.224   3.480  13.268  0.00  0.00    +0.000 A 
ATOM     11  C   UNL     1       6.147   4.312  13.917  0.00  0.00    +0.000 A 
ENDBRANCH   1   3
BRANCH   2  12
ATOM     12  C   UNL     1       4.074   3.431  17.925  0.00  0.00    +0.000 A 
ATOM     13  C   UNL     1       4.604   3.266  19.210  0.00  0.00    +0.000 A 
ATOM     14  C   UNL     1       3.751   3.054  20.299  0.00  0.00    +0.000 A 
ATOM     15  C   UNL     1       2.372   3.011  20.103  0.00  0.00    +0.000 A 
ATOM     16 BR   UNL     1       1.221   2.707  21.571  0.00  0.00    +0.000 Br
ATOM     17  C   UNL     1       1.835   3.184  18.829  0.00  0.00    +0.000 A 
ATOM     18  C   UNL     1       2.686   3.394  17.740  0.00  0.00    +0.000 A 
ENDBRANCH   2  12
BRANCH   1  20
ATOM     19  N   UNL     1       4.374   7.097  17.478  0.00  0.00    +0.000 NA
ATOM     20  C   UNL     1       4.823   6.051  16.935  0.00  0.00    +0.000 C 
ENDBRANCH   1  20
TORSDOF 3
ENDMDL
MODEL 4
REMARK VINA RESULT:      -7.3      1.186      1.282
REMARK  Name = 
REMARK  3 active torsions:
REMARK  status: ('A' for Active; 'I' for Inactive)
REMARK    1  A    between atoms: C_2  and  C_3
REMARK    2  A    between atoms: C_3  and  N_12
REMARK    3  A    between atoms: C_4  and  C_5
REMARK                            x       y       z     vdW  Elec       q    Type
REMARK                         _______ _______ _______ _____ _____    ______ ____
ROOT
ATOM      1  C   UNL     1       5.322   4.698  16.354  0.00  0.00    +0.000 C 
ATOM      2  C   UNL     1       4.947   3.477  16.801  0.00  0.00    +0.000 C 
ENDROOT
BRANCH   1   3
ATOM      3  N   UNL     1       6.223   4.873  15.283  0.00  0.00    +0.000 N 
ATOM      4  N   UNL     1       7.347   5.661  15.352  0.00  0.00    +0.000 NA
ATOM      5  N   UNL     1       8.011   5.594  14.211  0.00  0.00    +0.000 NA
ATOM      6  C   UNL     1       7.313   4.795  13.369  0.00  0.00    +0.000 A 
ATOM      7  N   UNL     1       7.661   4.498  12.096  0.00  0.00    +0.000 NA
ATOM      8  C   UNL     1       6.790   3.702  11.444  0.00  0.00    +0.000 A 
ATOM      9  C   UNL     1       5.614   3.198  11.977  0.00  0.00    +0.000 A 
ATOM     10  C   UNL     1       5.269   3.504  13.290  0.00  0.00    +0.000 A 
ATOM     11  C   UNL     1       6.164   4.324  13.992  0.00  0.00    +0.000 A 
ENDBRANCH   1   3
BRANCH   2  12
ATOM     12  C   UNL     1       4.044   3.256  17.937  0.00  0.00    +0.000 A 
ATOM     13  C   UNL     1       2.656   3.236  17.758  0.00  0.00    +0.000 A 
ATOM     14  C   UNL     1       1.809   3.080  18.859  0.00  0.00    +0.000 A 
ATOM     15  C   UNL     1       2.348   2.943  20.137  0.00  0.00    +0.000 A 
ATOM     16 BR   UNL     1       1.202   2.752  21.628  0.00  0.00    +0.000 Br
ATOM     17  C   UNL     1       3.729   2.953  20.324  0.00  0.00    +0.000 A 
ATOM     18  C   UNL     1       4.577   3.109  19.224  0.00  0.00    +0.000 A 
ENDBRANCH   2  12
BRANCH   1  20
ATOM     19  N   UNL     1       4.212   6.939  17.570  0.00  0.00    +0.000 NA
ATOM     20  C   UNL     1       4.715   5.923  17.019  0.00  0.00    +0.000 C 
ENDBRANCH   1  20
TORSDOF 3
ENDMDL
MODEL 5
REMARK VINA RESULT:      -6.7      5.174      6.899
REMARK  Name = 
REMARK  3 active torsions:
REMARK  status: ('A' for Active; 'I' for Inactive)
REMARK    1  A    between atoms: C_2  and  C_3
REMARK    2  A    between atoms: C_3  and  N_12
REMARK    3  A    between atoms: C_4  and  C_5
REMARK                            x       y       z     vdW  Elec       q    Type
REMARK                         _______ _______ _______ _____ _____    ______ ____
ROOT
ATOM      1  C   UNL     1       2.412   7.628  18.456  0.00  0.00    +0.000 C 
ATOM      2  C   UNL     1       2.131   8.681  17.653  0.00  0.00    +0.000 C 
ENDROOT
BRANCH   1   3
ATOM      3  N   UNL     1       3.125   6.498  18.006  0.00  0.00    +0.000 N 
ATOM      4  N   UNL     1       4.379   6.559  17.447  0.00  0.00    +0.000 NA
ATOM      5  N   UNL     1       4.803   5.340  17.163  0.00  0.00    +0.000 NA
ATOM      6  C   UNL     1       3.821   4.469  17.497  0.00  0.00    +0.000 A 
ATOM      7  N   UNL     1       3.870   3.127  17.337  0.00  0.00    +0.000 NA
ATOM      8  C   UNL     1       2.756   2.472  17.717  0.00  0.00    +0.000 A 
ATOM      9  C   UNL     1       1.616   3.066  18.235  0.00  0.00    +0.000 A 
ATOM     10  C   UNL     1       1.578   4.448  18.401  0.00  0.00    +0.000 A 
ATOM     11  C   UNL     1       2.729   5.151  18.020  0.00  0.00    +0.000 A 
ENDBRANCH   1   3
BRANCH   2  12
ATOM     12  C   UNL     1       1.357   9.856  18.074  0.00  0.00    +0.000 A 
ATOM     13  C   UNL     1       2.001  11.032  18.478  0.00  0.00    +0.000 A 
ATOM     14  C   UNL     1       1.250  12.122  18.929  0.00  0.00    +0.000 A 
ATOM     15  C   UNL     1      -0.140  12.037  18.975  0.00  0.00    +0.000 A 
ATOM     16 BR   UNL     1      -1.153  13.504  19.604  0.00  0.00    +0.000 Br
ATOM     17  C   UNL     1      -0.790  10.874  18.567  0.00  0.00    +0.000 A 
ATOM     18  C   UNL     1      -0.041   9.784  18.116  0.00  0.00    +0.000 A 
ENDBRANCH   2  12
BRANCH   1  20
ATOM     19  N   UNL     1       1.595   7.746  21.111  0.00  0.00    +0.000 NA
ATOM     20  C   UNL     1       1.965   7.693  19.907  0.00  0.00    +0.000 C 
ENDBRANCH   1  20
TORSDOF 3
ENDMDL
MODEL 6
REMARK VINA RESULT:      -6.7      5.146      6.933
REMARK  Name = 
REMARK  3 active torsions:
REMARK  status: ('A' for Active; 'I' for Inactive)
REMARK    1  A    between atoms: C_2  and  C_3
REMARK    2  A    between atoms: C_3  and  N_12
REMARK    3  A    between atoms: C_4  and  C_5
REMARK                            x       y       z     vdW  Elec       q    Type
REMARK                         _______ _______ _______ _____ _____    ______ ____
ROOT
ATOM      1  C   UNL     1       2.470   7.509  18.453  0.00  0.00    +0.000 C 
ATOM      2  C   UNL     1       2.250   8.582  17.659  0.00  0.00    +0.000 C 
ENDROOT
BRANCH   1   3
ATOM      3  N   UNL     1       3.136   6.350  18.001  0.00  0.00    +0.000 N 
ATOM      4  N   UNL     1       4.371   6.366  17.399  0.00  0.00    +0.000 NA
ATOM      5  N   UNL     1       4.752   5.131  17.125  0.00  0.00    +0.000 NA
ATOM      6  C   UNL     1       3.757   4.294  17.507  0.00  0.00    +0.000 A 
ATOM      7  N   UNL     1       3.764   2.949  17.369  0.00  0.00    +0.000 NA
ATOM      8  C   UNL     1       2.645   2.332  17.799  0.00  0.00    +0.000 A 
ATOM      9  C   UNL     1       1.540   2.968  18.343  0.00  0.00    +0.000 A 
ATOM     10  C   UNL     1       1.546   4.352  18.485  0.00  0.00    +0.000 A 
ATOM     11  C   UNL     1       2.703   5.016  18.053  0.00  0.00    +0.000 A 
ENDBRANCH   1   3
BRANCH   2  12
ATOM     12  C   UNL     1       1.527   9.787  18.082  0.00  0.00    +0.000 A 
ATOM     13  C   UNL     1       0.132   9.784  18.199  0.00  0.00    +0.000 A 
ATOM     14  C   UNL     1      -0.546  10.956  18.548  0.00  0.00    +0.000 A 
ATOM     15  C   UNL     1       0.171  12.129  18.782  0.00  0.00    +0.000 A 
ATOM     16 BR   UNL     1      -0.747  13.718  19.235  0.00  0.00    +0.000 Br
ATOM     17  C   UNL     1       1.560  12.140  18.677  0.00  0.00    +0.000 A 
ATOM     18  C   UNL     1       2.238  10.968  18.327  0.00  0.00    +0.000 A 
ENDBRANCH   2  12
BRANCH   1  20
ATOM     19  N   UNL     1       1.621   7.637  21.098  0.00  0.00    +0.000 NA
ATOM     20  C   UNL     1       2.006   7.579  19.899  0.00  0.00    +0.000 C 
ENDBRANCH   1  20
TORSDOF 3
ENDMDL
MODEL 7
REMARK VINA RESULT:      -6.6      5.386      7.735
REMARK  Name = 
REMARK  3 active torsions:
REMARK  status: ('A' for Active; 'I' for Inactive)
REMARK    1  A    between atoms: C_2  and  C_3
REMARK    2  A    between atoms: C_3  and  N_12
REMARK    3  A    between atoms: C_4  and  C_5
REMARK                            x       y       z     vdW  Elec       q    Type
REMARK                         _______ _______ _______ _____ _____    ______ ____
ROOT
ATOM      1  C   UNL     1       2.073   7.584  18.955  0.00  0.00    +0.000 C 
ATOM      2  C   UNL     1       1.932   8.502  17.971  0.00  0.00    +0.000 C 
ENDROOT
BRANCH   1   3
ATOM      3  N   UNL     1       2.552   6.279  18.715  0.00  0.00    +0.000 N 
ATOM      4  N   UNL     1       3.502   5.977  17.769  0.00  0.00    +0.000 NA
ATOM      5  N   UNL     1       3.776   4.684  17.807  0.00  0.00    +0.000 NA
ATOM      6  C   UNL     1       2.984   4.118  18.748  0.00  0.00    +0.000 A 
ATOM      7  N   UNL     1       2.956   2.804  19.067  0.00  0.00    +0.000 NA
ATOM      8  C   UNL     1       2.062   2.473  20.020  0.00  0.00    +0.000 A 
ATOM      9  C   UNL     1       1.208   3.359  20.658  0.00  0.00    +0.000 A 
ATOM     10  C   UNL     1       1.249   4.710  20.326  0.00  0.00    +0.000 A 
ATOM     11  C   UNL     1       2.178   5.081  19.343  0.00  0.00    +0.000 A 
ENDBRANCH   1   3
BRANCH   2  12
ATOM     12  C   UNL     1       1.400   9.855  18.175  0.00  0.00    +0.000 A 
ATOM     13  C   UNL     1       2.257  10.960  18.252  0.00  0.00    +0.000 A 
ATOM     14  C   UNL     1       1.738  12.234  18.504  0.00  0.00    +0.000 A 
ATOM     15  C   UNL     1       0.366  12.403  18.675  0.00  0.00    +0.000 A 
ATOM     16 BR   UNL     1      -0.333  14.122  19.034  0.00  0.00    +0.000 Br
ATOM     17  C   UNL     1      -0.496  11.311  18.591  0.00  0.00    +0.000 A 
ATOM     18  C   UNL     1       0.022  10.037  18.341  0.00  0.00    +0.000 A 
ENDBRANCH   2  12
BRANCH   1  20
ATOM     19  N   UNL     1       1.446   8.340  21.556  0.00  0.00    +0.000 NA
ATOM     20  C   UNL     1       1.730   7.997  20.377  0.00  0.00    +0.000 C 
ENDBRANCH   1  20
TORSDOF 3
ENDMDL
MODEL 8
REMARK VINA RESULT:      -6.5      5.363      6.869
REMARK  Name = 
REMARK  3 active torsions:
REMARK  status: ('A' for Active; 'I' for Inactive)
REMARK    1  A    between atoms: C_2  and  C_3
REMARK    2  A    between atoms: C_3  and  N_12
REMARK    3  A    between atoms: C_4  and  C_5
REMARK                            x       y       z     vdW  Elec       q    Type
REMARK                         _______ _______ _______ _____ _____    ______ ____
ROOT
ATOM      1  C   UNL     1       2.167   7.553  18.754  0.00  0.00    +0.000 C 
ATOM      2  C   UNL     1       1.985   8.519  17.824  0.00  0.00    +0.000 C 
ENDROOT
BRANCH   1   3
ATOM      3  N   UNL     1       2.677   6.278  18.437  0.00  0.00    +0.000 N 
ATOM      4  N   UNL     1       2.191   5.107  18.968  0.00  0.00    +0.000 NA
ATOM      5  N   UNL     1       2.840   4.077  18.453  0.00  0.00    +0.000 NA
ATOM      6  C   UNL     1       3.783   4.560  17.609  0.00  0.00    +0.000 A 
ATOM      7  N   UNL     1       4.666   3.815  16.905  0.00  0.00    +0.000 NA
ATOM      8  C   UNL     1       5.529   4.524  16.153  0.00  0.00    +0.000 A 
ATOM      9  C   UNL     1       5.566   5.907  16.066  0.00  0.00    +0.000 A 
ATOM     10  C   UNL     1       4.650   6.664  16.790  0.00  0.00    +0.000 A 
ATOM     11  C   UNL     1       3.734   5.948  17.574  0.00  0.00    +0.000 A 
ENDBRANCH   1   3
BRANCH   2  12
ATOM     12  C   UNL     1       1.420   9.844  18.109  0.00  0.00    +0.000 A 
ATOM     13  C   UNL     1       2.248  10.964  18.247  0.00  0.00    +0.000 A 
ATOM     14  C   UNL     1       1.698  12.207  18.575  0.00  0.00    +0.000 A 
ATOM     15  C   UNL     1       0.323  12.330  18.762  0.00  0.00    +0.000 A 
ATOM     16 BR   UNL     1      -0.419  14.007  19.223  0.00  0.00    +0.000 Br
ATOM     17  C   UNL     1      -0.511  11.223  18.618  0.00  0.00    +0.000 A 
ATOM     18  C   UNL     1       0.038   9.980  18.291  0.00  0.00    +0.000 A 
ENDBRANCH   2  12
BRANCH   1  20
ATOM     19  N   UNL     1       1.559   8.149  21.402  0.00  0.00    +0.000 NA
ATOM     20  C   UNL     1       1.835   7.879  20.201  0.00  0.00    +0.000 C 
ENDBRANCH   1  20
TORSDOF 3
ENDMDL
MODEL 9
REMARK VINA RESULT:      -6.5      5.386      6.852
REMARK  Name = 
REMARK  3 active torsions:
REMARK  status: ('A' for Active; 'I' for Inactive)
REMARK    1  A    between atoms: C_2  and  C_3
REMARK    2  A    between atoms: C_3  and  N_12
REMARK    3  A    between atoms: C_4  and  C_5
REMARK                            x       y       z     vdW  Elec       q    Type
REMARK                         _______ _______ _______ _____ _____    ______ ____
ROOT
ATOM      1  C   UNL     1       2.216   7.566  18.549  0.00  0.00    +0.000 C 
ATOM      2  C   UNL     1       2.035   8.611  17.709  0.00  0.00    +0.000 C 
ENDROOT
BRANCH   1   3
ATOM      3  N   UNL     1       2.747   6.330  18.123  0.00  0.00    +0.000 N 
ATOM      4  N   UNL     1       2.082   5.133  18.239  0.00  0.00    +0.000 NA
ATOM      5  N   UNL     1       2.812   4.163  17.718  0.00  0.00    +0.000 NA
ATOM      6  C   UNL     1       3.977   4.703  17.290  0.00  0.00    +0.000 A 
ATOM      7  N   UNL     1       4.997   4.023  16.716  0.00  0.00    +0.000 NA
ATOM      8  C   UNL     1       6.069   4.775  16.399  0.00  0.00    +0.000 A 
ATOM      9  C   UNL     1       6.183   6.139  16.620  0.00  0.00    +0.000 A 
ATOM     10  C   UNL     1       5.126   6.829  17.205  0.00  0.00    +0.000 A 
ATOM     11  C   UNL     1       3.995   6.070  17.536  0.00  0.00    +0.000 A 
ENDBRANCH   1   3
BRANCH   2  12
ATOM     12  C   UNL     1       1.449   9.897  18.107  0.00  0.00    +0.000 A 
ATOM     13  C   UNL     1       0.069  10.029  18.299  0.00  0.00    +0.000 A 
ATOM     14  C   UNL     1      -0.478  11.275  18.622  0.00  0.00    +0.000 A 
ATOM     15  C   UNL     1       0.353  12.385  18.755  0.00  0.00    +0.000 A 
ATOM     16 BR   UNL     1      -0.389  14.073  19.173  0.00  0.00    +0.000 Br
ATOM     17  C   UNL     1       1.729  12.262  18.574  0.00  0.00    +0.000 A 
ATOM     18  C   UNL     1       2.277  11.017  18.250  0.00  0.00    +0.000 A 
ENDBRANCH   2  12
BRANCH   1  20
ATOM     19  N   UNL     1       1.567   7.909  21.231  0.00  0.00    +0.000 NA
ATOM     20  C   UNL     1       1.861   7.753  20.015  0.00  0.00    +0.000 C 
ENDBRANCH   1  20
TORSDOF 3
ENDMDL
