MODEL 1
REMARK VINA RESULT:      -6.8      0.000      0.000
REMARK  Name = 
REMARK  3 active torsions:
REMARK  status: ('A' for Active; 'I' for Inactive)
REMARK    1  A    between atoms: C_5  and  C_6
REMARK    2  A    between atoms: N_10  and  N_11
REMARK    3  A    between atoms: C_12  and  C_13
REMARK                            x       y       z     vdW  Elec       q    Type
REMARK                         _______ _______ _______ _____ _____    ______ ____
ROOT
ATOM      1  C   UNL     1       3.039   5.840  19.077  0.00  0.00    +0.000 A 
ATOM      2  C   UNL     1       2.969   4.957  20.135  0.00  0.00    +0.000 A 
ATOM      3  S   UNL     1       3.758   3.490  19.725  0.00  0.00    +0.000 S 
ATOM      4  C   UNL     1       4.190   4.155  18.191  0.00  0.00    +0.000 A 
ATOM      5  N   UNL     1       4.939   3.425  17.323  0.00  0.00    +0.000 N 
ATOM      6  N   UNL     1       3.737   5.373  17.981  0.00  0.00    +0.000 NA
ATOM      7  H   UNL     1       5.188   2.487  17.627  0.00  0.00    +0.000 HD
ENDROOT
BRANCH   1  12
ATOM      8  I   UNL     1       0.297  11.559  19.118  0.00  0.00    +0.000 I 
ATOM      9  C   UNL     1       1.196   9.685  19.095  0.00  0.00    +0.000 A 
ATOM     10  C   UNL     1       1.775   9.210  17.919  0.00  0.00    +0.000 A 
ATOM     11  C   UNL     1       2.382   7.948  17.902  0.00  0.00    +0.000 A 
ATOM     12  C   UNL     1       2.414   7.157  19.057  0.00  0.00    +0.000 A 
ATOM     13  C   UNL     1       1.814   7.647  20.228  0.00  0.00    +0.000 A 
ATOM     14  C   UNL     1       1.214   8.909  20.251  0.00  0.00    +0.000 A 
ENDBRANCH   1  12
BRANCH   5  15
ATOM     15  N   UNL     1       5.675   4.028  16.346  0.00  0.00    +0.000 NA
ATOM     16  C   UNL     1       5.596   3.517  15.159  0.00  0.00    +0.000 C 
BRANCH  16  17
ATOM     17  C   UNL     1       6.381   4.077  14.088  0.00  0.00    +0.000 A 
ATOM     18  C   UNL     1       7.332   5.076  14.152  0.00  0.00    +0.000 A 
ATOM     19  C   UNL     1       7.888   5.377  12.877  0.00  0.00    +0.000 A 
ATOM     20  C   UNL     1       7.345   4.592  11.885  0.00  0.00    +0.000 A 
ATOM     21  S   UNL     1       6.185   3.491  12.495  0.00  0.00    +0.000 S 
ENDBRANCH  16  17
ENDBRANCH   5  15
TORSDOF 3
ENDMDL
MODEL 2
REMARK VINA RESULT:      -6.7      0.240      1.107
REMARK  Name = 
REMARK  3 active torsions:
REMARK  status: ('A' for Active; 'I' for Inactive)
REMARK    1  A    between atoms: C_5  and  C_6
REMARK    2  A    between atoms: N_10  and  N_11
REMARK    3  A    between atoms: C_12  and  C_13
REMARK                            x       y       z     vdW  Elec       q    Type
REMARK                         _______ _______ _______ _____ _____    ______ ____
ROOT
ATOM      1  C   UNL     1       2.926   6.002  19.082  0.00  0.00    +0.000 A 
ATOM      2  C   UNL     1       2.999   5.127  20.146  0.00  0.00    +0.000 A 
ATOM      3  S   UNL     1       3.764   3.673  19.655  0.00  0.00    +0.000 S 
ATOM      4  C   UNL     1       4.000   4.333  18.077  0.00  0.00    +0.000 A 
ATOM      5  N   UNL     1       4.657   3.611  17.132  0.00  0.00    +0.000 N 
ATOM      6  N   UNL     1       3.501   5.540  17.914  0.00  0.00    +0.000 NA
ATOM      7  H   UNL     1       4.960   2.681  17.410  0.00  0.00    +0.000 HD
ENDROOT
BRANCH   1  12
ATOM      8  I   UNL     1       0.114  11.686  19.152  0.00  0.00    +0.000 I 
ATOM      9  C   UNL     1       1.035   9.824  19.139  0.00  0.00    +0.000 A 
ATOM     10  C   UNL     1       1.085   9.068  20.309  0.00  0.00    +0.000 A 
ATOM     11  C   UNL     1       1.704   7.812  20.302  0.00  0.00    +0.000 A 
ATOM     12  C   UNL     1       2.276   7.307  19.128  0.00  0.00    +0.000 A 
ATOM     13  C   UNL     1       2.228   8.088  17.962  0.00  0.00    +0.000 A 
ATOM     14  C   UNL     1       1.603   9.339  17.964  0.00  0.00    +0.000 A 
ENDBRANCH   1  12
BRANCH   5  15
ATOM     15  N   UNL     1       5.262   4.220  16.071  0.00  0.00    +0.000 NA
ATOM     16  C   UNL     1       5.786   3.446  15.177  0.00  0.00    +0.000 C 
BRANCH  16  17
ATOM     17  C   UNL     1       6.478   4.022  14.052  0.00  0.00    +0.000 A 
ATOM     18  C   UNL     1       7.406   5.045  14.047  0.00  0.00    +0.000 A 
ATOM     19  C   UNL     1       7.862   5.355  12.735  0.00  0.00    +0.000 A 
ATOM     20  C   UNL     1       7.270   4.554  11.785  0.00  0.00    +0.000 A 
ATOM     21  S   UNL     1       6.185   3.425  12.478  0.00  0.00    +0.000 S 
ENDBRANCH  16  17
ENDBRANCH   5  15
TORSDOF 3
ENDMDL
MODEL 3
REMARK VINA RESULT:      -6.4      3.996      7.974
REMARK  Name = 
REMARK  3 active torsions:
REMARK  status: ('A' for Active; 'I' for Inactive)
REMARK    1  A    between atoms: C_5  and  C_6
REMARK    2  A    between atoms: N_10  and  N_11
REMARK    3  A    between atoms: C_12  and  C_13
REMARK                            x       y       z     vdW  Elec       q    Type
REMARK                         _______ _______ _______ _____ _____    ______ ____
ROOT
ATOM      1  C   UNL     1       3.252   5.181  18.719  0.00  0.00    +0.000 A 
ATOM      2  C   UNL     1       2.769   4.137  19.481  0.00  0.00    +0.000 A 
ATOM      3  S   UNL     1       1.887   4.749  20.819  0.00  0.00    +0.000 S 
ATOM      4  C   UNL     1       2.159   6.359  20.258  0.00  0.00    +0.000 A 
ATOM      5  N   UNL     1       1.623   7.411  20.931  0.00  0.00    +0.000 N 
ATOM      6  N   UNL     1       2.896   6.437  19.170  0.00  0.00    +0.000 NA
ATOM      7  H   UNL     1       1.097   7.183  21.771  0.00  0.00    +0.000 HD
ENDROOT
BRANCH   1  12
ATOM      8  I   UNL     1       6.959   4.622  13.604  0.00  0.00    +0.000 I 
ATOM      9  C   UNL     1       5.743   4.796  15.280  0.00  0.00    +0.000 A 
ATOM     10  C   UNL     1       5.329   3.649  15.957  0.00  0.00    +0.000 A 
ATOM     11  C   UNL     1       4.509   3.764  17.086  0.00  0.00    +0.000 A 
ATOM     12  C   UNL     1       4.102   5.023  17.545  0.00  0.00    +0.000 A 
ATOM     13  C   UNL     1       4.518   6.165  16.843  0.00  0.00    +0.000 A 
ATOM     14  C   UNL     1       5.342   6.055  15.720  0.00  0.00    +0.000 A 
ENDBRANCH   1  12
BRANCH   5  15
ATOM     15  N   UNL     1       1.411   8.610  20.316  0.00  0.00    +0.000 NA
ATOM     16  C   UNL     1       0.308   9.223  20.601  0.00  0.00    +0.000 C 
BRANCH  16  17
ATOM     17  C   UNL     1      -0.001  10.474  19.955  0.00  0.00    +0.000 A 
ATOM     18  C   UNL     1      -0.883  10.709  18.918  0.00  0.00    +0.000 A 
ATOM     19  C   UNL     1      -0.909  12.078  18.530  0.00  0.00    +0.000 A 
ATOM     20  C   UNL     1      -0.050  12.841  19.289  0.00  0.00    +0.000 A 
ATOM     21  S   UNL     1       0.768  11.910  20.470  0.00  0.00    +0.000 S 
ENDBRANCH  16  17
ENDBRANCH   5  15
TORSDOF 3
ENDMDL
MODEL 4
REMARK VINA RESULT:      -6.4      4.045      7.988
REMARK  Name = 
REMARK  3 active torsions:
REMARK  status: ('A' for Active; 'I' for Inactive)
REMARK    1  A    between atoms: C_5  and  C_6
REMARK    2  A    between atoms: N_10  and  N_11
REMARK    3  A    between atoms: C_12  and  C_13
REMARK                            x       y       z     vdW  Elec       q    Type
REMARK                         _______ _______ _______ _____ _____    ______ ____
ROOT
ATOM      1  C   UNL     1       3.161   5.371  18.767  0.00  0.00    +0.000 A 
ATOM      2  C   UNL     1       2.653   4.320  19.503  0.00  0.00    +0.000 A 
ATOM      3  S   UNL     1       1.769   4.920  20.845  0.00  0.00    +0.000 S 
ATOM      4  C   UNL     1       2.072   6.536  20.318  0.00  0.00    +0.000 A 
ATOM      5  N   UNL     1       1.547   7.583  21.008  0.00  0.00    +0.000 N 
ATOM      6  N   UNL     1       2.821   6.623  19.240  0.00  0.00    +0.000 NA
ATOM      7  H   UNL     1       1.009   7.347  21.838  0.00  0.00    +0.000 HD
ENDROOT
BRANCH   1  12
ATOM      8  I   UNL     1       6.882   4.596  13.691  0.00  0.00    +0.000 I 
ATOM      9  C   UNL     1       5.665   4.859  15.354  0.00  0.00    +0.000 A 
ATOM     10  C   UNL     1       5.318   6.147  15.761  0.00  0.00    +0.000 A 
ATOM     11  C   UNL     1       4.497   6.326  16.881  0.00  0.00    +0.000 A 
ATOM     12  C   UNL     1       4.019   5.222  17.598  0.00  0.00    +0.000 A 
ATOM     13  C   UNL     1       4.390   3.934  17.182  0.00  0.00    +0.000 A 
ATOM     14  C   UNL     1       5.203   3.751  16.059  0.00  0.00    +0.000 A 
ENDBRANCH   1  12
BRANCH   5  15
ATOM     15  N   UNL     1       1.360   8.797  20.414  0.00  0.00    +0.000 NA
ATOM     16  C   UNL     1       0.196   9.342  20.560  0.00  0.00    +0.000 C 
BRANCH  16  17
ATOM     17  C   UNL     1      -0.085  10.605  19.924  0.00  0.00    +0.000 A 
ATOM     18  C   UNL     1      -1.064  10.898  18.994  0.00  0.00    +0.000 A 
ATOM     19  C   UNL     1      -1.023  12.259  18.578  0.00  0.00    +0.000 A 
ATOM     20  C   UNL     1      -0.019  12.957  19.209  0.00  0.00    +0.000 A 
ATOM     21  S   UNL     1       0.857  11.978  20.307  0.00  0.00    +0.000 S 
ENDBRANCH  16  17
ENDBRANCH   5  15
TORSDOF 3
ENDMDL
MODEL 5
REMARK VINA RESULT:      -6.3      1.306      1.576
REMARK  Name = 
REMARK  3 active torsions:
REMARK  status: ('A' for Active; 'I' for Inactive)
REMARK    1  A    between atoms: C_5  and  C_6
REMARK    2  A    between atoms: N_10  and  N_11
REMARK    3  A    between atoms: C_12  and  C_13
REMARK                            x       y       z     vdW  Elec       q    Type
REMARK                         _______ _______ _______ _____ _____    ______ ____
ROOT
ATOM      1  C   UNL     1       2.266   6.266  19.785  0.00  0.00    +0.000 A 
ATOM      2  C   UNL     1       1.905   5.504  20.877  0.00  0.00    +0.000 A 
ATOM      3  S   UNL     1       2.483   3.900  20.686  0.00  0.00    +0.000 S 
ATOM      4  C   UNL     1       3.224   4.348  19.192  0.00  0.00    +0.000 A 
ATOM      5  N   UNL     1       3.949   3.435  18.495  0.00  0.00    +0.000 N 
ATOM      6  N   UNL     1       3.016   5.598  18.838  0.00  0.00    +0.000 NA
ATOM      7  H   UNL     1       3.993   2.500  18.894  0.00  0.00    +0.000 HD
ENDROOT
BRANCH   1  12
ATOM      8  I   UNL     1       0.555  12.328  19.043  0.00  0.00    +0.000 I 
ATOM      9  C   UNL     1       1.116  10.341  19.276  0.00  0.00    +0.000 A 
ATOM     10  C   UNL     1       1.717   9.662  18.217  0.00  0.00    +0.000 A 
ATOM     11  C   UNL     1       2.097   8.323  18.373  0.00  0.00    +0.000 A 
ATOM     12  C   UNL     1       1.880   7.659  19.586  0.00  0.00    +0.000 A 
ATOM     13  C   UNL     1       1.263   8.354  20.637  0.00  0.00    +0.000 A 
ATOM     14  C   UNL     1       0.889   9.693  20.488  0.00  0.00    +0.000 A 
ENDBRANCH   1  12
BRANCH   5  15
ATOM     15  N   UNL     1       4.902   3.824  17.599  0.00  0.00    +0.000 NA
ATOM     16  C   UNL     1       4.576   3.778  16.348  0.00  0.00    +0.000 C 
BRANCH  16  17
ATOM     17  C   UNL     1       5.548   4.133  15.345  0.00  0.00    +0.000 A 
ATOM     18  C   UNL     1       5.510   3.885  13.986  0.00  0.00    +0.000 A 
ATOM     19  C   UNL     1       6.665   4.375  13.314  0.00  0.00    +0.000 A 
ATOM     20  C   UNL     1       7.542   4.984  14.183  0.00  0.00    +0.000 A 
ATOM     21  S   UNL     1       6.964   4.978  15.794  0.00  0.00    +0.000 S 
ENDBRANCH  16  17
ENDBRANCH   5  15
TORSDOF 3
ENDMDL
MODEL 6
REMARK VINA RESULT:      -6.3      5.063      8.247
REMARK  Name = 
REMARK  3 active torsions:
REMARK  status: ('A' for Active; 'I' for Inactive)
REMARK    1  A    between atoms: C_5  and  C_6
REMARK    2  A    between atoms: N_10  and  N_11
REMARK    3  A    between atoms: C_12  and  C_13
REMARK                            x       y       z     vdW  Elec       q    Type
REMARK                         _______ _______ _______ _____ _____    ______ ____
ROOT
ATOM      1  C   UNL     1       2.178   7.572  19.397  0.00  0.00    +0.000 A 
ATOM      2  C   UNL     1       2.085   7.378  20.760  0.00  0.00    +0.000 A 
ATOM      3  S   UNL     1       1.084   8.585  21.454  0.00  0.00    +0.000 S 
ATOM      4  C   UNL     1       0.796   9.245  19.885  0.00  0.00    +0.000 A 
ATOM      5  N   UNL     1      -0.040  10.307  19.739  0.00  0.00    +0.000 N 
ATOM      6  N   UNL     1       1.440   8.634  18.913  0.00  0.00    +0.000 NA
ATOM      7  H   UNL     1      -0.441  10.681  20.596  0.00  0.00    +0.000 HD
ENDROOT
BRANCH   1  12
ATOM      8  I   UNL     1       5.825   4.189  15.463  0.00  0.00    +0.000 I 
ATOM      9  C   UNL     1       4.625   5.289  16.754  0.00  0.00    +0.000 A 
ATOM     10  C   UNL     1       3.789   4.629  17.654  0.00  0.00    +0.000 A 
ATOM     11  C   UNL     1       2.980   5.369  18.525  0.00  0.00    +0.000 A 
ATOM     12  C   UNL     1       3.004   6.769  18.503  0.00  0.00    +0.000 A 
ATOM     13  C   UNL     1       3.843   7.416  17.581  0.00  0.00    +0.000 A 
ATOM     14  C   UNL     1       4.657   6.681  16.715  0.00  0.00    +0.000 A 
ENDBRANCH   1  12
BRANCH   5  15
ATOM     15  N   UNL     1      -0.650  10.568  18.547  0.00  0.00    +0.000 NA
ATOM     16  C   UNL     1      -1.875  10.170  18.422  0.00  0.00    +0.000 C 
BRANCH  16  17
ATOM     17  C   UNL     1      -2.566  10.373  17.174  0.00  0.00    +0.000 A 
ATOM     18  C   UNL     1      -2.261   9.858  15.929  0.00  0.00    +0.000 A 
ATOM     19  C   UNL     1      -3.168  10.298  14.925  0.00  0.00    +0.000 A 
ATOM     20  C   UNL     1      -4.138  11.127  15.439  0.00  0.00    +0.000 A 
ATOM     21  S   UNL     1      -3.961  11.359  17.126  0.00  0.00    +0.000 S 
ENDBRANCH  16  17
ENDBRANCH   5  15
TORSDOF 3
ENDMDL
MODEL 7
REMARK VINA RESULT:      -6.3      1.324      1.921
REMARK  Name = 
REMARK  3 active torsions:
REMARK  status: ('A' for Active; 'I' for Inactive)
REMARK    1  A    between atoms: C_5  and  C_6
REMARK    2  A    between atoms: N_10  and  N_11
REMARK    3  A    between atoms: C_12  and  C_13
REMARK                            x       y       z     vdW  Elec       q    Type
REMARK                         _______ _______ _______ _____ _____    ______ ____
ROOT
ATOM      1  C   UNL     1       2.273   6.108  19.870  0.00  0.00    +0.000 A 
ATOM      2  C   UNL     1       1.914   5.333  20.953  0.00  0.00    +0.000 A 
ATOM      3  S   UNL     1       2.495   3.732  20.745  0.00  0.00    +0.000 S 
ATOM      4  C   UNL     1       3.235   4.198  19.256  0.00  0.00    +0.000 A 
ATOM      5  N   UNL     1       3.962   3.294  18.548  0.00  0.00    +0.000 N 
ATOM      6  N   UNL     1       3.025   5.452  18.915  0.00  0.00    +0.000 NA
ATOM      7  H   UNL     1       4.008   2.355  18.937  0.00  0.00    +0.000 HD
ENDROOT
BRANCH   1  12
ATOM      8  I   UNL     1       0.613  12.158  18.943  0.00  0.00    +0.000 I 
ATOM      9  C   UNL     1       1.156  10.177  19.256  0.00  0.00    +0.000 A 
ATOM     10  C   UNL     1       0.969   9.598  20.511  0.00  0.00    +0.000 A 
ATOM     11  C   UNL     1       1.334   8.263  20.724  0.00  0.00    +0.000 A 
ATOM     12  C   UNL     1       1.885   7.501  19.685  0.00  0.00    +0.000 A 
ATOM     13  C   UNL     1       2.077   8.105  18.433  0.00  0.00    +0.000 A 
ATOM     14  C   UNL     1       1.707   9.435  18.215  0.00  0.00    +0.000 A 
ENDBRANCH   1  12
BRANCH   5  15
ATOM     15  N   UNL     1       4.914   3.695  17.657  0.00  0.00    +0.000 NA
ATOM     16  C   UNL     1       4.544   3.807  16.422  0.00  0.00    +0.000 C 
BRANCH  16  17
ATOM     17  C   UNL     1       5.508   4.184  15.420  0.00  0.00    +0.000 A 
ATOM     18  C   UNL     1       5.515   3.872  14.074  0.00  0.00    +0.000 A 
ATOM     19  C   UNL     1       6.646   4.411  13.400  0.00  0.00    +0.000 A 
ATOM     20  C   UNL     1       7.460   5.120  14.253  0.00  0.00    +0.000 A 
ATOM     21  S   UNL     1       6.851   5.147  15.853  0.00  0.00    +0.000 S 
ENDBRANCH  16  17
ENDBRANCH   5  15
TORSDOF 3
ENDMDL
MODEL 8
REMARK VINA RESULT:      -6.1      6.654     10.842
REMARK  Name = 
REMARK  3 active torsions:
REMARK  status: ('A' for Active; 'I' for Inactive)
REMARK    1  A    between atoms: C_5  and  C_6
REMARK    2  A    between atoms: N_10  and  N_11
REMARK    3  A    between atoms: C_12  and  C_13
REMARK                            x       y       z     vdW  Elec       q    Type
REMARK                         _______ _______ _______ _____ _____    ______ ____
ROOT
ATOM      1  C   UNL     1       0.605  10.742  18.933  0.00  0.00    +0.000 A 
ATOM      2  C   UNL     1       1.295  11.935  18.878  0.00  0.00    +0.000 A 
ATOM      3  S   UNL     1       0.202  13.230  18.613  0.00  0.00    +0.000 S 
ATOM      4  C   UNL     1      -1.119  12.119  18.650  0.00  0.00    +0.000 A 
ATOM      5  N   UNL     1      -2.393  12.576  18.526  0.00  0.00    +0.000 N 
ATOM      6  N   UNL     1      -0.765  10.861  18.805  0.00  0.00    +0.000 NA
ATOM      7  H   UNL     1      -2.497  13.579  18.387  0.00  0.00    +0.000 HD
ENDROOT
BRANCH   1  12
ATOM      8  I   UNL     1       3.365   5.055  19.446  0.00  0.00    +0.000 I 
ATOM      9  C   UNL     1       2.456   6.916  19.287  0.00  0.00    +0.000 A 
ATOM     10  C   UNL     1       1.832   7.480  20.399  0.00  0.00    +0.000 A 
ATOM     11  C   UNL     1       1.220   8.735  20.294  0.00  0.00    +0.000 A 
ATOM     12  C   UNL     1       1.229   9.432  19.079  0.00  0.00    +0.000 A 
ATOM     13  C   UNL     1       1.851   8.843  17.966  0.00  0.00    +0.000 A 
ATOM     14  C   UNL     1       2.470   7.594  18.070  0.00  0.00    +0.000 A 
ENDBRANCH   1  12
BRANCH   5  15
ATOM     15  N   UNL     1      -3.451  11.854  18.994  0.00  0.00    +0.000 NA
ATOM     16  C   UNL     1      -4.546  12.506  19.218  0.00  0.00    +0.000 C 
BRANCH  16  17
ATOM     17  C   UNL     1      -5.691  11.815  19.755  0.00  0.00    +0.000 A 
ATOM     18  C   UNL     1      -6.375  12.068  20.928  0.00  0.00    +0.000 A 
ATOM     19  C   UNL     1      -7.450  11.158  21.135  0.00  0.00    +0.000 A 
ATOM     20  C   UNL     1      -7.553  10.247  20.108  0.00  0.00    +0.000 A 
ATOM     21  S   UNL     1      -6.368  10.501  18.898  0.00  0.00    +0.000 S 
ENDBRANCH  16  17
ENDBRANCH   5  15
TORSDOF 3
ENDMDL
MODEL 9
REMARK VINA RESULT:      -6.0      5.831      8.447
REMARK  Name = 
REMARK  3 active torsions:
REMARK  status: ('A' for Active; 'I' for Inactive)
REMARK    1  A    between atoms: C_5  and  C_6
REMARK    2  A    between atoms: N_10  and  N_11
REMARK    3  A    between atoms: C_12  and  C_13
REMARK                            x       y       z     vdW  Elec       q    Type
REMARK                         _______ _______ _______ _____ _____    ______ ____
ROOT
ATOM      1  C   UNL     1       1.134   8.648  20.426  0.00  0.00    +0.000 A 
ATOM      2  C   UNL     1       0.987   8.715  21.796  0.00  0.00    +0.000 A 
ATOM      3  S   UNL     1       0.030  10.076  22.215  0.00  0.00    +0.000 S 
ATOM      4  C   UNL     1      -0.171  10.446  20.540  0.00  0.00    +0.000 A 
ATOM      5  N   UNL     1      -0.944  11.500  20.167  0.00  0.00    +0.000 N 
ATOM      6  N   UNL     1       0.469   9.635  19.725  0.00  0.00    +0.000 NA
ATOM      7  H   UNL     1      -1.351  12.046  20.923  0.00  0.00    +0.000 HD
ENDROOT
BRANCH   1  12
ATOM      8  I   UNL     1       4.625   4.243  17.488  0.00  0.00    +0.000 I 
ATOM      9  C   UNL     1       3.485   5.693  18.444  0.00  0.00    +0.000 A 
ATOM     10  C   UNL     1       3.326   6.948  17.857  0.00  0.00    +0.000 A 
ATOM     11  C   UNL     1       2.558   7.926  18.500  0.00  0.00    +0.000 A 
ATOM     12  C   UNL     1       1.944   7.656  19.730  0.00  0.00    +0.000 A 
ATOM     13  C   UNL     1       2.126   6.391  20.312  0.00  0.00    +0.000 A 
ATOM     14  C   UNL     1       2.886   5.410  19.669  0.00  0.00    +0.000 A 
ENDBRANCH   1  12
BRANCH   5  15
ATOM     15  N   UNL     1      -1.500  11.563  18.924  0.00  0.00    +0.000 NA
ATOM     16  C   UNL     1      -2.129  10.509  18.514  0.00  0.00    +0.000 C 
BRANCH  16  17
ATOM     17  C   UNL     1      -2.705  10.490  17.193  0.00  0.00    +0.000 A 
ATOM     18  C   UNL     1      -2.251   9.828  16.068  0.00  0.00    +0.000 A 
ATOM     19  C   UNL     1      -3.078  10.062  14.933  0.00  0.00    +0.000 A 
ATOM     20  C   UNL     1      -4.137  10.888  15.233  0.00  0.00    +0.000 A 
ATOM     21  S   UNL     1      -4.138  11.364  16.878  0.00  0.00    +0.000 S 
ENDBRANCH  16  17
ENDBRANCH   5  15
TORSDOF 3
ENDMDL
