MODEL 1
REMARK VINA RESULT:      -8.3      0.000      0.000
REMARK  Name = 
REMARK  6 active torsions:
REMARK  status: ('A' for Active; 'I' for Inactive)
REMARK    1  A    between atoms: C_2  and  O_3
REMARK    2  A    between atoms: C_2  and  C_4
REMARK    3  A    between atoms: C_8  and  C_9
REMARK    4  A    between atoms: C_9  and  C_10
REMARK    5  A    between atoms: C_10  and  N_11
REMARK    6  A    between atoms: C_20  and  O_21
REMARK                            x       y       z     vdW  Elec       q    Type
REMARK                         _______ _______ _______ _____ _____    ______ ____
ROOT
ATOM      1  N   UNL     1       4.535   5.147  17.894  0.00  0.00    +0.000 N 
ATOM      2  C   UNL     1       5.489   4.876  18.848  0.00  0.00    +0.000 A 
ATOM      3  N   UNL     1       5.353   3.633  19.262  0.00  0.00    +0.000 NA
ATOM      4  C   UNL     1       4.097   3.245  18.823  0.00  0.00    +0.000 A 
ATOM      5  C   UNL     1       3.469   4.354  18.294  0.00  0.00    +0.000 A 
ATOM      6  N   UNL     1       2.195   4.784  18.498  0.00  0.00    +0.000 N 
ATOM      7  C   UNL     1       1.410   4.202  19.490  0.00  0.00    +0.000 C 
ATOM      8  N   UNL     1       1.270   2.990  19.893  0.00  0.00    +0.000 NA
ATOM      9  C   UNL     1       1.934   1.944  19.122  0.00  0.00    +0.000 C 
ATOM     10  C   UNL     1       3.476   1.935  19.181  0.00  0.00    +0.000 C 
ATOM     11  H   UNL     1       2.055   5.792  18.449  0.00  0.00    +0.000 HD
ENDROOT
BRANCH  10  12
ATOM     12  O   UNL     1       3.926   0.914  18.264  0.00  0.00    +0.000 OA
ATOM     13  H   UNL     1       4.719   0.515  18.669  0.00  0.00    +0.000 HD
ENDBRANCH  10  12
BRANCH   1  14
ATOM     14  C   UNL     1       4.927   5.417  16.497  0.00  0.00    +0.000 C 
BRANCH  14  15
ATOM     15  C   UNL     1       6.333   4.864  16.105  0.00  0.00    +0.000 C 
BRANCH  15  20
ATOM     16  C   UNL     1       6.139   3.573  12.486  0.00  0.00    +0.000 A 
ATOM     17  C   UNL     1       7.164   4.311  11.874  0.00  0.00    +0.000 A 
ATOM     18  C   UNL     1       7.925   5.193  12.639  0.00  0.00    +0.000 A 
ATOM     19  C   UNL     1       7.652   5.370  14.000  0.00  0.00    +0.000 A 
ATOM     20  C   UNL     1       6.596   4.691  14.620  0.00  0.00    +0.000 A 
ATOM     21  C   UNL     1       5.855   3.775  13.850  0.00  0.00    +0.000 A 
BRANCH  16  23
ATOM     22  O   UNL     1       4.211   2.894  11.283  0.00  0.00    +0.000 OA
ATOM     23  C   UNL     1       5.314   2.612  11.715  0.00  0.00    +0.000 C 
BRANCH  23  24
ATOM     24  O   UNL     1       5.876   1.393  11.559  0.00  0.00    +0.000 OA
ATOM     25  H   UNL     1       6.840   1.357  11.685  0.00  0.00    +0.000 HD
ENDBRANCH  23  24
ENDBRANCH  16  23
ENDBRANCH  15  20
ENDBRANCH  14  15
ENDBRANCH   1  14
TORSDOF 6
ENDMDL
MODEL 2
REMARK VINA RESULT:      -7.9      1.047      1.089
REMARK  Name = 
REMARK  6 active torsions:
REMARK  status: ('A' for Active; 'I' for Inactive)
REMARK    1  A    between atoms: C_2  and  O_3
REMARK    2  A    between atoms: C_2  and  C_4
REMARK    3  A    between atoms: C_8  and  C_9
REMARK    4  A    between atoms: C_9  and  C_10
REMARK    5  A    between atoms: C_10  and  N_11
REMARK    6  A    between atoms: C_20  and  O_21
REMARK                            x       y       z     vdW  Elec       q    Type
REMARK                         _______ _______ _______ _____ _____    ______ ____
ROOT
ATOM      1  N   UNL     1       3.903   5.671  17.571  0.00  0.00    +0.000 N 
ATOM      2  C   UNL     1       4.053   6.261  18.806  0.00  0.00    +0.000 A 
ATOM      3  N   UNL     1       4.279   5.331  19.710  0.00  0.00    +0.000 NA
ATOM      4  C   UNL     1       3.919   4.140  19.097  0.00  0.00    +0.000 A 
ATOM      5  C   UNL     1       3.334   4.445  17.886  0.00  0.00    +0.000 A 
ATOM      6  N   UNL     1       2.194   3.940  17.344  0.00  0.00    +0.000 N 
ATOM      7  C   UNL     1       1.344   3.148  18.114  0.00  0.00    +0.000 C 
ATOM      8  N   UNL     1       1.561   2.236  18.993  0.00  0.00    +0.000 NA
ATOM      9  C   UNL     1       2.939   1.797  19.182  0.00  0.00    +0.000 C 
ATOM     10  C   UNL     1       3.899   2.829  19.810  0.00  0.00    +0.000 C 
ATOM     11  H   UNL     1       1.673   4.572  16.738  0.00  0.00    +0.000 HD
ENDROOT
BRANCH  10  12
ATOM     12  O   UNL     1       5.218   2.243  19.793  0.00  0.00    +0.000 OA
ATOM     13  H   UNL     1       5.834   2.950  20.061  0.00  0.00    +0.000 HD
ENDBRANCH  10  12
BRANCH   1  14
ATOM     14  C   UNL     1       4.891   5.911  16.500  0.00  0.00    +0.000 C 
BRANCH  14  15
ATOM     15  C   UNL     1       5.781   4.676  16.158  0.00  0.00    +0.000 C 
BRANCH  15  20
ATOM     16  C   UNL     1       5.992   3.483  12.507  0.00  0.00    +0.000 A 
ATOM     17  C   UNL     1       7.087   4.225  12.037  0.00  0.00    +0.000 A 
ATOM     18  C   UNL     1       7.762   5.078  12.908  0.00  0.00    +0.000 A 
ATOM     19  C   UNL     1       7.337   5.222  14.233  0.00  0.00    +0.000 A 
ATOM     20  C   UNL     1       6.211   4.538  14.709  0.00  0.00    +0.000 A 
ATOM     21  C   UNL     1       5.556   3.652  13.835  0.00  0.00    +0.000 A 
BRANCH  16  23
ATOM     22  O   UNL     1       4.170   2.828  11.137  0.00  0.00    +0.000 OA
ATOM     23  C   UNL     1       5.253   2.552  11.620  0.00  0.00    +0.000 C 
BRANCH  23  24
ATOM     24  O   UNL     1       5.868   1.367  11.419  0.00  0.00    +0.000 OA
ATOM     25  H   UNL     1       6.546   1.129  12.074  0.00  0.00    +0.000 HD
ENDBRANCH  23  24
ENDBRANCH  16  23
ENDBRANCH  15  20
ENDBRANCH  14  15
ENDBRANCH   1  14
TORSDOF 6
ENDMDL
MODEL 3
REMARK VINA RESULT:      -7.7      4.404      7.297
REMARK  Name = 
REMARK  6 active torsions:
REMARK  status: ('A' for Active; 'I' for Inactive)
REMARK    1  A    between atoms: C_2  and  O_3
REMARK    2  A    between atoms: C_2  and  C_4
REMARK    3  A    between atoms: C_8  and  C_9
REMARK    4  A    between atoms: C_9  and  C_10
REMARK    5  A    between atoms: C_10  and  N_11
REMARK    6  A    between atoms: C_20  and  O_21
REMARK                            x       y       z     vdW  Elec       q    Type
REMARK                         _______ _______ _______ _____ _____    ______ ____
ROOT
ATOM      1  N   UNL     1       4.302   5.547  19.226  0.00  0.00    +0.000 N 
ATOM      2  C   UNL     1       5.454   4.794  19.199  0.00  0.00    +0.000 A 
ATOM      3  N   UNL     1       5.149   3.537  18.954  0.00  0.00    +0.000 NA
ATOM      4  C   UNL     1       3.784   3.449  19.180  0.00  0.00    +0.000 A 
ATOM      5  C   UNL     1       3.362   4.649  19.712  0.00  0.00    +0.000 A 
ATOM      6  N   UNL     1       2.539   4.863  20.773  0.00  0.00    +0.000 N 
ATOM      7  C   UNL     1       2.175   3.805  21.601  0.00  0.00    +0.000 C 
ATOM      8  N   UNL     1       1.871   2.578  21.366  0.00  0.00    +0.000 NA
ATOM      9  C   UNL     1       1.732   2.175  19.971  0.00  0.00    +0.000 C 
ATOM     10  C   UNL     1       3.032   2.161  19.138  0.00  0.00    +0.000 C 
ATOM     11  H   UNL     1       2.714   5.715  21.305  0.00  0.00    +0.000 HD
ENDROOT
BRANCH  10  12
ATOM     12  O   UNL     1       2.655   1.858  17.777  0.00  0.00    +0.000 OA
ATOM     13  H   UNL     1       3.368   1.297  17.417  0.00  0.00    +0.000 HD
ENDBRANCH  10  12
BRANCH   1  14
ATOM     14  C   UNL     1       4.055   6.576  18.197  0.00  0.00    +0.000 C 
BRANCH  14  15
ATOM     15  C   UNL     1       2.547   6.878  17.937  0.00  0.00    +0.000 C 
BRANCH  15  20
ATOM     16  C   UNL     1       1.121   9.220  20.636  0.00  0.00    +0.000 A 
ATOM     17  C   UNL     1       0.829  10.366  19.880  0.00  0.00    +0.000 A 
ATOM     18  C   UNL     1       1.067  10.362  18.507  0.00  0.00    +0.000 A 
ATOM     19  C   UNL     1       1.622   9.238  17.886  0.00  0.00    +0.000 A 
ATOM     20  C   UNL     1       1.978   8.104  18.628  0.00  0.00    +0.000 A 
ATOM     21  C   UNL     1       1.702   8.102  20.007  0.00  0.00    +0.000 A 
BRANCH  16  23
ATOM     22  O   UNL     1      -0.245   9.049  22.567  0.00  0.00    +0.000 OA
ATOM     23  C   UNL     1       0.871   9.174  22.097  0.00  0.00    +0.000 C 
BRANCH  23  24
ATOM     24  O   UNL     1       1.979   9.312  22.857  0.00  0.00    +0.000 OA
ATOM     25  H   UNL     1       2.619   8.582  22.801  0.00  0.00    +0.000 HD
ENDBRANCH  23  24
ENDBRANCH  16  23
ENDBRANCH  15  20
ENDBRANCH  14  15
ENDBRANCH   1  14
TORSDOF 6
ENDMDL
MODEL 4
REMARK VINA RESULT:      -7.7      0.849      1.156
REMARK  Name = 
REMARK  6 active torsions:
REMARK  status: ('A' for Active; 'I' for Inactive)
REMARK    1  A    between atoms: C_2  and  O_3
REMARK    2  A    between atoms: C_2  and  C_4
REMARK    3  A    between atoms: C_8  and  C_9
REMARK    4  A    between atoms: C_9  and  C_10
REMARK    5  A    between atoms: C_10  and  N_11
REMARK    6  A    between atoms: C_20  and  O_21
REMARK                            x       y       z     vdW  Elec       q    Type
REMARK                         _______ _______ _______ _____ _____    ______ ____
ROOT
ATOM      1  N   UNL     1       4.568   4.776  17.937  0.00  0.00    +0.000 N 
ATOM      2  C   UNL     1       5.433   4.079  18.750  0.00  0.00    +0.000 A 
ATOM      3  N   UNL     1       4.788   3.084  19.324  0.00  0.00    +0.000 NA
ATOM      4  C   UNL     1       3.445   3.377  19.143  0.00  0.00    +0.000 A 
ATOM      5  C   UNL     1       3.354   4.640  18.596  0.00  0.00    +0.000 A 
ATOM      6  N   UNL     1       2.528   5.660  18.950  0.00  0.00    +0.000 N 
ATOM      7  C   UNL     1       1.774   5.576  20.119  0.00  0.00    +0.000 C 
ATOM      8  N   UNL     1       1.138   4.610  20.679  0.00  0.00    +0.000 NA
ATOM      9  C   UNL     1       1.032   3.356  19.940  0.00  0.00    +0.000 C 
ATOM     10  C   UNL     1       2.346   2.569  19.749  0.00  0.00    +0.000 C 
ATOM     11  H   UNL     1       2.896   6.599  18.806  0.00  0.00    +0.000 HD
ENDROOT
BRANCH  10  12
ATOM     12  O   UNL     1       2.041   1.442  18.898  0.00  0.00    +0.000 OA
ATOM     13  H   UNL     1       1.975   0.668  19.487  0.00  0.00    +0.000 HD
ENDBRANCH  10  12
BRANCH   1  14
ATOM     14  C   UNL     1       4.755   4.782  16.473  0.00  0.00    +0.000 C 
BRANCH  14  15
ATOM     15  C   UNL     1       6.217   5.072  16.012  0.00  0.00    +0.000 C 
BRANCH  15  20
ATOM     16  C   UNL     1       6.112   3.588  12.464  0.00  0.00    +0.000 A 
ATOM     17  C   UNL     1       7.173   4.269  11.848  0.00  0.00    +0.000 A 
ATOM     18  C   UNL     1       7.929   5.176  12.590  0.00  0.00    +0.000 A 
ATOM     19  C   UNL     1       7.616   5.434  13.928  0.00  0.00    +0.000 A 
ATOM     20  C   UNL     1       6.525   4.812  14.548  0.00  0.00    +0.000 A 
ATOM     21  C   UNL     1       5.788   3.871  13.805  0.00  0.00    +0.000 A 
BRANCH  16  23
ATOM     22  O   UNL     1       5.715   1.512  11.388  0.00  0.00    +0.000 OA
ATOM     23  C   UNL     1       5.290   2.603  11.719  0.00  0.00    +0.000 C 
BRANCH  23  24
ATOM     24  O   UNL     1       4.046   3.032  11.415  0.00  0.00    +0.000 OA
ATOM     25  H   UNL     1       3.600   3.549  12.108  0.00  0.00    +0.000 HD
ENDBRANCH  23  24
ENDBRANCH  16  23
ENDBRANCH  15  20
ENDBRANCH  14  15
ENDBRANCH   1  14
TORSDOF 6
ENDMDL
MODEL 5
REMARK VINA RESULT:      -7.7      1.651      2.284
REMARK  Name = 
REMARK  6 active torsions:
REMARK  status: ('A' for Active; 'I' for Inactive)
REMARK    1  A    between atoms: C_2  and  O_3
REMARK    2  A    between atoms: C_2  and  C_4
REMARK    3  A    between atoms: C_8  and  C_9
REMARK    4  A    between atoms: C_9  and  C_10
REMARK    5  A    between atoms: C_10  and  N_11
REMARK    6  A    between atoms: C_20  and  O_21
REMARK                            x       y       z     vdW  Elec       q    Type
REMARK                         _______ _______ _______ _____ _____    ______ ____
ROOT
ATOM      1  N   UNL     1       3.971   3.640  17.307  0.00  0.00    +0.000 N 
ATOM      2  C   UNL     1       2.793   3.117  16.823  0.00  0.00    +0.000 A 
ATOM      3  N   UNL     1       1.840   3.285  17.716  0.00  0.00    +0.000 NA
ATOM      4  C   UNL     1       2.503   3.594  18.894  0.00  0.00    +0.000 A 
ATOM      5  C   UNL     1       3.856   3.435  18.675  0.00  0.00    +0.000 A 
ATOM      6  N   UNL     1       4.774   2.814  19.462  0.00  0.00    +0.000 N 
ATOM      7  C   UNL     1       4.361   2.053  20.553  0.00  0.00    +0.000 C 
ATOM      8  N   UNL     1       3.436   2.216  21.430  0.00  0.00    +0.000 NA
ATOM      9  C   UNL     1       2.720   3.487  21.424  0.00  0.00    +0.000 C 
ATOM     10  C   UNL     1       1.808   3.745  20.206  0.00  0.00    +0.000 C 
ATOM     11  H   UNL     1       5.555   2.378  18.973  0.00  0.00    +0.000 HD
ENDROOT
BRANCH  10  12
ATOM     12  O   UNL     1       1.299   5.090  20.338  0.00  0.00    +0.000 OA
ATOM     13  H   UNL     1       1.814   5.637  19.716  0.00  0.00    +0.000 HD
ENDBRANCH  10  12
BRANCH   1  14
ATOM     14  C   UNL     1       4.590   4.816  16.664  0.00  0.00    +0.000 C 
BRANCH  14  15
ATOM     15  C   UNL     1       6.096   4.632  16.301  0.00  0.00    +0.000 C 
BRANCH  15  20
ATOM     16  C   UNL     1       6.057   3.562  12.606  0.00  0.00    +0.000 A 
ATOM     17  C   UNL     1       7.114   4.325  12.086  0.00  0.00    +0.000 A 
ATOM     18  C   UNL     1       7.845   5.153  12.936  0.00  0.00    +0.000 A 
ATOM     19  C   UNL     1       7.513   5.251  14.291  0.00  0.00    +0.000 A 
ATOM     20  C   UNL     1       6.425   4.545  14.822  0.00  0.00    +0.000 A 
ATOM     21  C   UNL     1       5.714   3.684  13.966  0.00  0.00    +0.000 A 
BRANCH  16  23
ATOM     22  O   UNL     1       4.163   2.959  11.311  0.00  0.00    +0.000 OA
ATOM     23  C   UNL     1       5.261   2.656  11.742  0.00  0.00    +0.000 C 
BRANCH  23  24
ATOM     24  O   UNL     1       5.844   1.462  11.500  0.00  0.00    +0.000 OA
ATOM     25  H   UNL     1       6.815   1.469  11.461  0.00  0.00    +0.000 HD
ENDBRANCH  23  24
ENDBRANCH  16  23
ENDBRANCH  15  20
ENDBRANCH  14  15
ENDBRANCH   1  14
TORSDOF 6
ENDMDL
MODEL 6
REMARK VINA RESULT:      -7.6      0.816      1.066
REMARK  Name = 
REMARK  6 active torsions:
REMARK  status: ('A' for Active; 'I' for Inactive)
REMARK    1  A    between atoms: C_2  and  O_3
REMARK    2  A    between atoms: C_2  and  C_4
REMARK    3  A    between atoms: C_8  and  C_9
REMARK    4  A    between atoms: C_9  and  C_10
REMARK    5  A    between atoms: C_10  and  N_11
REMARK    6  A    between atoms: C_20  and  O_21
REMARK                            x       y       z     vdW  Elec       q    Type
REMARK                         _______ _______ _______ _____ _____    ______ ____
ROOT
ATOM      1  N   UNL     1       4.489   5.210  17.723  0.00  0.00    +0.000 N 
ATOM      2  C   UNL     1       5.524   5.562  18.560  0.00  0.00    +0.000 A 
ATOM      3  N   UNL     1       5.708   4.612  19.452  0.00  0.00    +0.000 NA
ATOM      4  C   UNL     1       4.562   3.835  19.390  0.00  0.00    +0.000 A 
ATOM      5  C   UNL     1       3.663   4.468  18.556  0.00  0.00    +0.000 A 
ATOM      6  N   UNL     1       2.335   4.683  18.748  0.00  0.00    +0.000 N 
ATOM      7  C   UNL     1       1.758   4.434  19.991  0.00  0.00    +0.000 C 
ATOM      8  N   UNL     1       1.930   3.505  20.862  0.00  0.00    +0.000 NA
ATOM      9  C   UNL     1       2.788   2.385  20.491  0.00  0.00    +0.000 C 
ATOM     10  C   UNL     1       4.289   2.706  20.328  0.00  0.00    +0.000 C 
ATOM     11  H   UNL     1       1.956   5.526  18.319  0.00  0.00    +0.000 HD
ENDROOT
BRANCH  10  12
ATOM     12  O   UNL     1       4.926   1.504  19.844  0.00  0.00    +0.000 OA
ATOM     13  H   UNL     1       5.729   1.793  19.372  0.00  0.00    +0.000 HD
ENDBRANCH  10  12
BRANCH   1  14
ATOM     14  C   UNL     1       4.741   4.934  16.295  0.00  0.00    +0.000 C 
BRANCH  14  15
ATOM     15  C   UNL     1       6.244   5.001  15.881  0.00  0.00    +0.000 C 
BRANCH  15  20
ATOM     16  C   UNL     1       6.143   3.526  12.329  0.00  0.00    +0.000 A 
ATOM     17  C   UNL     1       7.195   4.221  11.712  0.00  0.00    +0.000 A 
ATOM     18  C   UNL     1       7.943   5.134  12.454  0.00  0.00    +0.000 A 
ATOM     19  C   UNL     1       7.632   5.384  13.795  0.00  0.00    +0.000 A 
ATOM     20  C   UNL     1       6.549   4.748  14.416  0.00  0.00    +0.000 A 
ATOM     21  C   UNL     1       5.821   3.802  13.672  0.00  0.00    +0.000 A 
BRANCH  16  23
ATOM     22  O   UNL     1       5.725   1.409  11.345  0.00  0.00    +0.000 OA
ATOM     23  C   UNL     1       5.330   2.536  11.584  0.00  0.00    +0.000 C 
BRANCH  23  24
ATOM     24  O   UNL     1       4.130   2.998  11.170  0.00  0.00    +0.000 OA
ATOM     25  H   UNL     1       4.160   3.706  10.503  0.00  0.00    +0.000 HD
ENDBRANCH  23  24
ENDBRANCH  16  23
ENDBRANCH  15  20
ENDBRANCH  14  15
ENDBRANCH   1  14
TORSDOF 6
ENDMDL
MODEL 7
REMARK VINA RESULT:      -7.5      1.977      3.135
REMARK  Name = 
REMARK  6 active torsions:
REMARK  status: ('A' for Active; 'I' for Inactive)
REMARK    1  A    between atoms: C_2  and  O_3
REMARK    2  A    between atoms: C_2  and  C_4
REMARK    3  A    between atoms: C_8  and  C_9
REMARK    4  A    between atoms: C_9  and  C_10
REMARK    5  A    between atoms: C_10  and  N_11
REMARK    6  A    between atoms: C_20  and  O_21
REMARK                            x       y       z     vdW  Elec       q    Type
REMARK                         _______ _______ _______ _____ _____    ______ ____
ROOT
ATOM      1  N   UNL     1       2.333   5.993  18.500  0.00  0.00    +0.000 N 
ATOM      2  C   UNL     1       2.598   6.263  19.824  0.00  0.00    +0.000 A 
ATOM      3  N   UNL     1       3.327   5.292  20.332  0.00  0.00    +0.000 NA
ATOM      4  C   UNL     1       3.217   4.250  19.424  0.00  0.00    +0.000 A 
ATOM      5  C   UNL     1       2.279   4.606  18.477  0.00  0.00    +0.000 A 
ATOM      6  N   UNL     1       1.259   3.863  17.974  0.00  0.00    +0.000 N 
ATOM      7  C   UNL     1       0.926   2.643  18.559  0.00  0.00    +0.000 C 
ATOM      8  N   UNL     1       1.634   1.690  19.050  0.00  0.00    +0.000 NA
ATOM      9  C   UNL     1       3.081   1.770  18.882  0.00  0.00    +0.000 C 
ATOM     10  C   UNL     1       3.792   2.894  19.666  0.00  0.00    +0.000 C 
ATOM     11  H   UNL     1       0.429   4.383  17.690  0.00  0.00    +0.000 HD
ENDROOT
BRANCH  10  12
ATOM     12  O   UNL     1       5.179   2.872  19.266  0.00  0.00    +0.000 OA
ATOM     13  H   UNL     1       5.617   2.216  19.838  0.00  0.00    +0.000 HD
ENDBRANCH  10  12
BRANCH   1  14
ATOM     14  C   UNL     1       2.891   6.848  17.434  0.00  0.00    +0.000 C 
BRANCH  14  15
ATOM     15  C   UNL     1       4.336   7.365  17.713  0.00  0.00    +0.000 C 
BRANCH  15  20
ATOM     16  C   UNL     1       6.622   5.063  15.644  0.00  0.00    +0.000 A 
ATOM     17  C   UNL     1       7.533   4.630  16.618  0.00  0.00    +0.000 A 
ATOM     18  C   UNL     1       7.384   5.060  17.936  0.00  0.00    +0.000 A 
ATOM     19  C   UNL     1       6.356   5.942  18.284  0.00  0.00    +0.000 A 
ATOM     20  C   UNL     1       5.470   6.436  17.317  0.00  0.00    +0.000 A 
ATOM     21  C   UNL     1       5.604   5.970  15.996  0.00  0.00    +0.000 A 
BRANCH  16  23
ATOM     22  O   UNL     1       6.143   3.646  13.803  0.00  0.00    +0.000 OA
ATOM     23  C   UNL     1       6.732   4.621  14.232  0.00  0.00    +0.000 C 
BRANCH  23  24
ATOM     24  O   UNL     1       7.562   5.372  13.476  0.00  0.00    +0.000 OA
ATOM     25  H   UNL     1       7.148   5.821  12.720  0.00  0.00    +0.000 HD
ENDBRANCH  23  24
ENDBRANCH  16  23
ENDBRANCH  15  20
ENDBRANCH  14  15
ENDBRANCH   1  14
TORSDOF 6
ENDMDL
MODEL 8
REMARK VINA RESULT:      -7.5      1.218      1.320
REMARK  Name = 
REMARK  6 active torsions:
REMARK  status: ('A' for Active; 'I' for Inactive)
REMARK    1  A    between atoms: C_2  and  O_3
REMARK    2  A    between atoms: C_2  and  C_4
REMARK    3  A    between atoms: C_8  and  C_9
REMARK    4  A    between atoms: C_9  and  C_10
REMARK    5  A    between atoms: C_10  and  N_11
REMARK    6  A    between atoms: C_20  and  O_21
REMARK                            x       y       z     vdW  Elec       q    Type
REMARK                         _______ _______ _______ _____ _____    ______ ____
ROOT
ATOM      1  N   UNL     1       5.723   6.053  18.059  0.00  0.00    +0.000 N 
ATOM      2  C   UNL     1       6.660   5.796  19.034  0.00  0.00    +0.000 A 
ATOM      3  N   UNL     1       6.336   4.692  19.673  0.00  0.00    +0.000 NA
ATOM      4  C   UNL     1       5.013   4.456  19.332  0.00  0.00    +0.000 A 
ATOM      5  C   UNL     1       4.558   5.544  18.615  0.00  0.00    +0.000 A 
ATOM      6  N   UNL     1       3.386   6.219  18.753  0.00  0.00    +0.000 N 
ATOM      7  C   UNL     1       2.561   5.972  19.847  0.00  0.00    +0.000 C 
ATOM      8  N   UNL     1       2.236   4.896  20.470  0.00  0.00    +0.000 NA
ATOM      9  C   UNL     1       2.678   3.628  19.898  0.00  0.00    +0.000 C 
ATOM     10  C   UNL     1       4.197   3.361  19.935  0.00  0.00    +0.000 C 
ATOM     11  H   UNL     1       3.416   7.211  18.520  0.00  0.00    +0.000 HD
ENDROOT
BRANCH  10  12
ATOM     12  O   UNL     1       4.426   2.129  19.217  0.00  0.00    +0.000 OA
ATOM     13  H   UNL     1       4.276   2.331  18.275  0.00  0.00    +0.000 HD
ENDBRANCH  10  12
BRANCH   1  14
ATOM     14  C   UNL     1       6.091   5.994  16.631  0.00  0.00    +0.000 C 
BRANCH  14  15
ATOM     15  C   UNL     1       5.653   4.683  15.908  0.00  0.00    +0.000 C 
BRANCH  15  20
ATOM     16  C   UNL     1       6.038   3.371  12.312  0.00  0.00    +0.000 A 
ATOM     17  C   UNL     1       7.134   4.122  11.859  0.00  0.00    +0.000 A 
ATOM     18  C   UNL     1       7.755   5.020  12.726  0.00  0.00    +0.000 A 
ATOM     19  C   UNL     1       7.273   5.200  14.027  0.00  0.00    +0.000 A 
ATOM     20  C   UNL     1       6.144   4.506  14.482  0.00  0.00    +0.000 A 
ATOM     21  C   UNL     1       5.545   3.575  13.614  0.00  0.00    +0.000 A 
BRANCH  16  23
ATOM     22  O   UNL     1       4.283   2.623  10.902  0.00  0.00    +0.000 OA
ATOM     23  C   UNL     1       5.356   2.393  11.430  0.00  0.00    +0.000 C 
BRANCH  23  24
ATOM     24  O   UNL     1       6.009   1.219  11.288  0.00  0.00    +0.000 OA
ATOM     25  H   UNL     1       6.798   1.108  11.846  0.00  0.00    +0.000 HD
ENDBRANCH  23  24
ENDBRANCH  16  23
ENDBRANCH  15  20
ENDBRANCH  14  15
ENDBRANCH   1  14
TORSDOF 6
ENDMDL
MODEL 9
REMARK VINA RESULT:      -7.5      4.697      8.165
REMARK  Name = 
REMARK  6 active torsions:
REMARK  status: ('A' for Active; 'I' for Inactive)
REMARK    1  A    between atoms: C_2  and  O_3
REMARK    2  A    between atoms: C_2  and  C_4
REMARK    3  A    between atoms: C_8  and  C_9
REMARK    4  A    between atoms: C_9  and  C_10
REMARK    5  A    between atoms: C_10  and  N_11
REMARK    6  A    between atoms: C_20  and  O_21
REMARK                            x       y       z     vdW  Elec       q    Type
REMARK                         _______ _______ _______ _____ _____    ______ ____
ROOT
ATOM      1  N   UNL     1       3.240   4.962  17.665  0.00  0.00    +0.000 N 
ATOM      2  C   UNL     1       3.336   3.677  18.148  0.00  0.00    +0.000 A 
ATOM      3  N   UNL     1       4.515   3.508  18.710  0.00  0.00    +0.000 NA
ATOM      4  C   UNL     1       5.281   4.574  18.263  0.00  0.00    +0.000 A 
ATOM      5  C   UNL     1       4.550   5.253  17.310  0.00  0.00    +0.000 A 
ATOM      6  N   UNL     1       4.958   5.712  16.097  0.00  0.00    +0.000 N 
ATOM      7  C   UNL     1       6.198   5.336  15.587  0.00  0.00    +0.000 C 
ATOM      8  N   UNL     1       7.352   5.176  16.130  0.00  0.00    +0.000 NA
ATOM      9  C   UNL     1       7.500   5.571  17.527  0.00  0.00    +0.000 C 
ATOM     10  C   UNL     1       6.737   4.713  18.558  0.00  0.00    +0.000 C 
ATOM     11  H   UNL     1       4.244   5.738  15.370  0.00  0.00    +0.000 HD
ENDROOT
BRANCH  10  12
ATOM     12  O   UNL     1       6.917   5.342  19.845  0.00  0.00    +0.000 OA
ATOM     13  H   UNL     1       6.517   4.741  20.500  0.00  0.00    +0.000 HD
ENDBRANCH  10  12
BRANCH   1  14
ATOM     14  C   UNL     1       2.277   5.914  18.252  0.00  0.00    +0.000 C 
BRANCH  14  15
ATOM     15  C   UNL     1       2.808   7.377  18.369  0.00  0.00    +0.000 C 
BRANCH  15  20
ATOM     16  C   UNL     1       0.510   9.289  20.790  0.00  0.00    +0.000 A 
ATOM     17  C   UNL     1      -0.042  10.259  19.939  0.00  0.00    +0.000 A 
ATOM     18  C   UNL     1       0.308  10.267  18.590  0.00  0.00    +0.000 A 
ATOM     19  C   UNL     1       1.228   9.340  18.090  0.00  0.00    +0.000 A 
ATOM     20  C   UNL     1       1.839   8.401  18.931  0.00  0.00    +0.000 A 
ATOM     21  C   UNL     1       1.453   8.374  20.284  0.00  0.00    +0.000 A 
BRANCH  16  23
ATOM     22  O   UNL     1       0.718   9.908  23.071  0.00  0.00    +0.000 OA
ATOM     23  C   UNL     1       0.155   9.232  22.229  0.00  0.00    +0.000 C 
BRANCH  23  24
ATOM     24  O   UNL     1      -0.823   8.349  22.528  0.00  0.00    +0.000 OA
ATOM     25  H   UNL     1      -0.591   7.412  22.413  0.00  0.00    +0.000 HD
ENDBRANCH  23  24
ENDBRANCH  16  23
ENDBRANCH  15  20
ENDBRANCH  14  15
ENDBRANCH   1  14
TORSDOF 6
ENDMDL
