MODEL 1
REMARK VINA RESULT:      -8.1      0.000      0.000
REMARK  Name = 
REMARK  5 active torsions:
REMARK  status: ('A' for Active; 'I' for Inactive)
REMARK    1  A    between atoms: C_1  and  C_2
REMARK    2  A    between atoms: C_6  and  O_7
REMARK    3  A    between atoms: O_7  and  C_8
REMARK    4  A    between atoms: C_8  and  C_9
REMARK    5  A    between atoms: C_12  and  C_13
REMARK                            x       y       z     vdW  Elec       q    Type
REMARK                         _______ _______ _______ _____ _____    ______ ____
ROOT
ATOM      1  C   UNL     1       2.380   6.462  19.844  0.00  0.00    +0.000 A 
ATOM      2  N   UNL     1       3.292   6.178  18.951  0.00  0.00    +0.000 NA
ATOM      3  N   UNL     1       3.493   4.831  19.047  0.00  0.00    +0.000 N 
ATOM      4  C   UNL     1       4.315   3.934  18.403  0.00  0.00    +0.000 A 
ATOM      5  N   UNL     1       4.086   2.738  18.946  0.00  0.00    +0.000 NA
ATOM      6  N   UNL     1       3.121   2.858  19.943  0.00  0.00    +0.000 NA
ATOM      7  C   UNL     1       2.796   4.114  19.958  0.00  0.00    +0.000 A 
ATOM      8  S   UNL     1       1.730   5.126  20.827  0.00  0.00    +0.000 S 
ENDROOT
BRANCH   4   9
ATOM      9  C   UNL     1       5.259   4.270  17.325  0.00  0.00    +0.000 A 
ATOM     10  C   UNL     1       4.957   3.900  15.998  0.00  0.00    +0.000 A 
ATOM     11  C   UNL     1       5.805   4.224  14.936  0.00  0.00    +0.000 A 
ATOM     12  C   UNL     1       6.986   4.912  15.176  0.00  0.00    +0.000 A 
ATOM     13  C   UNL     1       7.321   5.269  16.480  0.00  0.00    +0.000 A 
ATOM     14  C   UNL     1       6.467   4.954  17.549  0.00  0.00    +0.000 A 
ATOM     15 CL   UNL     1       6.978   5.493  19.114  0.00  0.00    +0.000 Cl
ENDBRANCH   4   9
BRANCH   1  16
ATOM     16  C   UNL     1       1.868   7.856  20.098  0.00  0.00    +0.000 C 
BRANCH  16  17
ATOM     17  O   UNL     1       0.944   7.838  21.176  0.00  0.00    +0.000 OA
BRANCH  17  23
ATOM     18  C   UNL     1      -1.110  12.141  19.749  0.00  0.00    +0.000 C 
ATOM     19  C   UNL     1      -0.759  11.133  20.806  0.00  0.00    +0.000 A 
ATOM     20  C   UNL     1      -1.099  11.346  22.146  0.00  0.00    +0.000 A 
ATOM     21  C   UNL     1      -0.761  10.401  23.112  0.00  0.00    +0.000 A 
ATOM     22  C   UNL     1      -0.079   9.238  22.747  0.00  0.00    +0.000 A 
ATOM     23  C   UNL     1       0.272   9.011  21.414  0.00  0.00    +0.000 A 
ATOM     24  C   UNL     1      -0.074   9.963  20.449  0.00  0.00    +0.000 A 
ENDBRANCH  17  23
ENDBRANCH  16  17
ENDBRANCH   1  16
TORSDOF 4
ENDMDL
MODEL 2
REMARK VINA RESULT:      -7.8      4.540      8.748
REMARK  Name = 
REMARK  5 active torsions:
REMARK  status: ('A' for Active; 'I' for Inactive)
REMARK    1  A    between atoms: C_1  and  C_2
REMARK    2  A    between atoms: C_6  and  O_7
REMARK    3  A    between atoms: O_7  and  C_8
REMARK    4  A    between atoms: C_8  and  C_9
REMARK    5  A    between atoms: C_12  and  C_13
REMARK                            x       y       z     vdW  Elec       q    Type
REMARK                         _______ _______ _______ _____ _____    ______ ____
ROOT
ATOM      1  C   UNL     1       5.698   5.255  16.969  0.00  0.00    +0.000 A 
ATOM      2  N   UNL     1       4.843   4.715  17.797  0.00  0.00    +0.000 NA
ATOM      3  N   UNL     1       3.965   5.710  18.119  0.00  0.00    +0.000 N 
ATOM      4  C   UNL     1       2.861   5.789  18.937  0.00  0.00    +0.000 A 
ATOM      5  N   UNL     1       2.417   7.045  18.870  0.00  0.00    +0.000 NA
ATOM      6  N   UNL     1       3.233   7.780  18.013  0.00  0.00    +0.000 NA
ATOM      7  C   UNL     1       4.129   6.943  17.589  0.00  0.00    +0.000 A 
ATOM      8  S   UNL     1       5.480   6.971  16.544  0.00  0.00    +0.000 S 
ENDROOT
BRANCH   4   9
ATOM      9  C   UNL     1       2.306   4.677  19.725  0.00  0.00    +0.000 A 
ATOM     10  C   UNL     1       2.584   4.599  21.106  0.00  0.00    +0.000 A 
ATOM     11  C   UNL     1       2.055   3.581  21.904  0.00  0.00    +0.000 A 
ATOM     12  C   UNL     1       1.248   2.604  21.337  0.00  0.00    +0.000 A 
ATOM     13  C   UNL     1       0.976   2.644  19.972  0.00  0.00    +0.000 A 
ATOM     14  C   UNL     1       1.498   3.670  19.168  0.00  0.00    +0.000 A 
ATOM     15 CL   UNL     1       1.049   3.628  17.496  0.00  0.00    +0.000 Cl
ENDBRANCH   4   9
BRANCH   1  16
ATOM     16  C   UNL     1       6.866   4.511  16.373  0.00  0.00    +0.000 C 
BRANCH  16  17
ATOM     17  O   UNL     1       7.481   5.307  15.372  0.00  0.00    +0.000 OA
BRANCH  17  23
ATOM     18  C   UNL     1       5.336   2.472  11.890  0.00  0.00    +0.000 C 
ATOM     19  C   UNL     1       6.270   3.573  12.303  0.00  0.00    +0.000 A 
ATOM     20  C   UNL     1       7.017   4.279  11.354  0.00  0.00    +0.000 A 
ATOM     21  C   UNL     1       7.881   5.295  11.758  0.00  0.00    +0.000 A 
ATOM     22  C   UNL     1       8.006   5.611  13.113  0.00  0.00    +0.000 A 
ATOM     23  C   UNL     1       7.271   4.914  14.074  0.00  0.00    +0.000 A 
ATOM     24  C   UNL     1       6.404   3.897  13.661  0.00  0.00    +0.000 A 
ENDBRANCH  17  23
ENDBRANCH  16  17
ENDBRANCH   1  16
TORSDOF 4
ENDMDL
MODEL 3
REMARK VINA RESULT:      -7.8      4.285      5.690
REMARK  Name = 
REMARK  5 active torsions:
REMARK  status: ('A' for Active; 'I' for Inactive)
REMARK    1  A    between atoms: C_1  and  C_2
REMARK    2  A    between atoms: C_6  and  O_7
REMARK    3  A    between atoms: O_7  and  C_8
REMARK    4  A    between atoms: C_8  and  C_9
REMARK    5  A    between atoms: C_12  and  C_13
REMARK                            x       y       z     vdW  Elec       q    Type
REMARK                         _______ _______ _______ _____ _____    ______ ____
ROOT
ATOM      1  C   UNL     1       4.414   5.960  17.756  0.00  0.00    +0.000 A 
ATOM      2  N   UNL     1       4.753   5.579  16.552  0.00  0.00    +0.000 NA
ATOM      3  N   UNL     1       6.011   5.062  16.671  0.00  0.00    +0.000 N 
ATOM      4  C   UNL     1       6.911   4.514  15.785  0.00  0.00    +0.000 A 
ATOM      5  N   UNL     1       8.004   4.205  16.485  0.00  0.00    +0.000 NA
ATOM      6  N   UNL     1       7.815   4.554  17.820  0.00  0.00    +0.000 NA
ATOM      7  C   UNL     1       6.617   5.050  17.879  0.00  0.00    +0.000 A 
ATOM      8  S   UNL     1       5.589   5.710  19.072  0.00  0.00    +0.000 S 
ENDROOT
BRANCH   4   9
ATOM      9  C   UNL     1       6.679   4.326  14.345  0.00  0.00    +0.000 A 
ATOM     10  C   UNL     1       5.582   3.551  13.915  0.00  0.00    +0.000 A 
ATOM     11  C   UNL     1       5.299   3.368  12.559  0.00  0.00    +0.000 A 
ATOM     12  C   UNL     1       6.118   3.943  11.596  0.00  0.00    +0.000 A 
ATOM     13  C   UNL     1       7.222   4.695  11.993  0.00  0.00    +0.000 A 
ATOM     14  C   UNL     1       7.504   4.888  13.355  0.00  0.00    +0.000 A 
ATOM     15 CL   UNL     1       8.879   5.878  13.713  0.00  0.00    +0.000 Cl
ENDBRANCH   4   9
BRANCH   1  16
ATOM     16  C   UNL     1       3.097   6.615  18.084  0.00  0.00    +0.000 C 
BRANCH  16  17
ATOM     17  O   UNL     1       2.029   5.761  17.704  0.00  0.00    +0.000 OA
BRANCH  17  23
ATOM     18  C   UNL     1       1.495   2.872  21.721  0.00  0.00    +0.000 C 
ATOM     19  C   UNL     1       1.724   3.054  20.248  0.00  0.00    +0.000 A 
ATOM     20  C   UNL     1       1.915   1.952  19.407  0.00  0.00    +0.000 A 
ATOM     21  C   UNL     1       2.130   2.143  18.043  0.00  0.00    +0.000 A 
ATOM     22  C   UNL     1       2.159   3.433  17.511  0.00  0.00    +0.000 A 
ATOM     23  C   UNL     1       1.974   4.544  18.337  0.00  0.00    +0.000 A 
ATOM     24  C   UNL     1       1.756   4.346  19.704  0.00  0.00    +0.000 A 
ENDBRANCH  17  23
ENDBRANCH  16  17
ENDBRANCH   1  16
TORSDOF 4
ENDMDL
MODEL 4
REMARK VINA RESULT:      -7.8      1.878      2.517
REMARK  Name = 
REMARK  5 active torsions:
REMARK  status: ('A' for Active; 'I' for Inactive)
REMARK    1  A    between atoms: C_1  and  C_2
REMARK    2  A    between atoms: C_6  and  O_7
REMARK    3  A    between atoms: O_7  and  C_8
REMARK    4  A    between atoms: C_8  and  C_9
REMARK    5  A    between atoms: C_12  and  C_13
REMARK                            x       y       z     vdW  Elec       q    Type
REMARK                         _______ _______ _______ _____ _____    ______ ____
ROOT
ATOM      1  C   UNL     1       2.383   8.135  18.466  0.00  0.00    +0.000 A 
ATOM      2  N   UNL     1       3.270   7.420  17.826  0.00  0.00    +0.000 NA
ATOM      3  N   UNL     1       3.438   6.289  18.572  0.00  0.00    +0.000 N 
ATOM      4  C   UNL     1       4.225   5.166  18.450  0.00  0.00    +0.000 A 
ATOM      5  N   UNL     1       3.975   4.400  19.512  0.00  0.00    +0.000 NA
ATOM      6  N   UNL     1       3.031   5.025  20.324  0.00  0.00    +0.000 NA
ATOM      7  C   UNL     1       2.740   6.136  19.720  0.00  0.00    +0.000 A 
ATOM      8  S   UNL     1       1.716   7.478  19.982  0.00  0.00    +0.000 S 
ENDROOT
BRANCH   4   9
ATOM      9  C   UNL     1       5.156   4.898  17.344  0.00  0.00    +0.000 A 
ATOM     10  C   UNL     1       4.651   4.465  16.100  0.00  0.00    +0.000 A 
ATOM     11  C   UNL     1       5.492   4.229  15.009  0.00  0.00    +0.000 A 
ATOM     12  C   UNL     1       6.863   4.402  15.139  0.00  0.00    +0.000 A 
ATOM     13  C   UNL     1       7.391   4.806  16.363  0.00  0.00    +0.000 A 
ATOM     14  C   UNL     1       6.549   5.054  17.459  0.00  0.00    +0.000 A 
ATOM     15 CL   UNL     1       7.328   5.593  18.909  0.00  0.00    +0.000 Cl
ENDBRANCH   4   9
BRANCH   1  16
ATOM     16  C   UNL     1       1.911   9.490  18.003  0.00  0.00    +0.000 C 
BRANCH  16  17
ATOM     17  O   UNL     1       1.166  10.117  19.035  0.00  0.00    +0.000 OA
BRANCH  17  23
ATOM     18  C   UNL     1      -2.948   9.848  16.248  0.00  0.00    +0.000 C 
ATOM     19  C   UNL     1      -2.179  10.399  17.415  0.00  0.00    +0.000 A 
ATOM     20  C   UNL     1      -2.750  11.345  18.272  0.00  0.00    +0.000 A 
ATOM     21  C   UNL     1      -2.017  11.847  19.347  0.00  0.00    +0.000 A 
ATOM     22  C   UNL     1      -0.710  11.409  19.569  0.00  0.00    +0.000 A 
ATOM     23  C   UNL     1      -0.123  10.467  18.721  0.00  0.00    +0.000 A 
ATOM     24  C   UNL     1      -0.866   9.966  17.646  0.00  0.00    +0.000 A 
ENDBRANCH  17  23
ENDBRANCH  16  17
ENDBRANCH   1  16
TORSDOF 4
ENDMDL
MODEL 5
REMARK VINA RESULT:      -7.7      4.698      8.896
REMARK  Name = 
REMARK  5 active torsions:
REMARK  status: ('A' for Active; 'I' for Inactive)
REMARK    1  A    between atoms: C_1  and  C_2
REMARK    2  A    between atoms: C_6  and  O_7
REMARK    3  A    between atoms: O_7  and  C_8
REMARK    4  A    between atoms: C_8  and  C_9
REMARK    5  A    between atoms: C_12  and  C_13
REMARK                            x       y       z     vdW  Elec       q    Type
REMARK                         _______ _______ _______ _____ _____    ______ ____
ROOT
ATOM      1  C   UNL     1       5.672   5.069  15.917  0.00  0.00    +0.000 A 
ATOM      2  N   UNL     1       4.698   4.679  16.697  0.00  0.00    +0.000 NA
ATOM      3  N   UNL     1       5.224   4.649  17.956  0.00  0.00    +0.000 N 
ATOM      4  C   UNL     1       4.728   4.318  19.197  0.00  0.00    +0.000 A 
ATOM      5  N   UNL     1       5.730   4.458  20.065  0.00  0.00    +0.000 NA
ATOM      6  N   UNL     1       6.875   4.874  19.390  0.00  0.00    +0.000 NA
ATOM      7  C   UNL     1       6.521   4.980  18.146  0.00  0.00    +0.000 A 
ATOM      8  S   UNL     1       7.252   5.415  16.665  0.00  0.00    +0.000 S 
ENDROOT
BRANCH   4   9
ATOM      9  C   UNL     1       3.347   3.892  19.473  0.00  0.00    +0.000 A 
ATOM     10  C   UNL     1       2.496   4.736  20.216  0.00  0.00    +0.000 A 
ATOM     11  C   UNL     1       1.167   4.391  20.477  0.00  0.00    +0.000 A 
ATOM     12  C   UNL     1       0.660   3.184  20.016  0.00  0.00    +0.000 A 
ATOM     13  C   UNL     1       1.485   2.321  19.300  0.00  0.00    +0.000 A 
ATOM     14  C   UNL     1       2.818   2.668  19.027  0.00  0.00    +0.000 A 
ATOM     15 CL   UNL     1       3.724   1.527  18.090  0.00  0.00    +0.000 Cl
ENDBRANCH   4   9
BRANCH   1  16
ATOM     16  C   UNL     1       5.536   5.220  14.423  0.00  0.00    +0.000 C 
BRANCH  16  17
ATOM     17  O   UNL     1       6.463   4.366  13.769  0.00  0.00    +0.000 OA
BRANCH  17  23
ATOM     18  C   UNL     1       2.956   3.143  10.456  0.00  0.00    +0.000 C 
ATOM     19  C   UNL     1       4.300   2.933  11.093  0.00  0.00    +0.000 A 
ATOM     20  C   UNL     1       5.143   1.899  10.672  0.00  0.00    +0.000 A 
ATOM     21  C   UNL     1       6.385   1.719  11.278  0.00  0.00    +0.000 A 
ATOM     22  C   UNL     1       6.791   2.567  12.310  0.00  0.00    +0.000 A 
ATOM     23  C   UNL     1       5.961   3.602  12.746  0.00  0.00    +0.000 A 
ATOM     24  C   UNL     1       4.717   3.779  12.130  0.00  0.00    +0.000 A 
ENDBRANCH  17  23
ENDBRANCH  16  17
ENDBRANCH   1  16
TORSDOF 4
ENDMDL
MODEL 6
REMARK VINA RESULT:      -7.7      0.684      1.419
REMARK  Name = 
REMARK  5 active torsions:
REMARK  status: ('A' for Active; 'I' for Inactive)
REMARK    1  A    between atoms: C_1  and  C_2
REMARK    2  A    between atoms: C_6  and  O_7
REMARK    3  A    between atoms: O_7  and  C_8
REMARK    4  A    between atoms: C_8  and  C_9
REMARK    5  A    between atoms: C_12  and  C_13
REMARK                            x       y       z     vdW  Elec       q    Type
REMARK                         _______ _______ _______ _____ _____    ______ ____
ROOT
ATOM      1  C   UNL     1       2.488   6.781  19.360  0.00  0.00    +0.000 A 
ATOM      2  N   UNL     1       3.369   6.389  18.477  0.00  0.00    +0.000 NA
ATOM      3  N   UNL     1       3.659   5.094  18.797  0.00  0.00    +0.000 N 
ATOM      4  C   UNL     1       4.501   4.141  18.272  0.00  0.00    +0.000 A 
ATOM      5  N   UNL     1       4.376   3.052  19.032  0.00  0.00    +0.000 NA
ATOM      6  N   UNL     1       3.458   3.299  20.050  0.00  0.00    +0.000 NA
ATOM      7  C   UNL     1       3.056   4.518  19.862  0.00  0.00    +0.000 A 
ATOM      8  S   UNL     1       1.975   5.613  20.603  0.00  0.00    +0.000 S 
ENDROOT
BRANCH   4   9
ATOM      9  C   UNL     1       5.365   4.326  17.096  0.00  0.00    +0.000 A 
ATOM     10  C   UNL     1       4.873   4.000  15.815  0.00  0.00    +0.000 A 
ATOM     11  C   UNL     1       5.642   4.188  14.664  0.00  0.00    +0.000 A 
ATOM     12  C   UNL     1       6.932   4.691  14.766  0.00  0.00    +0.000 A 
ATOM     13  C   UNL     1       7.452   5.001  16.021  0.00  0.00    +0.000 A 
ATOM     14  C   UNL     1       6.679   4.822  17.179  0.00  0.00    +0.000 A 
ATOM     15 CL   UNL     1       7.427   5.285  18.671  0.00  0.00    +0.000 Cl
ENDBRANCH   4   9
BRANCH   1  16
ATOM     16  C   UNL     1       1.903   8.170  19.396  0.00  0.00    +0.000 C 
BRANCH  16  17
ATOM     17  O   UNL     1       1.207   8.366  20.617  0.00  0.00    +0.000 OA
BRANCH  17  23
ATOM     18  C   UNL     1      -1.424  11.804  23.073  0.00  0.00    +0.000 C 
ATOM     19  C   UNL     1      -0.916  11.194  21.798  0.00  0.00    +0.000 A 
ATOM     20  C   UNL     1      -1.264  11.729  20.553  0.00  0.00    +0.000 A 
ATOM     21  C   UNL     1      -0.786  11.145  19.382  0.00  0.00    +0.000 A 
ATOM     22  C   UNL     1       0.041  10.022  19.446  0.00  0.00    +0.000 A 
ATOM     23  C   UNL     1       0.396   9.472  20.679  0.00  0.00    +0.000 A 
ATOM     24  C   UNL     1      -0.085  10.065  21.851  0.00  0.00    +0.000 A 
ENDBRANCH  17  23
ENDBRANCH  16  17
ENDBRANCH   1  16
TORSDOF 4
ENDMDL
MODEL 7
REMARK VINA RESULT:      -7.7      1.009      1.098
REMARK  Name = 
REMARK  5 active torsions:
REMARK  status: ('A' for Active; 'I' for Inactive)
REMARK    1  A    between atoms: C_1  and  C_2
REMARK    2  A    between atoms: C_6  and  O_7
REMARK    3  A    between atoms: O_7  and  C_8
REMARK    4  A    between atoms: C_8  and  C_9
REMARK    5  A    between atoms: C_12  and  C_13
REMARK                            x       y       z     vdW  Elec       q    Type
REMARK                         _______ _______ _______ _____ _____    ______ ____
ROOT
ATOM      1  C   UNL     1       2.001   5.312  20.129  0.00  0.00    +0.000 A 
ATOM      2  N   UNL     1       2.971   5.350  19.254  0.00  0.00    +0.000 NA
ATOM      3  N   UNL     1       3.140   4.062  18.835  0.00  0.00    +0.000 N 
ATOM      4  C   UNL     1       3.991   3.445  17.947  0.00  0.00    +0.000 A 
ATOM      5  N   UNL     1       3.701   2.143  17.973  0.00  0.00    +0.000 NA
ATOM      6  N   UNL     1       2.667   1.915  18.878  0.00  0.00    +0.000 NA
ATOM      7  C   UNL     1       2.365   3.084  19.355  0.00  0.00    +0.000 A 
ATOM      8  S   UNL     1       1.256   3.732  20.481  0.00  0.00    +0.000 S 
ENDROOT
BRANCH   4   9
ATOM      9  C   UNL     1       5.018   4.124  17.142  0.00  0.00    +0.000 A 
ATOM     10  C   UNL     1       4.959   4.049  15.735  0.00  0.00    +0.000 A 
ATOM     11  C   UNL     1       5.892   4.703  14.926  0.00  0.00    +0.000 A 
ATOM     12  C   UNL     1       6.918   5.437  15.504  0.00  0.00    +0.000 A 
ATOM     13  C   UNL     1       7.013   5.510  16.892  0.00  0.00    +0.000 A 
ATOM     14  C   UNL     1       6.073   4.861  17.709  0.00  0.00    +0.000 A 
ATOM     15 CL   UNL     1       6.280   5.067  19.416  0.00  0.00    +0.000 Cl
ENDBRANCH   4   9
BRANCH   1  16
ATOM     16  C   UNL     1       1.496   6.524  20.869  0.00  0.00    +0.000 C 
BRANCH  16  17
ATOM     17  O   UNL     1       1.879   7.702  20.176  0.00  0.00    +0.000 OA
BRANCH  17  23
ATOM     18  C   UNL     1      -0.564  11.805  18.774  0.00  0.00    +0.000 C 
ATOM     19  C   UNL     1      -0.095  10.845  19.830  0.00  0.00    +0.000 A 
ATOM     20  C   UNL     1      -0.403  11.050  21.179  0.00  0.00    +0.000 A 
ATOM     21  C   UNL     1       0.044  10.149  22.143  0.00  0.00    +0.000 A 
ATOM     22  C   UNL     1       0.804   9.040  21.767  0.00  0.00    +0.000 A 
ATOM     23  C   UNL     1       1.124   8.821  20.425  0.00  0.00    +0.000 A 
ATOM     24  C   UNL     1       0.668   9.728  19.462  0.00  0.00    +0.000 A 
ENDBRANCH  17  23
ENDBRANCH  16  17
ENDBRANCH   1  16
TORSDOF 4
ENDMDL
MODEL 8
REMARK VINA RESULT:      -7.6      1.897      2.471
REMARK  Name = 
REMARK  5 active torsions:
REMARK  status: ('A' for Active; 'I' for Inactive)
REMARK    1  A    between atoms: C_1  and  C_2
REMARK    2  A    between atoms: C_6  and  O_7
REMARK    3  A    between atoms: O_7  and  C_8
REMARK    4  A    between atoms: C_8  and  C_9
REMARK    5  A    between atoms: C_12  and  C_13
REMARK                            x       y       z     vdW  Elec       q    Type
REMARK                         _______ _______ _______ _____ _____    ______ ____
ROOT
ATOM      1  C   UNL     1       2.474   8.024  18.329  0.00  0.00    +0.000 A 
ATOM      2  N   UNL     1       3.347   7.380  17.600  0.00  0.00    +0.000 NA
ATOM      3  N   UNL     1       3.655   6.253  18.306  0.00  0.00    +0.000 N 
ATOM      4  C   UNL     1       4.502   5.188  18.093  0.00  0.00    +0.000 A 
ATOM      5  N   UNL     1       4.398   4.392  19.158  0.00  0.00    +0.000 NA
ATOM      6  N   UNL     1       3.490   4.940  20.061  0.00  0.00    +0.000 NA
ATOM      7  C   UNL     1       3.073   6.037  19.506  0.00  0.00    +0.000 A 
ATOM      8  S   UNL     1       1.989   7.302  19.883  0.00  0.00    +0.000 S 
ENDROOT
BRANCH   4   9
ATOM      9  C   UNL     1       5.348   5.000  16.906  0.00  0.00    +0.000 A 
ATOM     10  C   UNL     1       4.813   4.369  15.764  0.00  0.00    +0.000 A 
ATOM     11  C   UNL     1       5.566   4.196  14.600  0.00  0.00    +0.000 A 
ATOM     12  C   UNL     1       6.882   4.635  14.554  0.00  0.00    +0.000 A 
ATOM     13  C   UNL     1       7.444   5.241  15.674  0.00  0.00    +0.000 A 
ATOM     14  C   UNL     1       6.688   5.425  16.843  0.00  0.00    +0.000 A 
ATOM     15 CL   UNL     1       7.491   6.231  18.149  0.00  0.00    +0.000 Cl
ENDBRANCH   4   9
BRANCH   1  16
ATOM     16  C   UNL     1       1.874   9.350  17.935  0.00  0.00    +0.000 C 
BRANCH  16  17
ATOM     17  O   UNL     1       1.227   9.935  19.055  0.00  0.00    +0.000 OA
BRANCH  17  23
ATOM     18  C   UNL     1      -2.696  12.787  20.168  0.00  0.00    +0.000 C 
ATOM     19  C   UNL     1      -2.013  11.759  19.312  0.00  0.00    +0.000 A 
ATOM     20  C   UNL     1      -2.665  11.186  18.215  0.00  0.00    +0.000 A 
ATOM     21  C   UNL     1      -2.015  10.231  17.436  0.00  0.00    +0.000 A 
ATOM     22  C   UNL     1      -0.711   9.841  17.748  0.00  0.00    +0.000 A 
ATOM     23  C   UNL     1      -0.047  10.399  18.842  0.00  0.00    +0.000 A 
ATOM     24  C   UNL     1      -0.704  11.360  19.618  0.00  0.00    +0.000 A 
ENDBRANCH  17  23
ENDBRANCH  16  17
ENDBRANCH   1  16
TORSDOF 4
ENDMDL
MODEL 9
REMARK VINA RESULT:      -7.6      1.415      2.243
REMARK  Name = 
REMARK  5 active torsions:
REMARK  status: ('A' for Active; 'I' for Inactive)
REMARK    1  A    between atoms: C_1  and  C_2
REMARK    2  A    between atoms: C_6  and  O_7
REMARK    3  A    between atoms: O_7  and  C_8
REMARK    4  A    between atoms: C_8  and  C_9
REMARK    5  A    between atoms: C_12  and  C_13
REMARK                            x       y       z     vdW  Elec       q    Type
REMARK                         _______ _______ _______ _____ _____    ______ ____
ROOT
ATOM      1  C   UNL     1       1.933   5.431  20.538  0.00  0.00    +0.000 A 
ATOM      2  N   UNL     1       3.040   5.661  19.881  0.00  0.00    +0.000 NA
ATOM      3  N   UNL     1       3.660   4.450  19.770  0.00  0.00    +0.000 N 
ATOM      4  C   UNL     1       4.843   4.024  19.210  0.00  0.00    +0.000 A 
ATOM      5  N   UNL     1       4.930   2.713  19.437  0.00  0.00    +0.000 NA
ATOM      6  N   UNL     1       3.809   2.289  20.147  0.00  0.00    +0.000 NA
ATOM      7  C   UNL     1       3.084   3.353  20.312  0.00  0.00    +0.000 A 
ATOM      8  S   UNL     1       1.595   3.757  21.043  0.00  0.00    +0.000 S 
ENDROOT
BRANCH   4   9
ATOM      9  C   UNL     1       5.806   4.883  18.504  0.00  0.00    +0.000 A 
ATOM     10  C   UNL     1       6.770   5.598  19.245  0.00  0.00    +0.000 A 
ATOM     11  C   UNL     1       7.727   6.402  18.619  0.00  0.00    +0.000 A 
ATOM     12  C   UNL     1       7.733   6.525  17.237  0.00  0.00    +0.000 A 
ATOM     13  C   UNL     1       6.778   5.848  16.482  0.00  0.00    +0.000 A 
ATOM     14  C   UNL     1       5.820   5.032  17.106  0.00  0.00    +0.000 A 
ATOM     15 CL   UNL     1       4.718   4.212  16.051  0.00  0.00    +0.000 Cl
ENDBRANCH   4   9
BRANCH   1  16
ATOM     16  C   UNL     1       0.943   6.507  20.906  0.00  0.00    +0.000 C 
BRANCH  16  17
ATOM     17  O   UNL     1       1.626   7.732  21.123  0.00  0.00    +0.000 OA
BRANCH  17  23
ATOM     18  C   UNL     1      -1.368  11.169  23.121  0.00  0.00    +0.000 C 
ATOM     19  C   UNL     1      -0.610  10.596  21.958  0.00  0.00    +0.000 A 
ATOM     20  C   UNL     1      -0.655  11.202  20.698  0.00  0.00    +0.000 A 
ATOM     21  C   UNL     1       0.052  10.651  19.631  0.00  0.00    +0.000 A 
ATOM     22  C   UNL     1       0.805   9.490  19.815  0.00  0.00    +0.000 A 
ATOM     23  C   UNL     1       0.859   8.869  21.064  0.00  0.00    +0.000 A 
ATOM     24  C   UNL     1       0.149   9.429  22.132  0.00  0.00    +0.000 A 
ENDBRANCH  17  23
ENDBRANCH  16  17
ENDBRANCH   1  16
TORSDOF 4
ENDMDL
