MODEL 1
REMARK VINA RESULT:      -6.1      0.000      0.000
REMARK  Name = 
REMARK  1 active torsions:
REMARK  status: ('A' for Active; 'I' for Inactive)
REMARK    1  A    between atoms: C_4  and  C_5
REMARK                            x       y       z     vdW  Elec       q    Type
REMARK                         _______ _______ _______ _____ _____    ______ ____
ROOT
ATOM      1  C   UNL     1       1.333   2.830  18.499  0.00  0.00    +0.000 A 
ATOM      2  C   UNL     1       1.473   4.160  18.127  0.00  0.00    +0.000 A 
ATOM      3  C   UNL     1       2.697   4.605  17.631  0.00  0.00    +0.000 A 
ATOM      4  C   UNL     1       3.761   3.707  17.523  0.00  0.00    +0.000 A 
ATOM      5  N   UNL     1       3.624   2.401  17.873  0.00  0.00    +0.000 NA
ATOM      6  C   UNL     1       2.427   1.997  18.352  0.00  0.00    +0.000 A 
ENDROOT
BRANCH   4   7
ATOM      7  C   UNL     1       5.093   4.103  17.022  0.00  0.00    +0.000 A 
ATOM      8  C   UNL     1       5.392   4.146  15.652  0.00  0.00    +0.000 A 
ATOM      9  C   UNL     1       6.666   4.512  15.243  0.00  0.00    +0.000 A 
ATOM     10  N   UNL     1       7.660   4.840  16.090  0.00  0.00    +0.000 NA
ATOM     11  C   UNL     1       7.362   4.813  17.405  0.00  0.00    +0.000 A 
ATOM     12  C   UNL     1       6.119   4.461  17.908  0.00  0.00    +0.000 A 
ENDBRANCH   4   7
TORSDOF 1
ENDMDL
MODEL 2
REMARK VINA RESULT:      -6.0      0.756      1.377
REMARK  Name = 
REMARK  1 active torsions:
REMARK  status: ('A' for Active; 'I' for Inactive)
REMARK    1  A    between atoms: C_4  and  C_5
REMARK                            x       y       z     vdW  Elec       q    Type
REMARK                         _______ _______ _______ _____ _____    ______ ____
ROOT
ATOM      1  C   UNL     1       1.533   2.681  18.411  0.00  0.00    +0.000 A 
ATOM      2  C   UNL     1       1.483   4.049  18.186  0.00  0.00    +0.000 A 
ATOM      3  C   UNL     1       2.612   4.702  17.694  0.00  0.00    +0.000 A 
ATOM      4  C   UNL     1       3.774   3.969  17.442  0.00  0.00    +0.000 A 
ATOM      5  N   UNL     1       3.822   2.627  17.647  0.00  0.00    +0.000 NA
ATOM      6  C   UNL     1       2.714   2.020  18.126  0.00  0.00    +0.000 A 
ENDROOT
BRANCH   4   7
ATOM      7  C   UNL     1       5.015   4.588  16.935  0.00  0.00    +0.000 A 
ATOM      8  C   UNL     1       5.554   5.751  17.506  0.00  0.00    +0.000 A 
ATOM      9  C   UNL     1       6.716   6.295  16.977  0.00  0.00    +0.000 A 
ATOM     10  N   UNL     1       7.381   5.769  15.930  0.00  0.00    +0.000 NA
ATOM     11  C   UNL     1       6.867   4.642  15.397  0.00  0.00    +0.000 A 
ATOM     12  C   UNL     1       5.713   4.027  15.857  0.00  0.00    +0.000 A 
ENDBRANCH   4   7
TORSDOF 1
ENDMDL
MODEL 3
REMARK VINA RESULT:      -6.0      1.166      1.852
REMARK  Name = 
REMARK  1 active torsions:
REMARK  status: ('A' for Active; 'I' for Inactive)
REMARK    1  A    between atoms: C_4  and  C_5
REMARK                            x       y       z     vdW  Elec       q    Type
REMARK                         _______ _______ _______ _____ _____    ______ ____
ROOT
ATOM      1  C   UNL     1       1.418   3.959  19.491  0.00  0.00    +0.000 A 
ATOM      2  C   UNL     1       1.460   3.791  18.114  0.00  0.00    +0.000 A 
ATOM      3  C   UNL     1       2.682   3.888  17.452  0.00  0.00    +0.000 A 
ATOM      4  C   UNL     1       3.841   4.158  18.184  0.00  0.00    +0.000 A 
ATOM      5  N   UNL     1       3.806   4.309  19.533  0.00  0.00    +0.000 NA
ATOM      6  C   UNL     1       2.607   4.212  20.150  0.00  0.00    +0.000 A 
ENDROOT
BRANCH   4   7
ATOM      7  C   UNL     1       5.170   4.292  17.555  0.00  0.00    +0.000 A 
ATOM      8  C   UNL     1       6.318   4.608  18.298  0.00  0.00    +0.000 A 
ATOM      9  C   UNL     1       7.538   4.734  17.649  0.00  0.00    +0.000 A 
ATOM     10  N   UNL     1       7.702   4.568  16.323  0.00  0.00    +0.000 NA
ATOM     11  C   UNL     1       6.598   4.249  15.616  0.00  0.00    +0.000 A 
ATOM     12  C   UNL     1       5.339   4.101  16.176  0.00  0.00    +0.000 A 
ENDBRANCH   4   7
TORSDOF 1
ENDMDL
MODEL 4
REMARK VINA RESULT:      -5.9      0.789      1.378
REMARK  Name = 
REMARK  1 active torsions:
REMARK  status: ('A' for Active; 'I' for Inactive)
REMARK    1  A    between atoms: C_4  and  C_5
REMARK                            x       y       z     vdW  Elec       q    Type
REMARK                         _______ _______ _______ _____ _____    ______ ____
ROOT
ATOM      1  C   UNL     1       1.203   3.006  18.492  0.00  0.00    +0.000 A 
ATOM      2  C   UNL     1       2.208   2.054  18.578  0.00  0.00    +0.000 A 
ATOM      3  C   UNL     1       3.490   2.373  18.135  0.00  0.00    +0.000 A 
ATOM      4  C   UNL     1       3.739   3.642  17.608  0.00  0.00    +0.000 A 
ATOM      5  N   UNL     1       2.761   4.582  17.535  0.00  0.00    +0.000 NA
ATOM      6  C   UNL     1       1.527   4.246  17.970  0.00  0.00    +0.000 A 
ENDROOT
BRANCH   4   7
ATOM      7  C   UNL     1       5.065   4.052  17.103  0.00  0.00    +0.000 A 
ATOM      8  C   UNL     1       5.346   4.137  15.731  0.00  0.00    +0.000 A 
ATOM      9  C   UNL     1       6.616   4.515  15.317  0.00  0.00    +0.000 A 
ATOM     10  N   UNL     1       7.622   4.815  16.161  0.00  0.00    +0.000 NA
ATOM     11  C   UNL     1       7.340   4.746  17.479  0.00  0.00    +0.000 A 
ATOM     12  C   UNL     1       6.103   4.380  17.986  0.00  0.00    +0.000 A 
ENDBRANCH   4   7
TORSDOF 1
ENDMDL
MODEL 5
REMARK VINA RESULT:      -5.9      0.781      1.929
REMARK  Name = 
REMARK  1 active torsions:
REMARK  status: ('A' for Active; 'I' for Inactive)
REMARK    1  A    between atoms: C_4  and  C_5
REMARK                            x       y       z     vdW  Elec       q    Type
REMARK                         _______ _______ _______ _____ _____    ______ ____
ROOT
ATOM      1  C   UNL     1       1.235   2.994  18.491  0.00  0.00    +0.000 A 
ATOM      2  C   UNL     1       2.243   2.044  18.576  0.00  0.00    +0.000 A 
ATOM      3  C   UNL     1       3.524   2.368  18.134  0.00  0.00    +0.000 A 
ATOM      4  C   UNL     1       3.770   3.639  17.610  0.00  0.00    +0.000 A 
ATOM      5  N   UNL     1       2.790   4.576  17.539  0.00  0.00    +0.000 NA
ATOM      6  C   UNL     1       1.556   4.236  17.973  0.00  0.00    +0.000 A 
ENDROOT
BRANCH   4   7
ATOM      7  C   UNL     1       5.096   4.053  17.107  0.00  0.00    +0.000 A 
ATOM      8  C   UNL     1       6.121   4.474  17.968  0.00  0.00    +0.000 A 
ATOM      9  C   UNL     1       7.341   4.865  17.435  0.00  0.00    +0.000 A 
ATOM     10  N   UNL     1       7.617   4.867  16.117  0.00  0.00    +0.000 NA
ATOM     11  C   UNL     1       6.633   4.446  15.296  0.00  0.00    +0.000 A 
ATOM     12  C   UNL     1       5.384   4.036  15.736  0.00  0.00    +0.000 A 
ENDBRANCH   4   7
TORSDOF 1
ENDMDL
MODEL 6
REMARK VINA RESULT:      -5.9      2.327      5.142
REMARK  Name = 
REMARK  1 active torsions:
REMARK  status: ('A' for Active; 'I' for Inactive)
REMARK    1  A    between atoms: C_4  and  C_5
REMARK                            x       y       z     vdW  Elec       q    Type
REMARK                         _______ _______ _______ _____ _____    ______ ____
ROOT
ATOM      1  C   UNL     1       7.296   4.483  12.003  0.00  0.00    +0.000 A 
ATOM      2  C   UNL     1       6.295   3.638  12.461  0.00  0.00    +0.000 A 
ATOM      3  C   UNL     1       5.984   3.621  13.820  0.00  0.00    +0.000 A 
ATOM      4  C   UNL     1       6.689   4.449  14.696  0.00  0.00    +0.000 A 
ATOM      5  N   UNL     1       7.660   5.288  14.250  0.00  0.00    +0.000 NA
ATOM      6  C   UNL     1       7.942   5.283  12.928  0.00  0.00    +0.000 A 
ENDROOT
BRANCH   4   7
ATOM      7  C   UNL     1       6.431   4.478  16.150  0.00  0.00    +0.000 A 
ATOM      8  C   UNL     1       5.192   4.106  16.694  0.00  0.00    +0.000 A 
ATOM      9  C   UNL     1       5.005   4.167  18.068  0.00  0.00    +0.000 A 
ATOM     10  N   UNL     1       5.954   4.565  18.937  0.00  0.00    +0.000 NA
ATOM     11  C   UNL     1       7.147   4.905  18.409  0.00  0.00    +0.000 A 
ATOM     12  C   UNL     1       7.428   4.876  17.052  0.00  0.00    +0.000 A 
ENDBRANCH   4   7
TORSDOF 1
ENDMDL
MODEL 7
REMARK VINA RESULT:      -5.9      1.908      4.877
REMARK  Name = 
REMARK  1 active torsions:
REMARK  status: ('A' for Active; 'I' for Inactive)
REMARK    1  A    between atoms: C_4  and  C_5
REMARK                            x       y       z     vdW  Elec       q    Type
REMARK                         _______ _______ _______ _____ _____    ______ ____
ROOT
ATOM      1  C   UNL     1       7.827   6.642  18.417  0.00  0.00    +0.000 A 
ATOM      2  C   UNL     1       6.956   7.086  17.431  0.00  0.00    +0.000 A 
ATOM      3  C   UNL     1       5.731   6.444  17.263  0.00  0.00    +0.000 A 
ATOM      4  C   UNL     1       5.403   5.363  18.086  0.00  0.00    +0.000 A 
ATOM      5  N   UNL     1       6.246   4.935  19.061  0.00  0.00    +0.000 NA
ATOM      6  C   UNL     1       7.428   5.574  19.201  0.00  0.00    +0.000 A 
ENDROOT
BRANCH   4   7
ATOM      7  C   UNL     1       4.132   4.621  17.961  0.00  0.00    +0.000 A 
ATOM      8  C   UNL     1       4.092   3.221  17.881  0.00  0.00    +0.000 A 
ATOM      9  C   UNL     1       2.868   2.580  17.751  0.00  0.00    +0.000 A 
ATOM     10  N   UNL     1       1.687   3.224  17.696  0.00  0.00    +0.000 NA
ATOM     11  C   UNL     1       1.731   4.569  17.789  0.00  0.00    +0.000 A 
ATOM     12  C   UNL     1       2.904   5.295  17.922  0.00  0.00    +0.000 A 
ENDBRANCH   4   7
TORSDOF 1
ENDMDL
MODEL 8
REMARK VINA RESULT:      -5.9      1.915      4.868
REMARK  Name = 
REMARK  1 active torsions:
REMARK  status: ('A' for Active; 'I' for Inactive)
REMARK    1  A    between atoms: C_4  and  C_5
REMARK                            x       y       z     vdW  Elec       q    Type
REMARK                         _______ _______ _______ _____ _____    ______ ____
ROOT
ATOM      1  C   UNL     1       7.805   6.479  18.526  0.00  0.00    +0.000 A 
ATOM      2  C   UNL     1       7.075   6.813  17.394  0.00  0.00    +0.000 A 
ATOM      3  C   UNL     1       5.838   6.209  17.176  0.00  0.00    +0.000 A 
ATOM      4  C   UNL     1       5.358   5.274  18.097  0.00  0.00    +0.000 A 
ATOM      5  N   UNL     1       6.063   4.955  19.213  0.00  0.00    +0.000 NA
ATOM      6  C   UNL     1       7.260   5.555  19.399  0.00  0.00    +0.000 A 
ENDROOT
BRANCH   4   7
ATOM      7  C   UNL     1       4.067   4.579  17.930  0.00  0.00    +0.000 A 
ATOM      8  C   UNL     1       2.841   5.261  17.982  0.00  0.00    +0.000 A 
ATOM      9  C   UNL     1       1.659   4.550  17.832  0.00  0.00    +0.000 A 
ATOM     10  N   UNL     1       1.604   3.219  17.633  0.00  0.00    +0.000 NA
ATOM     11  C   UNL     1       2.785   2.572  17.568  0.00  0.00    +0.000 A 
ATOM     12  C   UNL     1       4.016   3.196  17.705  0.00  0.00    +0.000 A 
ENDBRANCH   4   7
TORSDOF 1
ENDMDL
MODEL 9
REMARK VINA RESULT:      -5.8      1.944      2.473
REMARK  Name = 
REMARK  1 active torsions:
REMARK  status: ('A' for Active; 'I' for Inactive)
REMARK    1  A    between atoms: C_4  and  C_5
REMARK                            x       y       z     vdW  Elec       q    Type
REMARK                         _______ _______ _______ _____ _____    ______ ____
ROOT
ATOM      1  C   UNL     1       1.007   3.957  20.355  0.00  0.00    +0.000 A 
ATOM      2  C   UNL     1       1.069   3.199  19.194  0.00  0.00    +0.000 A 
ATOM      3  C   UNL     1       2.007   3.525  18.216  0.00  0.00    +0.000 A 
ATOM      4  C   UNL     1       2.862   4.610  18.418  0.00  0.00    +0.000 A 
ATOM      5  N   UNL     1       2.814   5.345  19.559  0.00  0.00    +0.000 NA
ATOM      6  C   UNL     1       1.894   5.009  20.490  0.00  0.00    +0.000 A 
ENDROOT
BRANCH   4   7
ATOM      7  C   UNL     1       3.871   5.029  17.424  0.00  0.00    +0.000 A 
ATOM      8  C   UNL     1       4.271   6.367  17.287  0.00  0.00    +0.000 A 
ATOM      9  C   UNL     1       5.213   6.701  16.325  0.00  0.00    +0.000 A 
ATOM     10  N   UNL     1       5.787   5.809  15.495  0.00  0.00    +0.000 NA
ATOM     11  C   UNL     1       5.410   4.523  15.643  0.00  0.00    +0.000 A 
ATOM     12  C   UNL     1       4.478   4.093  16.575  0.00  0.00    +0.000 A 
ENDBRANCH   4   7
TORSDOF 1
ENDMDL
