MODEL 1
REMARK VINA RESULT:      -7.1      0.000      0.000
REMARK  Name = 
REMARK  8 active torsions:
REMARK  status: ('A' for Active; 'I' for Inactive)
REMARK    1  A    between atoms: C_1  and  C_2
REMARK    2  A    between atoms: C_7  and  C_8
REMARK    3  A    between atoms: C_8  and  N_9
REMARK    4  A    between atoms: N_9  and  C_10
REMARK    5  A    between atoms: N_9  and  C_14
REMARK    6  A    between atoms: C_10  and  C_11
REMARK    7  A    between atoms: C_11  and  C_12
REMARK    8  A    between atoms: C_11  and  C_13
REMARK                            x       y       z     vdW  Elec       q    Type
REMARK                         _______ _______ _______ _____ _____    ______ ____
ROOT
ATOM      1  N   UNL     1       4.336   5.057  17.998  0.00  0.00    +0.000 NA
ENDROOT
BRANCH   1   2
ATOM      2  C   UNL     1       4.605   5.331  16.573  0.00  0.00    +0.000 C 
ATOM      3  C   UNL     1       5.350   4.264  15.729  0.00  0.00    +0.000 C 
ATOM      4  C   UNL     1       6.876   4.238  15.919  0.00  0.00    +0.000 C 
ATOM      5  N   UNL     1       7.520   5.554  15.842  0.00  0.00    +0.000 NA
ATOM      6  C   UNL     1       6.834   6.499  16.729  0.00  0.00    +0.000 C 
ATOM      7  C   UNL     1       5.363   6.645  16.325  0.00  0.00    +0.000 C 
ATOM      8  H   UNL     1       7.440   5.908  14.887  0.00  0.00    +0.000 HD
ENDBRANCH   1   2
BRANCH   1   9
ATOM      9  C   UNL     1       4.303   3.659  18.444  0.00  0.00    +0.000 C 
BRANCH   9  16
ATOM     10  C   UNL     1       1.361   3.638  17.648  0.00  0.00    +0.000 C 
ATOM     11  C   UNL     1       1.817   3.302  19.037  0.00  0.00    +0.000 A 
ATOM     12  C   UNL     1       0.820   3.144  20.030  0.00  0.00    +0.000 A 
ATOM     13  C   UNL     1       1.143   2.823  21.342  0.00  0.00    +0.000 A 
ATOM     14  C   UNL     1       2.467   2.630  21.681  0.00  0.00    +0.000 A 
ATOM     15  C   UNL     1       3.460   2.813  20.713  0.00  0.00    +0.000 A 
ATOM     16  C   UNL     1       3.183   3.186  19.386  0.00  0.00    +0.000 A 
ENDBRANCH   9  16
ENDBRANCH   1   9
BRANCH   1  17
ATOM     17  C   UNL     1       3.993   6.107  18.942  0.00  0.00    +0.000 C 
BRANCH  17  18
ATOM     18  C   UNL     1       2.562   6.704  18.936  0.00  0.00    +0.000 C 
ATOM     19  C   UNL     1       1.971   6.934  20.331  0.00  0.00    +0.000 C 
ATOM     20  C   UNL     1       2.606   8.054  18.199  0.00  0.00    +0.000 C 
ENDBRANCH  17  18
ENDBRANCH   1  17
TORSDOF 5
ENDMDL
MODEL 2
REMARK VINA RESULT:      -7.0      1.682      5.158
REMARK  Name = 
REMARK  8 active torsions:
REMARK  status: ('A' for Active; 'I' for Inactive)
REMARK    1  A    between atoms: C_1  and  C_2
REMARK    2  A    between atoms: C_7  and  C_8
REMARK    3  A    between atoms: C_8  and  N_9
REMARK    4  A    between atoms: N_9  and  C_10
REMARK    5  A    between atoms: N_9  and  C_14
REMARK    6  A    between atoms: C_10  and  C_11
REMARK    7  A    between atoms: C_11  and  C_12
REMARK    8  A    between atoms: C_11  and  C_13
REMARK                            x       y       z     vdW  Elec       q    Type
REMARK                         _______ _______ _______ _____ _____    ______ ____
ROOT
ATOM      1  N   UNL     1       2.950   4.005  17.645  0.00  0.00    +0.000 NA
ENDROOT
BRANCH   1   2
ATOM      2  C   UNL     1       2.496   2.688  18.134  0.00  0.00    +0.000 C 
ATOM      3  C   UNL     1       1.075   2.559  18.740  0.00  0.00    +0.000 C 
ATOM      4  C   UNL     1       0.946   3.043  20.195  0.00  0.00    +0.000 C 
ATOM      5  N   UNL     1       1.982   2.532  21.099  0.00  0.00    +0.000 NA
ATOM      6  C   UNL     1       3.309   2.763  20.519  0.00  0.00    +0.000 C 
ATOM      7  C   UNL     1       3.438   2.051  19.169  0.00  0.00    +0.000 C 
ATOM      8  H   UNL     1       1.861   1.524  21.209  0.00  0.00    +0.000 HD
ENDBRANCH   1   2
BRANCH   1   9
ATOM      9  C   UNL     1       4.269   4.094  17.009  0.00  0.00    +0.000 C 
BRANCH   9  16
ATOM     10  C   UNL     1       5.207   6.580  15.517  0.00  0.00    +0.000 C 
ATOM     11  C   UNL     1       5.829   6.140  16.809  0.00  0.00    +0.000 A 
ATOM     12  C   UNL     1       6.998   6.818  17.235  0.00  0.00    +0.000 A 
ATOM     13  C   UNL     1       7.640   6.488  18.421  0.00  0.00    +0.000 A 
ATOM     14  C   UNL     1       7.113   5.490  19.217  0.00  0.00    +0.000 A 
ATOM     15  C   UNL     1       5.976   4.796  18.789  0.00  0.00    +0.000 A 
ATOM     16  C   UNL     1       5.323   5.062  17.573  0.00  0.00    +0.000 A 
ENDBRANCH   9  16
ENDBRANCH   1   9
BRANCH   1  17
ATOM     17  C   UNL     1       2.191   5.223  17.871  0.00  0.00    +0.000 C 
BRANCH  17  18
ATOM     18  C   UNL     1       2.806   6.358  18.731  0.00  0.00    +0.000 C 
ATOM     19  C   UNL     1       2.672   7.755  18.115  0.00  0.00    +0.000 C 
ATOM     20  C   UNL     1       2.100   6.363  20.098  0.00  0.00    +0.000 C 
ENDBRANCH  17  18
ENDBRANCH   1  17
TORSDOF 5
ENDMDL
MODEL 3
REMARK VINA RESULT:      -7.0      1.158      1.745
REMARK  Name = 
REMARK  8 active torsions:
REMARK  status: ('A' for Active; 'I' for Inactive)
REMARK    1  A    between atoms: C_1  and  C_2
REMARK    2  A    between atoms: C_7  and  C_8
REMARK    3  A    between atoms: C_8  and  N_9
REMARK    4  A    between atoms: N_9  and  C_10
REMARK    5  A    between atoms: N_9  and  C_14
REMARK    6  A    between atoms: C_10  and  C_11
REMARK    7  A    between atoms: C_11  and  C_12
REMARK    8  A    between atoms: C_11  and  C_13
REMARK                            x       y       z     vdW  Elec       q    Type
REMARK                         _______ _______ _______ _____ _____    ______ ____
ROOT
ATOM      1  N   UNL     1       5.368   4.590  18.814  0.00  0.00    +0.000 NA
ENDROOT
BRANCH   1   2
ATOM      2  C   UNL     1       6.798   4.622  18.447  0.00  0.00    +0.000 C 
ATOM      3  C   UNL     1       7.653   5.848  18.857  0.00  0.00    +0.000 C 
ATOM      4  C   UNL     1       7.488   7.083  17.954  0.00  0.00    +0.000 C 
ATOM      5  N   UNL     1       7.576   6.802  16.518  0.00  0.00    +0.000 NA
ATOM      6  C   UNL     1       6.679   5.695  16.169  0.00  0.00    +0.000 C 
ATOM      7  C   UNL     1       7.058   4.429  16.944  0.00  0.00    +0.000 C 
ATOM      8  H   UNL     1       8.530   6.512  16.293  0.00  0.00    +0.000 HD
ENDBRANCH   1   2
BRANCH   1   9
ATOM      9  C   UNL     1       4.600   3.377  18.514  0.00  0.00    +0.000 C 
BRANCH   9  16
ATOM     10  C   UNL     1       1.756   3.375  17.420  0.00  0.00    +0.000 C 
ATOM     11  C   UNL     1       2.055   3.147  18.872  0.00  0.00    +0.000 A 
ATOM     12  C   UNL     1       0.957   3.106  19.765  0.00  0.00    +0.000 A 
ATOM     13  C   UNL     1       1.132   2.892  21.127  0.00  0.00    +0.000 A 
ATOM     14  C   UNL     1       2.407   2.690  21.616  0.00  0.00    +0.000 A 
ATOM     15  C   UNL     1       3.499   2.758  20.746  0.00  0.00    +0.000 A 
ATOM     16  C   UNL     1       3.373   3.022  19.370  0.00  0.00    +0.000 A 
ENDBRANCH   9  16
ENDBRANCH   1   9
BRANCH   1  17
ATOM     17  C   UNL     1       4.677   5.749  19.351  0.00  0.00    +0.000 C 
BRANCH  17  18
ATOM     18  C   UNL     1       3.379   6.252  18.667  0.00  0.00    +0.000 C 
ATOM     19  C   UNL     1       2.410   6.972  19.610  0.00  0.00    +0.000 C 
ATOM     20  C   UNL     1       3.773   7.224  17.541  0.00  0.00    +0.000 C 
ENDBRANCH  17  18
ENDBRANCH   1  17
TORSDOF 5
ENDMDL
MODEL 4
REMARK VINA RESULT:      -6.9      1.795      5.206
REMARK  Name = 
REMARK  8 active torsions:
REMARK  status: ('A' for Active; 'I' for Inactive)
REMARK    1  A    between atoms: C_1  and  C_2
REMARK    2  A    between atoms: C_7  and  C_8
REMARK    3  A    between atoms: C_8  and  N_9
REMARK    4  A    between atoms: N_9  and  C_10
REMARK    5  A    between atoms: N_9  and  C_14
REMARK    6  A    between atoms: C_10  and  C_11
REMARK    7  A    between atoms: C_11  and  C_12
REMARK    8  A    between atoms: C_11  and  C_13
REMARK                            x       y       z     vdW  Elec       q    Type
REMARK                         _______ _______ _______ _____ _____    ______ ____
ROOT
ATOM      1  N   UNL     1       3.199   5.061  19.393  0.00  0.00    +0.000 NA
ENDROOT
BRANCH   1   2
ATOM      2  C   UNL     1       2.764   3.886  20.175  0.00  0.00    +0.000 C 
ATOM      3  C   UNL     1       3.604   2.584  20.107  0.00  0.00    +0.000 C 
ATOM      4  C   UNL     1       3.365   1.726  18.853  0.00  0.00    +0.000 C 
ATOM      5  N   UNL     1       1.952   1.490  18.538  0.00  0.00    +0.000 NA
ATOM      6  C   UNL     1       1.224   2.764  18.524  0.00  0.00    +0.000 C 
ATOM      7  C   UNL     1       1.317   3.452  19.890  0.00  0.00    +0.000 C 
ATOM      8  H   UNL     1       1.541   0.904  19.266  0.00  0.00    +0.000 HD
ENDBRANCH   1   2
BRANCH   1   9
ATOM      9  C   UNL     1       4.636   5.335  19.291  0.00  0.00    +0.000 C 
BRANCH   9  16
ATOM     10  C   UNL     1       7.651   5.661  18.992  0.00  0.00    +0.000 C 
ATOM     11  C   UNL     1       6.783   5.185  17.867  0.00  0.00    +0.000 A 
ATOM     12  C   UNL     1       7.382   5.056  16.589  0.00  0.00    +0.000 A 
ATOM     13  C   UNL     1       6.661   4.614  15.488  0.00  0.00    +0.000 A 
ATOM     14  C   UNL     1       5.335   4.268  15.646  0.00  0.00    +0.000 A 
ATOM     15  C   UNL     1       4.728   4.420  16.897  0.00  0.00    +0.000 A 
ATOM     16  C   UNL     1       5.404   4.910  18.028  0.00  0.00    +0.000 A 
ENDBRANCH   9  16
ENDBRANCH   1   9
BRANCH   1  17
ATOM     17  C   UNL     1       2.257   6.009  18.824  0.00  0.00    +0.000 C 
BRANCH  17  18
ATOM     18  C   UNL     1       2.477   7.530  19.040  0.00  0.00    +0.000 C 
ATOM     19  C   UNL     1       2.095   8.396  17.835  0.00  0.00    +0.000 C 
ATOM     20  C   UNL     1       1.629   7.973  20.244  0.00  0.00    +0.000 C 
ENDBRANCH  17  18
ENDBRANCH   1  17
TORSDOF 5
ENDMDL
MODEL 5
REMARK VINA RESULT:      -6.8      1.757      5.127
REMARK  Name = 
REMARK  8 active torsions:
REMARK  status: ('A' for Active; 'I' for Inactive)
REMARK    1  A    between atoms: C_1  and  C_2
REMARK    2  A    between atoms: C_7  and  C_8
REMARK    3  A    between atoms: C_8  and  N_9
REMARK    4  A    between atoms: N_9  and  C_10
REMARK    5  A    between atoms: N_9  and  C_14
REMARK    6  A    between atoms: C_10  and  C_11
REMARK    7  A    between atoms: C_11  and  C_12
REMARK    8  A    between atoms: C_11  and  C_13
REMARK                            x       y       z     vdW  Elec       q    Type
REMARK                         _______ _______ _______ _____ _____    ______ ____
ROOT
ATOM      1  N   UNL     1       3.779   4.929  19.521  0.00  0.00    +0.000 NA
ENDROOT
BRANCH   1   2
ATOM      2  C   UNL     1       2.732   4.010  20.010  0.00  0.00    +0.000 C 
ATOM      3  C   UNL     1       3.037   2.491  20.081  0.00  0.00    +0.000 C 
ATOM      4  C   UNL     1       2.936   1.748  18.738  0.00  0.00    +0.000 C 
ATOM      5  N   UNL     1       1.715   2.032  17.977  0.00  0.00    +0.000 NA
ATOM      6  C   UNL     1       1.525   3.482  17.861  0.00  0.00    +0.000 C 
ATOM      7  C   UNL     1       1.402   4.122  19.247  0.00  0.00    +0.000 C 
ATOM      8  H   UNL     1       0.912   1.652  18.480  0.00  0.00    +0.000 HD
ENDBRANCH   1   2
BRANCH   1   9
ATOM      9  C   UNL     1       5.122   4.390  19.283  0.00  0.00    +0.000 C 
BRANCH   9  16
ATOM     10  C   UNL     1       7.744   5.813  18.664  0.00  0.00    +0.000 C 
ATOM     11  C   UNL     1       6.882   5.222  17.590  0.00  0.00    +0.000 A 
ATOM     12  C   UNL     1       7.232   5.500  16.245  0.00  0.00    +0.000 A 
ATOM     13  C   UNL     1       6.499   4.990  15.181  0.00  0.00    +0.000 A 
ATOM     14  C   UNL     1       5.418   4.173  15.440  0.00  0.00    +0.000 A 
ATOM     15  C   UNL     1       5.047   3.918  16.764  0.00  0.00    +0.000 A 
ATOM     16  C   UNL     1       5.729   4.452  17.872  0.00  0.00    +0.000 A 
ENDBRANCH   9  16
ENDBRANCH   1   9
BRANCH   1  17
ATOM     17  C   UNL     1       3.555   6.358  19.379  0.00  0.00    +0.000 C 
BRANCH  17  18
ATOM     18  C   UNL     1       2.982   6.914  18.049  0.00  0.00    +0.000 C 
ATOM     19  C   UNL     1       1.973   8.053  18.228  0.00  0.00    +0.000 C 
ATOM     20  C   UNL     1       4.154   7.433  17.199  0.00  0.00    +0.000 C 
ENDBRANCH  17  18
ENDBRANCH   1  17
TORSDOF 5
ENDMDL
MODEL 6
REMARK VINA RESULT:      -6.7      1.646      5.556
REMARK  Name = 
REMARK  8 active torsions:
REMARK  status: ('A' for Active; 'I' for Inactive)
REMARK    1  A    between atoms: C_1  and  C_2
REMARK    2  A    between atoms: C_7  and  C_8
REMARK    3  A    between atoms: C_8  and  N_9
REMARK    4  A    between atoms: N_9  and  C_10
REMARK    5  A    between atoms: N_9  and  C_14
REMARK    6  A    between atoms: C_10  and  C_11
REMARK    7  A    between atoms: C_11  and  C_12
REMARK    8  A    between atoms: C_11  and  C_13
REMARK                            x       y       z     vdW  Elec       q    Type
REMARK                         _______ _______ _______ _____ _____    ______ ____
ROOT
ATOM      1  N   UNL     1       3.740   4.643  19.066  0.00  0.00    +0.000 NA
ENDROOT
BRANCH   1   2
ATOM      2  C   UNL     1       2.814   3.506  18.898  0.00  0.00    +0.000 C 
ATOM      3  C   UNL     1       1.285   3.765  18.959  0.00  0.00    +0.000 C 
ATOM      4  C   UNL     1       0.711   3.906  20.379  0.00  0.00    +0.000 C 
ATOM      5  N   UNL     1       1.133   2.856  21.313  0.00  0.00    +0.000 NA
ATOM      6  C   UNL     1       2.593   2.718  21.282  0.00  0.00    +0.000 C 
ATOM      7  C   UNL     1       3.069   2.346  19.874  0.00  0.00    +0.000 C 
ATOM      8  H   UNL     1       0.729   1.966  21.018  0.00  0.00    +0.000 HD
ENDBRANCH   1   2
BRANCH   1   9
ATOM      9  C   UNL     1       5.182   4.379  19.010  0.00  0.00    +0.000 C 
BRANCH   9  16
ATOM     10  C   UNL     1       7.661   6.081  18.521  0.00  0.00    +0.000 C 
ATOM     11  C   UNL     1       6.987   5.315  17.422  0.00  0.00    +0.000 A 
ATOM     12  C   UNL     1       7.432   5.546  16.097  0.00  0.00    +0.000 A 
ATOM     13  C   UNL     1       6.875   4.878  15.014  0.00  0.00    +0.000 A 
ATOM     14  C   UNL     1       5.880   3.948  15.238  0.00  0.00    +0.000 A 
ATOM     15  C   UNL     1       5.414   3.736  16.539  0.00  0.00    +0.000 A 
ATOM     16  C   UNL     1       5.913   4.425  17.658  0.00  0.00    +0.000 A 
ENDBRANCH   9  16
ENDBRANCH   1   9
BRANCH   1  17
ATOM     17  C   UNL     1       3.279   5.981  19.395  0.00  0.00    +0.000 C 
BRANCH  17  18
ATOM     18  C   UNL     1       2.704   6.889  18.276  0.00  0.00    +0.000 C 
ATOM     19  C   UNL     1       2.022   8.161  18.789  0.00  0.00    +0.000 C 
ATOM     20  C   UNL     1       3.860   7.299  17.347  0.00  0.00    +0.000 C 
ENDBRANCH  17  18
ENDBRANCH   1  17
TORSDOF 5
ENDMDL
MODEL 7
REMARK VINA RESULT:      -6.7      0.968      1.256
REMARK  Name = 
REMARK  8 active torsions:
REMARK  status: ('A' for Active; 'I' for Inactive)
REMARK    1  A    between atoms: C_1  and  C_2
REMARK    2  A    between atoms: C_7  and  C_8
REMARK    3  A    between atoms: C_8  and  N_9
REMARK    4  A    between atoms: N_9  and  C_10
REMARK    5  A    between atoms: N_9  and  C_14
REMARK    6  A    between atoms: C_10  and  C_11
REMARK    7  A    between atoms: C_11  and  C_12
REMARK    8  A    between atoms: C_11  and  C_13
REMARK                            x       y       z     vdW  Elec       q    Type
REMARK                         _______ _______ _______ _____ _____    ______ ____
ROOT
ATOM      1  N   UNL     1       3.922   5.278  17.713  0.00  0.00    +0.000 NA
ENDROOT
BRANCH   1   2
ATOM      2  C   UNL     1       4.652   5.264  16.431  0.00  0.00    +0.000 C 
ATOM      3  C   UNL     1       5.824   4.265  16.243  0.00  0.00    +0.000 C 
ATOM      4  C   UNL     1       7.151   4.696  16.890  0.00  0.00    +0.000 C 
ATOM      5  N   UNL     1       7.549   6.077  16.599  0.00  0.00    +0.000 NA
ATOM      6  C   UNL     1       6.434   6.988  16.882  0.00  0.00    +0.000 C 
ATOM      7  C   UNL     1       5.217   6.633  16.022  0.00  0.00    +0.000 C 
ATOM      8  H   UNL     1       7.772   6.157  15.605  0.00  0.00    +0.000 HD
ENDBRANCH   1   2
BRANCH   1   9
ATOM      9  C   UNL     1       4.386   4.395  18.789  0.00  0.00    +0.000 C 
BRANCH   9  16
ATOM     10  C   UNL     1       2.688   2.105  17.713  0.00  0.00    +0.000 C 
ATOM     11  C   UNL     1       2.500   2.661  19.093  0.00  0.00    +0.000 A 
ATOM     12  C   UNL     1       1.380   2.207  19.832  0.00  0.00    +0.000 A 
ATOM     13  C   UNL     1       1.127   2.658  21.122  0.00  0.00    +0.000 A 
ATOM     14  C   UNL     1       2.002   3.551  21.706  0.00  0.00    +0.000 A 
ATOM     15  C   UNL     1       3.094   4.026  20.972  0.00  0.00    +0.000 A 
ATOM     16  C   UNL     1       3.361   3.636  19.648  0.00  0.00    +0.000 A 
ENDBRANCH   9  16
ENDBRANCH   1   9
BRANCH   1  17
ATOM     17  C   UNL     1       2.703   6.045  17.906  0.00  0.00    +0.000 C 
BRANCH  17  18
ATOM     18  C   UNL     1       2.776   7.445  18.570  0.00  0.00    +0.000 C 
ATOM     19  C   UNL     1       2.116   8.561  17.754  0.00  0.00    +0.000 C 
ATOM     20  C   UNL     1       2.078   7.367  19.938  0.00  0.00    +0.000 C 
ENDBRANCH  17  18
ENDBRANCH   1  17
TORSDOF 5
ENDMDL
MODEL 8
REMARK VINA RESULT:      -6.6      0.744      1.146
REMARK  Name = 
REMARK  8 active torsions:
REMARK  status: ('A' for Active; 'I' for Inactive)
REMARK    1  A    between atoms: C_1  and  C_2
REMARK    2  A    between atoms: C_7  and  C_8
REMARK    3  A    between atoms: C_8  and  N_9
REMARK    4  A    between atoms: N_9  and  C_10
REMARK    5  A    between atoms: N_9  and  C_14
REMARK    6  A    between atoms: C_10  and  C_11
REMARK    7  A    between atoms: C_11  and  C_12
REMARK    8  A    between atoms: C_11  and  C_13
REMARK                            x       y       z     vdW  Elec       q    Type
REMARK                         _______ _______ _______ _____ _____    ______ ____
ROOT
ATOM      1  N   UNL     1       4.513   5.322  18.297  0.00  0.00    +0.000 NA
ENDROOT
BRANCH   1   2
ATOM      2  C   UNL     1       5.257   5.942  17.183  0.00  0.00    +0.000 C 
ATOM      3  C   UNL     1       5.362   5.185  15.833  0.00  0.00    +0.000 C 
ATOM      4  C   UNL     1       6.420   4.069  15.799  0.00  0.00    +0.000 C 
ATOM      5  N   UNL     1       7.735   4.461  16.316  0.00  0.00    +0.000 NA
ATOM      6  C   UNL     1       7.586   5.088  17.634  0.00  0.00    +0.000 C 
ATOM      7  C   UNL     1       6.700   6.334  17.541  0.00  0.00    +0.000 C 
ATOM      8  H   UNL     1       8.147   5.152  15.688  0.00  0.00    +0.000 HD
ENDBRANCH   1   2
BRANCH   1   9
ATOM      9  C   UNL     1       4.094   3.923  18.159  0.00  0.00    +0.000 C 
BRANCH   9  16
ATOM     10  C   UNL     1       1.094   3.830  17.636  0.00  0.00    +0.000 C 
ATOM     11  C   UNL     1       1.691   3.408  18.945  0.00  0.00    +0.000 A 
ATOM     12  C   UNL     1       0.799   3.128  20.009  0.00  0.00    +0.000 A 
ATOM     13  C   UNL     1       1.257   2.722  21.256  0.00  0.00    +0.000 A 
ATOM     14  C   UNL     1       2.613   2.564  21.456  0.00  0.00    +0.000 A 
ATOM     15  C   UNL     1       3.502   2.867  20.420  0.00  0.00    +0.000 A 
ATOM     16  C   UNL     1       3.087   3.328  19.158  0.00  0.00    +0.000 A 
ENDBRANCH   9  16
ENDBRANCH   1   9
BRANCH   1  17
ATOM     17  C   UNL     1       4.089   6.076  19.464  0.00  0.00    +0.000 C 
BRANCH  17  18
ATOM     18  C   UNL     1       2.906   7.072  19.343  0.00  0.00    +0.000 C 
ATOM     19  C   UNL     1       2.250   7.102  17.959  0.00  0.00    +0.000 C 
ATOM     20  C   UNL     1       1.837   6.679  20.377  0.00  0.00    +0.000 C 
ENDBRANCH  17  18
ENDBRANCH   1  17
TORSDOF 5
ENDMDL
MODEL 9
REMARK VINA RESULT:      -6.5      1.695      5.426
REMARK  Name = 
REMARK  8 active torsions:
REMARK  status: ('A' for Active; 'I' for Inactive)
REMARK    1  A    between atoms: C_1  and  C_2
REMARK    2  A    between atoms: C_7  and  C_8
REMARK    3  A    between atoms: C_8  and  N_9
REMARK    4  A    between atoms: N_9  and  C_10
REMARK    5  A    between atoms: N_9  and  C_14
REMARK    6  A    between atoms: C_10  and  C_11
REMARK    7  A    between atoms: C_11  and  C_12
REMARK    8  A    between atoms: C_11  and  C_13
REMARK                            x       y       z     vdW  Elec       q    Type
REMARK                         _______ _______ _______ _____ _____    ______ ____
ROOT
ATOM      1  N   UNL     1       2.915   4.697  18.618  0.00  0.00    +0.000 NA
ENDROOT
BRANCH   1   2
ATOM      2  C   UNL     1       2.113   3.538  19.059  0.00  0.00    +0.000 C 
ATOM      3  C   UNL     1       1.200   3.685  20.304  0.00  0.00    +0.000 C 
ATOM      4  C   UNL     1       1.928   3.581  21.655  0.00  0.00    +0.000 C 
ATOM      5  N   UNL     1       2.839   2.437  21.768  0.00  0.00    +0.000 NA
ATOM      6  C   UNL     1       3.740   2.401  20.612  0.00  0.00    +0.000 C 
ATOM      7  C   UNL     1       2.942   2.269  19.311  0.00  0.00    +0.000 C 
ATOM      8  H   UNL     1       2.292   1.574  21.765  0.00  0.00    +0.000 HD
ENDBRANCH   1   2
BRANCH   1   9
ATOM      9  C   UNL     1       4.360   4.677  18.867  0.00  0.00    +0.000 C 
BRANCH   9  16
ATOM     10  C   UNL     1       7.245   5.655  18.944  0.00  0.00    +0.000 C 
ATOM     11  C   UNL     1       6.628   5.081  17.704  0.00  0.00    +0.000 A 
ATOM     12  C   UNL     1       7.375   5.168  16.503  0.00  0.00    +0.000 A 
ATOM     13  C   UNL     1       6.891   4.657  15.306  0.00  0.00    +0.000 A 
ATOM     14  C   UNL     1       5.662   4.028  15.290  0.00  0.00    +0.000 A 
ATOM     15  C   UNL     1       4.906   3.964  16.465  0.00  0.00    +0.000 A 
ATOM     16  C   UNL     1       5.334   4.510  17.688  0.00  0.00    +0.000 A 
ENDBRANCH   9  16
ENDBRANCH   1   9
BRANCH   1  17
ATOM     17  C   UNL     1       2.311   5.892  18.055  0.00  0.00    +0.000 C 
BRANCH  17  18
ATOM     18  C   UNL     1       2.665   7.281  18.648  0.00  0.00    +0.000 C 
ATOM     19  C   UNL     1       2.165   8.465  17.816  0.00  0.00    +0.000 C 
ATOM     20  C   UNL     1       2.043   7.378  20.052  0.00  0.00    +0.000 C 
ENDBRANCH  17  18
ENDBRANCH   1  17
TORSDOF 5
ENDMDL
