MODEL 1
REMARK VINA RESULT:      -8.7      0.000      0.000
REMARK  Name = 
REMARK  7 active torsions:
REMARK  status: ('A' for Active; 'I' for Inactive)
REMARK    1  A    between atoms: C_1  and  C_2
REMARK    2  A    between atoms: C_9  and  S_10
REMARK    3  A    between atoms: S_10  and  N_13
REMARK    4  A    between atoms: N_13  and  C_14
REMARK    5  A    between atoms: C_14  and  C_15
REMARK    6  A    between atoms: N_17  and  C_18
REMARK    7  A    between atoms: C_18  and  C_19
REMARK                            x       y       z     vdW  Elec       q    Type
REMARK                         _______ _______ _______ _____ _____    ______ ____
ROOT
ATOM      1  S   UNL     1       3.017   2.734  20.442  0.00  0.00    +0.000 S 
ATOM      2  O   UNL     1       1.874   2.064  19.862  0.00  0.00    +0.000 OA
ATOM      3  O   UNL     1       3.920   2.063  21.347  0.00  0.00    +0.000 OA
ENDROOT
BRANCH   1  12
ATOM      4  C   UNL     1       5.919   4.085  13.973  0.00  0.00    +0.000 C 
ATOM      5  C   UNL     1       6.811   4.914  14.851  0.00  0.00    +0.000 C 
ATOM      6  O   UNL     1       7.716   5.575  14.332  0.00  0.00    +0.000 OA
ATOM      7  N   UNL     1       6.592   4.948  16.212  0.00  0.00    +0.000 N 
ATOM      8  C   UNL     1       7.398   5.870  17.028  0.00  0.00    +0.000 C 
ATOM      9  C   UNL     1       7.014   5.657  18.490  0.00  0.00    +0.000 C 
ATOM     10  C   UNL     1       5.831   4.748  18.366  0.00  0.00    +0.000 A 
ATOM     11  C   UNL     1       5.024   4.304  19.408  0.00  0.00    +0.000 A 
ATOM     12  C   UNL     1       4.008   3.393  19.113  0.00  0.00    +0.000 A 
ATOM     13  C   UNL     1       3.842   2.913  17.804  0.00  0.00    +0.000 A 
ATOM     14  C   UNL     1       4.661   3.382  16.764  0.00  0.00    +0.000 A 
ATOM     15  C   UNL     1       5.650   4.314  17.047  0.00  0.00    +0.000 A 
ENDBRANCH   1  12
BRANCH   1  16
ATOM     16  N   UNL     1       2.478   4.126  21.242  0.00  0.00    +0.000 NA
ATOM     17  H   UNL     1       3.263   4.734  21.489  0.00  0.00    +0.000 HD
BRANCH  16  18
ATOM     18  C   UNL     1       1.389   4.868  20.562  0.00  0.00    +0.000 C 
BRANCH  18  19
ATOM     19  C   UNL     1       1.836   6.264  20.143  0.00  0.00    +0.000 C 
ATOM     20  O   UNL     1       2.440   6.463  19.094  0.00  0.00    +0.000 OA
ATOM     21  N   UNL     1       1.487   7.275  21.017  0.00  0.00    +0.000 N 
ATOM     22  H   UNL     1       0.765   7.053  21.697  0.00  0.00    +0.000 HD
BRANCH  21  23
ATOM     23  C   UNL     1       1.690   8.665  20.668  0.00  0.00    +0.000 C 
BRANCH  23  24
ATOM     24  C   UNL     1       0.661   9.570  21.298  0.00  0.00    +0.000 A 
ATOM     25  C   UNL     1       0.276   9.341  22.631  0.00  0.00    +0.000 A 
ATOM     26  C   UNL     1      -0.669  10.156  23.258  0.00  0.00    +0.000 A 
ATOM     27  C   UNL     1      -1.249  11.211  22.563  0.00  0.00    +0.000 A 
ATOM     28  C   UNL     1      -0.877  11.458  21.242  0.00  0.00    +0.000 A 
ATOM     29  C   UNL     1       0.075  10.650  20.614  0.00  0.00    +0.000 A 
ATOM     30 CL   UNL     1       0.498  11.027  18.982  0.00  0.00    +0.000 Cl
ENDBRANCH  23  24
ENDBRANCH  21  23
ENDBRANCH  18  19
ENDBRANCH  16  18
ENDBRANCH   1  16
TORSDOF 6
ENDMDL
MODEL 2
REMARK VINA RESULT:      -8.5      2.626      6.820
REMARK  Name = 
REMARK  7 active torsions:
REMARK  status: ('A' for Active; 'I' for Inactive)
REMARK    1  A    between atoms: C_1  and  C_2
REMARK    2  A    between atoms: C_9  and  S_10
REMARK    3  A    between atoms: S_10  and  N_13
REMARK    4  A    between atoms: N_13  and  C_14
REMARK    5  A    between atoms: C_14  and  C_15
REMARK    6  A    between atoms: N_17  and  C_18
REMARK    7  A    between atoms: C_18  and  C_19
REMARK                            x       y       z     vdW  Elec       q    Type
REMARK                         _______ _______ _______ _____ _____    ______ ____
ROOT
ATOM      1  S   UNL     1       2.863   3.384  20.686  0.00  0.00    +0.000 S 
ATOM      2  O   UNL     1       4.273   3.224  20.407  0.00  0.00    +0.000 OA
ATOM      3  O   UNL     1       2.302   3.098  21.985  0.00  0.00    +0.000 OA
ENDROOT
BRANCH   1  12
ATOM      4  C   UNL     1       2.350   9.859  17.541  0.00  0.00    +0.000 C 
ATOM      5  C   UNL     1       1.490  10.075  18.753  0.00  0.00    +0.000 C 
ATOM      6  O   UNL     1       0.940  11.170  18.910  0.00  0.00    +0.000 OA
ATOM      7  N   UNL     1       1.306   9.047  19.653  0.00  0.00    +0.000 N 
ATOM      8  C   UNL     1       0.355   9.248  20.758  0.00  0.00    +0.000 C 
ATOM      9  C   UNL     1       0.396   8.002  21.640  0.00  0.00    +0.000 C 
ATOM     10  C   UNL     1       1.240   7.076  20.822  0.00  0.00    +0.000 A 
ATOM     11  C   UNL     1       1.528   5.748  21.120  0.00  0.00    +0.000 A 
ATOM     12  C   UNL     1       2.402   5.057  20.278  0.00  0.00    +0.000 A 
ATOM     13  C   UNL     1       3.002   5.709  19.188  0.00  0.00    +0.000 A 
ATOM     14  C   UNL     1       2.689   7.048  18.899  0.00  0.00    +0.000 A 
ATOM     15  C   UNL     1       1.794   7.727  19.713  0.00  0.00    +0.000 A 
ENDBRANCH   1  12
BRANCH   1  16
ATOM     16  N   UNL     1       1.984   2.463  19.569  0.00  0.00    +0.000 NA
ATOM     17  H   UNL     1       1.221   3.010  19.162  0.00  0.00    +0.000 HD
BRANCH  16  18
ATOM     18  C   UNL     1       2.794   1.779  18.532  0.00  0.00    +0.000 C 
BRANCH  18  19
ATOM     19  C   UNL     1       3.164   2.721  17.394  0.00  0.00    +0.000 C 
ATOM     20  O   UNL     1       2.313   3.233  16.673  0.00  0.00    +0.000 OA
ATOM     21  N   UNL     1       4.516   2.969  17.258  0.00  0.00    +0.000 N 
ATOM     22  H   UNL     1       5.100   2.729  18.054  0.00  0.00    +0.000 HD
BRANCH  21  23
ATOM     23  C   UNL     1       5.001   3.975  16.337  0.00  0.00    +0.000 C 
BRANCH  23  24
ATOM     24  C   UNL     1       5.925   4.963  17.001  0.00  0.00    +0.000 A 
ATOM     25  C   UNL     1       6.840   4.500  17.964  0.00  0.00    +0.000 A 
ATOM     26  C   UNL     1       7.720   5.377  18.602  0.00  0.00    +0.000 A 
ATOM     27  C   UNL     1       7.697   6.734  18.294  0.00  0.00    +0.000 A 
ATOM     28  C   UNL     1       6.801   7.211  17.338  0.00  0.00    +0.000 A 
ATOM     29  C   UNL     1       5.926   6.334  16.691  0.00  0.00    +0.000 A 
ATOM     30 CL   UNL     1       4.856   6.997  15.506  0.00  0.00    +0.000 Cl
ENDBRANCH  23  24
ENDBRANCH  21  23
ENDBRANCH  18  19
ENDBRANCH  16  18
ENDBRANCH   1  16
TORSDOF 6
ENDMDL
MODEL 3
REMARK VINA RESULT:      -8.4      3.081      7.323
REMARK  Name = 
REMARK  7 active torsions:
REMARK  status: ('A' for Active; 'I' for Inactive)
REMARK    1  A    between atoms: C_1  and  C_2
REMARK    2  A    between atoms: C_9  and  S_10
REMARK    3  A    between atoms: S_10  and  N_13
REMARK    4  A    between atoms: N_13  and  C_14
REMARK    5  A    between atoms: C_14  and  C_15
REMARK    6  A    between atoms: N_17  and  C_18
REMARK    7  A    between atoms: C_18  and  C_19
REMARK                            x       y       z     vdW  Elec       q    Type
REMARK                         _______ _______ _______ _____ _____    ______ ____
ROOT
ATOM      1  S   UNL     1       4.983   6.208  16.405  0.00  0.00    +0.000 S 
ATOM      2  O   UNL     1       4.654   4.800  16.401  0.00  0.00    +0.000 OA
ATOM      3  O   UNL     1       5.038   6.985  15.189  0.00  0.00    +0.000 OA
ENDROOT
BRANCH   1  12
ATOM      4  C   UNL     1       0.438   7.771  21.788  0.00  0.00    +0.000 C 
ATOM      5  C   UNL     1       0.325   9.021  20.964  0.00  0.00    +0.000 C 
ATOM      6  O   UNL     1      -0.414   9.931  21.354  0.00  0.00    +0.000 OA
ATOM      7  N   UNL     1       1.063   9.145  19.806  0.00  0.00    +0.000 N 
ATOM      8  C   UNL     1       1.031  10.432  19.092  0.00  0.00    +0.000 C 
ATOM      9  C   UNL     1       1.861  10.279  17.819  0.00  0.00    +0.000 C 
ATOM     10  C   UNL     1       2.491   8.937  18.024  0.00  0.00    +0.000 A 
ATOM     11  C   UNL     1       3.430   8.336  17.193  0.00  0.00    +0.000 A 
ATOM     12  C   UNL     1       3.851   7.040  17.502  0.00  0.00    +0.000 A 
ATOM     13  C   UNL     1       3.301   6.358  18.600  0.00  0.00    +0.000 A 
ATOM     14  C   UNL     1       2.361   6.988  19.432  0.00  0.00    +0.000 A 
ATOM     15  C   UNL     1       1.967   8.287  19.149  0.00  0.00    +0.000 A 
ENDBRANCH   1  12
BRANCH   1  16
ATOM     16  N   UNL     1       6.478   6.411  17.174  0.00  0.00    +0.000 NA
ATOM     17  H   UNL     1       6.422   7.126  17.902  0.00  0.00    +0.000 HD
BRANCH  16  18
ATOM     18  C   UNL     1       7.115   5.164  17.664  0.00  0.00    +0.000 C 
BRANCH  18  19
ATOM     19  C   UNL     1       6.477   4.678  18.960  0.00  0.00    +0.000 C 
ATOM     20  O   UNL     1       6.695   5.228  20.035  0.00  0.00    +0.000 OA
ATOM     21  N   UNL     1       5.625   3.600  18.822  0.00  0.00    +0.000 N 
ATOM     22  H   UNL     1       5.301   3.400  17.881  0.00  0.00    +0.000 HD
BRANCH  21  23
ATOM     23  C   UNL     1       4.817   3.142  19.933  0.00  0.00    +0.000 C 
BRANCH  23  24
ATOM     24  C   UNL     1       3.385   2.891  19.534  0.00  0.00    +0.000 A 
ATOM     25  C   UNL     1       3.121   2.212  18.331  0.00  0.00    +0.000 A 
ATOM     26  C   UNL     1       1.810   1.952  17.924  0.00  0.00    +0.000 A 
ATOM     27  C   UNL     1       0.741   2.371  18.708  0.00  0.00    +0.000 A 
ATOM     28  C   UNL     1       0.982   3.041  19.907  0.00  0.00    +0.000 A 
ATOM     29  C   UNL     1       2.292   3.295  20.322  0.00  0.00    +0.000 A 
ATOM     30 CL   UNL     1       2.514   4.116  21.827  0.00  0.00    +0.000 Cl
ENDBRANCH  23  24
ENDBRANCH  21  23
ENDBRANCH  18  19
ENDBRANCH  16  18
ENDBRANCH   1  16
TORSDOF 6
ENDMDL
MODEL 4
REMARK VINA RESULT:      -8.3      3.294      7.364
REMARK  Name = 
REMARK  7 active torsions:
REMARK  status: ('A' for Active; 'I' for Inactive)
REMARK    1  A    between atoms: C_1  and  C_2
REMARK    2  A    between atoms: C_9  and  S_10
REMARK    3  A    between atoms: S_10  and  N_13
REMARK    4  A    between atoms: N_13  and  C_14
REMARK    5  A    between atoms: C_14  and  C_15
REMARK    6  A    between atoms: N_17  and  C_18
REMARK    7  A    between atoms: C_18  and  C_19
REMARK                            x       y       z     vdW  Elec       q    Type
REMARK                         _______ _______ _______ _____ _____    ______ ____
ROOT
ATOM      1  S   UNL     1       4.680   6.425  16.660  0.00  0.00    +0.000 S 
ATOM      2  O   UNL     1       4.339   5.021  16.705  0.00  0.00    +0.000 OA
ATOM      3  O   UNL     1       4.855   7.132  15.414  0.00  0.00    +0.000 OA
ENDROOT
BRANCH   1  12
ATOM      4  C   UNL     1      -0.045  11.387  18.929  0.00  0.00    +0.000 C 
ATOM      5  C   UNL     1      -0.043  10.453  20.105  0.00  0.00    +0.000 C 
ATOM      6  O   UNL     1      -0.775  10.703  21.069  0.00  0.00    +0.000 OA
ATOM      7  N   UNL     1       0.748   9.325  20.082  0.00  0.00    +0.000 N 
ATOM      8  C   UNL     1       0.629   8.364  21.190  0.00  0.00    +0.000 C 
ATOM      9  C   UNL     1       1.657   7.258  20.961  0.00  0.00    +0.000 C 
ATOM     10  C   UNL     1       2.150   7.580  19.585  0.00  0.00    +0.000 A 
ATOM     11  C   UNL     1       3.049   6.826  18.838  0.00  0.00    +0.000 A 
ATOM     12  C   UNL     1       3.458   7.324  17.599  0.00  0.00    +0.000 A 
ATOM     13  C   UNL     1       3.001   8.573  17.150  0.00  0.00    +0.000 A 
ATOM     14  C   UNL     1       2.086   9.314  17.915  0.00  0.00    +0.000 A 
ATOM     15  C   UNL     1       1.650   8.807  19.131  0.00  0.00    +0.000 A 
ENDBRANCH   1  12
BRANCH   1  16
ATOM     16  N   UNL     1       6.099   6.665  17.553  0.00  0.00    +0.000 NA
ATOM     17  H   UNL     1       5.907   7.181  18.415  0.00  0.00    +0.000 HD
BRANCH  16  18
ATOM     18  C   UNL     1       6.906   5.446  17.801  0.00  0.00    +0.000 C 
BRANCH  18  19
ATOM     19  C   UNL     1       6.477   4.736  19.079  0.00  0.00    +0.000 C 
ATOM     20  O   UNL     1       6.937   5.041  20.175  0.00  0.00    +0.000 OA
ATOM     21  N   UNL     1       5.523   3.753  18.909  0.00  0.00    +0.000 N 
ATOM     22  H   UNL     1       5.014   3.767  18.029  0.00  0.00    +0.000 HD
BRANCH  21  23
ATOM     23  C   UNL     1       4.895   3.117  20.048  0.00  0.00    +0.000 C 
BRANCH  23  24
ATOM     24  C   UNL     1       3.395   3.044  19.909  0.00  0.00    +0.000 A 
ATOM     25  C   UNL     1       2.591   3.737  20.832  0.00  0.00    +0.000 A 
ATOM     26  C   UNL     1       1.198   3.703  20.740  0.00  0.00    +0.000 A 
ATOM     27  C   UNL     1       0.584   2.972  19.729  0.00  0.00    +0.000 A 
ATOM     28  C   UNL     1       1.364   2.282  18.802  0.00  0.00    +0.000 A 
ATOM     29  C   UNL     1       2.758   2.321  18.885  0.00  0.00    +0.000 A 
ATOM     30 CL   UNL     1       3.659   1.455  17.692  0.00  0.00    +0.000 Cl
ENDBRANCH  23  24
ENDBRANCH  21  23
ENDBRANCH  18  19
ENDBRANCH  16  18
ENDBRANCH   1  16
TORSDOF 6
ENDMDL
MODEL 5
REMARK VINA RESULT:      -8.2      2.456      3.480
REMARK  Name = 
REMARK  7 active torsions:
REMARK  status: ('A' for Active; 'I' for Inactive)
REMARK    1  A    between atoms: C_1  and  C_2
REMARK    2  A    between atoms: C_9  and  S_10
REMARK    3  A    between atoms: S_10  and  N_13
REMARK    4  A    between atoms: N_13  and  C_14
REMARK    5  A    between atoms: C_14  and  C_15
REMARK    6  A    between atoms: N_17  and  C_18
REMARK    7  A    between atoms: C_18  and  C_19
REMARK                            x       y       z     vdW  Elec       q    Type
REMARK                         _______ _______ _______ _____ _____    ______ ____
ROOT
ATOM      1  S   UNL     1       2.031   2.750  17.908  0.00  0.00    +0.000 S 
ATOM      2  O   UNL     1       0.894   3.623  17.714  0.00  0.00    +0.000 OA
ATOM      3  O   UNL     1       2.329   1.666  17.003  0.00  0.00    +0.000 OA
ENDROOT
BRANCH   1  12
ATOM      4  C   UNL     1       8.254   5.751  19.998  0.00  0.00    +0.000 C 
ATOM      5  C   UNL     1       7.904   6.630  18.832  0.00  0.00    +0.000 C 
ATOM      6  O   UNL     1       8.674   7.545  18.519  0.00  0.00    +0.000 OA
ATOM      7  N   UNL     1       6.751   6.391  18.116  0.00  0.00    +0.000 N 
ATOM      8  C   UNL     1       6.504   7.186  16.902  0.00  0.00    +0.000 C 
ATOM      9  C   UNL     1       5.140   6.779  16.348  0.00  0.00    +0.000 C 
ATOM     10  C   UNL     1       4.803   5.597  17.203  0.00  0.00    +0.000 A 
ATOM     11  C   UNL     1       3.690   4.775  17.064  0.00  0.00    +0.000 A 
ATOM     12  C   UNL     1       3.497   3.762  18.006  0.00  0.00    +0.000 A 
ATOM     13  C   UNL     1       4.385   3.615  19.084  0.00  0.00    +0.000 A 
ATOM     14  C   UNL     1       5.509   4.451  19.199  0.00  0.00    +0.000 A 
ATOM     15  C   UNL     1       5.723   5.436  18.246  0.00  0.00    +0.000 A 
ENDBRANCH   1  12
BRANCH   1  16
ATOM     16  N   UNL     1       1.933   2.071  19.457  0.00  0.00    +0.000 NA
ATOM     17  H   UNL     1       2.861   1.973  19.874  0.00  0.00    +0.000 HD
BRANCH  16  18
ATOM     18  C   UNL     1       0.974   2.728  20.378  0.00  0.00    +0.000 C 
BRANCH  18  19
ATOM     19  C   UNL     1       1.605   3.916  21.095  0.00  0.00    +0.000 C 
ATOM     20  O   UNL     1       2.327   3.771  22.076  0.00  0.00    +0.000 OA
ATOM     21  N   UNL     1       1.321   5.149  20.542  0.00  0.00    +0.000 N 
ATOM     22  H   UNL     1       0.955   5.144  19.594  0.00  0.00    +0.000 HD
BRANCH  21  23
ATOM     23  C   UNL     1       1.987   6.346  21.008  0.00  0.00    +0.000 C 
BRANCH  23  24
ATOM     24  C   UNL     1       1.803   7.509  20.066  0.00  0.00    +0.000 A 
ATOM     25  C   UNL     1       2.329   7.421  18.764  0.00  0.00    +0.000 A 
ATOM     26  C   UNL     1       2.178   8.470  17.854  0.00  0.00    +0.000 A 
ATOM     27  C   UNL     1       1.505   9.627  18.231  0.00  0.00    +0.000 A 
ATOM     28  C   UNL     1       0.972   9.731  19.515  0.00  0.00    +0.000 A 
ATOM     29  C   UNL     1       1.113   8.680  20.425  0.00  0.00    +0.000 A 
ATOM     30 CL   UNL     1       0.412   8.874  21.993  0.00  0.00    +0.000 Cl
ENDBRANCH  23  24
ENDBRANCH  21  23
ENDBRANCH  18  19
ENDBRANCH  16  18
ENDBRANCH   1  16
TORSDOF 6
ENDMDL
MODEL 6
REMARK VINA RESULT:      -8.2      2.804      6.971
REMARK  Name = 
REMARK  7 active torsions:
REMARK  status: ('A' for Active; 'I' for Inactive)
REMARK    1  A    between atoms: C_1  and  C_2
REMARK    2  A    between atoms: C_9  and  S_10
REMARK    3  A    between atoms: S_10  and  N_13
REMARK    4  A    between atoms: N_13  and  C_14
REMARK    5  A    between atoms: C_14  and  C_15
REMARK    6  A    between atoms: N_17  and  C_18
REMARK    7  A    between atoms: C_18  and  C_19
REMARK                            x       y       z     vdW  Elec       q    Type
REMARK                         _______ _______ _______ _____ _____    ______ ____
ROOT
ATOM      1  S   UNL     1       2.525   3.704  20.807  0.00  0.00    +0.000 S 
ATOM      2  O   UNL     1       3.894   3.376  20.479  0.00  0.00    +0.000 OA
ATOM      3  O   UNL     1       1.984   3.501  22.131  0.00  0.00    +0.000 OA
ENDROOT
BRANCH   1  12
ATOM      4  C   UNL     1       0.360  10.589  20.869  0.00  0.00    +0.000 C 
ATOM      5  C   UNL     1       1.005  10.517  19.515  0.00  0.00    +0.000 C 
ATOM      6  O   UNL     1       1.034  11.532  18.811  0.00  0.00    +0.000 OA
ATOM      7  N   UNL     1       1.576   9.336  19.090  0.00  0.00    +0.000 N 
ATOM      8  C   UNL     1       2.313   9.334  17.817  0.00  0.00    +0.000 C 
ATOM      9  C   UNL     1       2.772   7.903  17.546  0.00  0.00    +0.000 C 
ATOM     10  C   UNL     1       2.428   7.223  18.834  0.00  0.00    +0.000 A 
ATOM     11  C   UNL     1       2.718   5.905  19.170  0.00  0.00    +0.000 A 
ATOM     12  C   UNL     1       2.248   5.416  20.390  0.00  0.00    +0.000 A 
ATOM     13  C   UNL     1       1.468   6.229  21.228  0.00  0.00    +0.000 A 
ATOM     14  C   UNL     1       1.194   7.561  20.875  0.00  0.00    +0.000 A 
ATOM     15  C   UNL     1       1.689   8.062  19.679  0.00  0.00    +0.000 A 
ENDBRANCH   1  12
BRANCH   1  16
ATOM     16  N   UNL     1       1.501   2.881  19.738  0.00  0.00    +0.000 NA
ATOM     17  H   UNL     1       0.876   3.531  19.255  0.00  0.00    +0.000 HD
BRANCH  16  18
ATOM     18  C   UNL     1       2.178   1.955  18.798  0.00  0.00    +0.000 C 
BRANCH  18  19
ATOM     19  C   UNL     1       2.740   2.692  17.588  0.00  0.00    +0.000 C 
ATOM     20  O   UNL     1       2.012   3.259  16.779  0.00  0.00    +0.000 OA
ATOM     21  N   UNL     1       4.117   2.690  17.492  0.00  0.00    +0.000 N 
ATOM     22  H   UNL     1       4.627   2.443  18.336  0.00  0.00    +0.000 HD
BRANCH  21  23
ATOM     23  C   UNL     1       4.796   3.493  16.498  0.00  0.00    +0.000 C 
BRANCH  23  24
ATOM     24  C   UNL     1       5.721   4.512  17.116  0.00  0.00    +0.000 A 
ATOM     25  C   UNL     1       5.883   4.526  18.513  0.00  0.00    +0.000 A 
ATOM     26  C   UNL     1       6.732   5.447  19.130  0.00  0.00    +0.000 A 
ATOM     27  C   UNL     1       7.430   6.373  18.363  0.00  0.00    +0.000 A 
ATOM     28  C   UNL     1       7.286   6.372  16.976  0.00  0.00    +0.000 A 
ATOM     29  C   UNL     1       6.445   5.446  16.355  0.00  0.00    +0.000 A 
ATOM     30 CL   UNL     1       6.330   5.494  14.631  0.00  0.00    +0.000 Cl
ENDBRANCH  23  24
ENDBRANCH  21  23
ENDBRANCH  18  19
ENDBRANCH  16  18
ENDBRANCH   1  16
TORSDOF 6
ENDMDL
MODEL 7
REMARK VINA RESULT:      -8.1      1.913      2.415
REMARK  Name = 
REMARK  7 active torsions:
REMARK  status: ('A' for Active; 'I' for Inactive)
REMARK    1  A    between atoms: C_1  and  C_2
REMARK    2  A    between atoms: C_9  and  S_10
REMARK    3  A    between atoms: S_10  and  N_13
REMARK    4  A    between atoms: N_13  and  C_14
REMARK    5  A    between atoms: C_14  and  C_15
REMARK    6  A    between atoms: N_17  and  C_18
REMARK    7  A    between atoms: C_18  and  C_19
REMARK                            x       y       z     vdW  Elec       q    Type
REMARK                         _______ _______ _______ _____ _____    ______ ____
ROOT
ATOM      1  S   UNL     1       1.728   4.258  20.362  0.00  0.00    +0.000 S 
ATOM      2  O   UNL     1       0.850   3.224  19.861  0.00  0.00    +0.000 OA
ATOM      3  O   UNL     1       2.351   4.170  21.662  0.00  0.00    +0.000 OA
ENDROOT
BRANCH   1  12
ATOM      4  C   UNL     1       5.668   4.352  14.316  0.00  0.00    +0.000 C 
ATOM      5  C   UNL     1       6.680   4.846  15.309  0.00  0.00    +0.000 C 
ATOM      6  O   UNL     1       7.813   5.139  14.914  0.00  0.00    +0.000 OA
ATOM      7  N   UNL     1       6.325   4.989  16.634  0.00  0.00    +0.000 N 
ATOM      8  C   UNL     1       7.297   5.598  17.556  0.00  0.00    +0.000 C 
ATOM      9  C   UNL     1       6.691   5.569  18.957  0.00  0.00    +0.000 C 
ATOM     10  C   UNL     1       5.291   5.122  18.676  0.00  0.00    +0.000 A 
ATOM     11  C   UNL     1       4.263   5.010  19.605  0.00  0.00    +0.000 A 
ATOM     12  C   UNL     1       3.037   4.499  19.174  0.00  0.00    +0.000 A 
ATOM     13  C   UNL     1       2.872   4.071  17.847  0.00  0.00    +0.000 A 
ATOM     14  C   UNL     1       3.922   4.201  16.922  0.00  0.00    +0.000 A 
ATOM     15  C   UNL     1       5.130   4.742  17.337  0.00  0.00    +0.000 A 
ENDBRANCH   1  12
BRANCH   1  16
ATOM     16  N   UNL     1       0.901   5.735  20.323  0.00  0.00    +0.000 NA
ATOM     17  H   UNL     1      -0.025   5.648  20.748  0.00  0.00    +0.000 HD
BRANCH  16  18
ATOM     18  C   UNL     1       1.653   6.898  20.856  0.00  0.00    +0.000 C 
BRANCH  18  19
ATOM     19  C   UNL     1       1.791   8.003  19.816  0.00  0.00    +0.000 C 
ATOM     20  O   UNL     1       2.444   7.849  18.789  0.00  0.00    +0.000 OA
ATOM     21  N   UNL     1       1.108   9.168  20.109  0.00  0.00    +0.000 N 
ATOM     22  H   UNL     1       0.389   9.101  20.823  0.00  0.00    +0.000 HD
BRANCH  21  23
ATOM     23  C   UNL     1       1.005  10.236  19.137  0.00  0.00    +0.000 C 
BRANCH  23  24
ATOM     24  C   UNL     1      -0.424  10.531  18.759  0.00  0.00    +0.000 A 
ATOM     25  C   UNL     1      -1.011   9.815  17.699  0.00  0.00    +0.000 A 
ATOM     26  C   UNL     1      -2.333  10.050  17.316  0.00  0.00    +0.000 A 
ATOM     27  C   UNL     1      -3.092  11.007  17.982  0.00  0.00    +0.000 A 
ATOM     28  C   UNL     1      -2.530  11.723  19.039  0.00  0.00    +0.000 A 
ATOM     29  C   UNL     1      -1.210  11.484  19.430  0.00  0.00    +0.000 A 
ATOM     30 CL   UNL     1      -0.588  12.398  20.758  0.00  0.00    +0.000 Cl
ENDBRANCH  23  24
ENDBRANCH  21  23
ENDBRANCH  18  19
ENDBRANCH  16  18
ENDBRANCH   1  16
TORSDOF 6
ENDMDL
MODEL 8
REMARK VINA RESULT:      -7.8      3.161      9.031
REMARK  Name = 
REMARK  7 active torsions:
REMARK  status: ('A' for Active; 'I' for Inactive)
REMARK    1  A    between atoms: C_1  and  C_2
REMARK    2  A    between atoms: C_9  and  S_10
REMARK    3  A    between atoms: S_10  and  N_13
REMARK    4  A    between atoms: N_13  and  C_14
REMARK    5  A    between atoms: C_14  and  C_15
REMARK    6  A    between atoms: N_17  and  C_18
REMARK    7  A    between atoms: C_18  and  C_19
REMARK                            x       y       z     vdW  Elec       q    Type
REMARK                         _______ _______ _______ _____ _____    ______ ____
ROOT
ATOM      1  S   UNL     1       3.244   5.800  18.315  0.00  0.00    +0.000 S 
ATOM      2  O   UNL     1       2.491   4.583  18.517  0.00  0.00    +0.000 OA
ATOM      3  O   UNL     1       3.568   6.291  16.995  0.00  0.00    +0.000 OA
ENDROOT
BRANCH   1  12
ATOM      4  C   UNL     1      -0.257   9.745  23.241  0.00  0.00    +0.000 C 
ATOM      5  C   UNL     1      -0.295  10.679  22.066  0.00  0.00    +0.000 C 
ATOM      6  O   UNL     1      -0.833  11.784  22.195  0.00  0.00    +0.000 OA
ATOM      7  N   UNL     1       0.290  10.305  20.875  0.00  0.00    +0.000 N 
ATOM      8  C   UNL     1       0.352  11.292  19.785  0.00  0.00    +0.000 C 
ATOM      9  C   UNL     1       0.972  10.606  18.569  0.00  0.00    +0.000 C 
ATOM     10  C   UNL     1       1.420   9.302  19.150  0.00  0.00    +0.000 A 
ATOM     11  C   UNL     1       2.140   8.313  18.488  0.00  0.00    +0.000 A 
ATOM     12  C   UNL     1       2.404   7.122  19.168  0.00  0.00    +0.000 A 
ATOM     13  C   UNL     1       1.913   6.923  20.468  0.00  0.00    +0.000 A 
ATOM     14  C   UNL     1       1.196   7.938  21.122  0.00  0.00    +0.000 A 
ATOM     15  C   UNL     1       0.962   9.137  20.463  0.00  0.00    +0.000 A 
ENDBRANCH   1  12
BRANCH   1  16
ATOM     16  N   UNL     1       4.709   5.675  19.154  0.00  0.00    +0.000 NA
ATOM     17  H   UNL     1       4.571   5.819  20.157  0.00  0.00    +0.000 HD
BRANCH  16  18
ATOM     18  C   UNL     1       5.502   4.454  18.870  0.00  0.00    +0.000 C 
BRANCH  18  19
ATOM     19  C   UNL     1       6.628   4.731  17.881  0.00  0.00    +0.000 C 
ATOM     20  O   UNL     1       7.776   4.345  18.082  0.00  0.00    +0.000 OA
ATOM     21  N   UNL     1       6.252   5.421  16.746  0.00  0.00    +0.000 N 
ATOM     22  H   UNL     1       5.256   5.449  16.546  0.00  0.00    +0.000 HD
BRANCH  21  23
ATOM     23  C   UNL     1       7.172   5.603  15.644  0.00  0.00    +0.000 C 
BRANCH  23  24
ATOM     24  C   UNL     1       6.730   4.873  14.401  0.00  0.00    +0.000 A 
ATOM     25  C   UNL     1       5.551   4.108  14.443  0.00  0.00    +0.000 A 
ATOM     26  C   UNL     1       5.099   3.419  13.315  0.00  0.00    +0.000 A 
ATOM     27  C   UNL     1       5.820   3.478  12.127  0.00  0.00    +0.000 A 
ATOM     28  C   UNL     1       6.989   4.236  12.064  0.00  0.00    +0.000 A 
ATOM     29  C   UNL     1       7.439   4.933  13.188  0.00  0.00    +0.000 A 
ATOM     30 CL   UNL     1       8.887   5.864  13.030  0.00  0.00    +0.000 Cl
ENDBRANCH  23  24
ENDBRANCH  21  23
ENDBRANCH  18  19
ENDBRANCH  16  18
ENDBRANCH   1  16
TORSDOF 6
ENDMDL
MODEL 9
REMARK VINA RESULT:      -7.8      4.861      7.791
REMARK  Name = 
REMARK  7 active torsions:
REMARK  status: ('A' for Active; 'I' for Inactive)
REMARK    1  A    between atoms: C_1  and  C_2
REMARK    2  A    between atoms: C_9  and  S_10
REMARK    3  A    between atoms: S_10  and  N_13
REMARK    4  A    between atoms: N_13  and  C_14
REMARK    5  A    between atoms: C_14  and  C_15
REMARK    6  A    between atoms: N_17  and  C_18
REMARK    7  A    between atoms: C_18  and  C_19
REMARK                            x       y       z     vdW  Elec       q    Type
REMARK                         _______ _______ _______ _____ _____    ______ ____
ROOT
ATOM      1  S   UNL     1       6.032   5.556  15.829  0.00  0.00    +0.000 S 
ATOM      2  O   UNL     1       6.567   4.366  15.205  0.00  0.00    +0.000 OA
ATOM      3  O   UNL     1       5.226   6.507  15.100  0.00  0.00    +0.000 OA
ENDROOT
BRANCH   1  12
ATOM      4  C   UNL     1       3.388   1.892  21.457  0.00  0.00    +0.000 C 
ATOM      5  C   UNL     1       2.434   3.050  21.412  0.00  0.00    +0.000 C 
ATOM      6  O   UNL     1       1.533   3.118  22.256  0.00  0.00    +0.000 OA
ATOM      7  N   UNL     1       2.590   4.029  20.454  0.00  0.00    +0.000 N 
ATOM      8  C   UNL     1       1.720   5.215  20.517  0.00  0.00    +0.000 C 
ATOM      9  C   UNL     1       2.044   6.095  19.312  0.00  0.00    +0.000 C 
ATOM     10  C   UNL     1       3.257   5.418  18.756  0.00  0.00    +0.000 A 
ATOM     11  C   UNL     1       4.028   5.863  17.687  0.00  0.00    +0.000 A 
ATOM     12  C   UNL     1       5.083   5.057  17.254  0.00  0.00    +0.000 A 
ATOM     13  C   UNL     1       5.323   3.813  17.861  0.00  0.00    +0.000 A 
ATOM     14  C   UNL     1       4.538   3.387  18.946  0.00  0.00    +0.000 A 
ATOM     15  C   UNL     1       3.511   4.201  19.402  0.00  0.00    +0.000 A 
ENDBRANCH   1  12
BRANCH   1  16
ATOM     16  N   UNL     1       7.312   6.431  16.509  0.00  0.00    +0.000 NA
ATOM     17  H   UNL     1       8.071   6.554  15.836  0.00  0.00    +0.000 HD
BRANCH  16  18
ATOM     18  C   UNL     1       6.932   7.708  17.161  0.00  0.00    +0.000 C 
BRANCH  18  19
ATOM     19  C   UNL     1       8.018   8.201  18.110  0.00  0.00    +0.000 C 
ATOM     20  O   UNL     1       8.610   7.439  18.868  0.00  0.00    +0.000 OA
ATOM     21  N   UNL     1       8.295   9.551  18.030  0.00  0.00    +0.000 N 
ATOM     22  H   UNL     1       7.960  10.031  17.200  0.00  0.00    +0.000 HD
BRANCH  21  23
ATOM     23  C   UNL     1       9.416  10.126  18.743  0.00  0.00    +0.000 C 
BRANCH  23  24
ATOM     24  C   UNL     1       9.515  11.618  18.549  0.00  0.00    +0.000 A 
ATOM     25  C   UNL     1       8.513  12.277  17.813  0.00  0.00    +0.000 A 
ATOM     26  C   UNL     1       8.559  13.658  17.611  0.00  0.00    +0.000 A 
ATOM     27  C   UNL     1       9.609  14.405  18.136  0.00  0.00    +0.000 A 
ATOM     28  C   UNL     1      10.609  13.770  18.872  0.00  0.00    +0.000 A 
ATOM     29  C   UNL     1      10.561  12.389  19.084  0.00  0.00    +0.000 A 
ATOM     30 CL   UNL     1      11.826  11.675  20.020  0.00  0.00    +0.000 Cl
ENDBRANCH  23  24
ENDBRANCH  21  23
ENDBRANCH  18  19
ENDBRANCH  16  18
ENDBRANCH   1  16
TORSDOF 6
ENDMDL
