MODEL 1
REMARK VINA RESULT:      -6.6      0.000      0.000
REMARK  Name = 
REMARK  7 active torsions:
REMARK  status: ('A' for Active; 'I' for Inactive)
REMARK    1  A    between atoms: C_1  and  C_2
REMARK    2  A    between atoms: C_4  and  C_5
REMARK    3  A    between atoms: N_6  and  O_7
REMARK    4  A    between atoms: O_7  and  C_8
REMARK    5  A    between atoms: C_8  and  C_9
REMARK    6  A    between atoms: C_15  and  C_16
REMARK    7  A    between atoms: N_17  and  C_18
REMARK                            x       y       z     vdW  Elec       q    Type
REMARK                         _______ _______ _______ _____ _____    ______ ____
ROOT
ATOM      1  C   UNL     1       5.709   4.386  14.864  0.00  0.00    +0.000 C 
ATOM      2  C   UNL     1       5.180   3.989  16.201  0.00  0.00    +0.000 A 
ATOM      3  C   UNL     1       4.366   2.904  16.431  0.00  0.00    +0.000 A 
ATOM      4  C   UNL     1       4.276   2.679  17.820  0.00  0.00    +0.000 A 
ATOM      5  C   UNL     1       4.930   3.745  18.431  0.00  0.00    +0.000 A 
ATOM      6  C   UNL     1       4.987   4.048  19.896  0.00  0.00    +0.000 C 
ATOM      7  N   UNL     1       5.496   4.566  17.432  0.00  0.00    +0.000 N 
ENDROOT
BRANCH   7   8
ATOM      8  C   UNL     1       6.240   5.788  17.621  0.00  0.00    +0.000 A 
ATOM      9  C   UNL     1       5.813   7.002  17.068  0.00  0.00    +0.000 A 
ATOM     10  C   UNL     1       6.574   8.169  17.222  0.00  0.00    +0.000 A 
ATOM     11  C   UNL     1       7.753   8.140  17.959  0.00  0.00    +0.000 A 
ATOM     12 CL   UNL     1       8.688   9.570  18.148  0.00  0.00    +0.000 Cl
ATOM     13  C   UNL     1       8.180   6.952  18.540  0.00  0.00    +0.000 A 
ATOM     14  C   UNL     1       7.435   5.780  18.358  0.00  0.00    +0.000 A 
ENDBRANCH   7   8
BRANCH   4  15
ATOM     15  C   UNL     1       3.587   1.584  18.506  0.00  0.00    +0.000 C 
ATOM     16  N   UNL     1       2.298   1.420  18.618  0.00  0.00    +0.000 NA
BRANCH  16  17
ATOM     17  O   UNL     1       1.578   2.393  17.918  0.00  0.00    +0.000 OA
BRANCH  17  18
ATOM     18  C   UNL     1       0.713   3.115  18.793  0.00  0.00    +0.000 C 
BRANCH  18  19
ATOM     19  C   UNL     1       1.318   4.473  19.078  0.00  0.00    +0.000 A 
ATOM     20  C   UNL     1       1.429   4.962  20.391  0.00  0.00    +0.000 A 
ATOM     21  C   UNL     1       1.987   6.217  20.644  0.00  0.00    +0.000 A 
ATOM     22  C   UNL     1       2.457   6.994  19.589  0.00  0.00    +0.000 A 
ATOM     23  C   UNL     1       2.379   6.512  18.283  0.00  0.00    +0.000 A 
ATOM     24  C   UNL     1       1.817   5.258  18.029  0.00  0.00    +0.000 A 
ENDBRANCH  18  19
ENDBRANCH  17  18
ENDBRANCH  16  17
ENDBRANCH   4  15
TORSDOF 5
ENDMDL
MODEL 2
REMARK VINA RESULT:      -6.6      0.641      1.230
REMARK  Name = 
REMARK  7 active torsions:
REMARK  status: ('A' for Active; 'I' for Inactive)
REMARK    1  A    between atoms: C_1  and  C_2
REMARK    2  A    between atoms: C_4  and  C_5
REMARK    3  A    between atoms: N_6  and  O_7
REMARK    4  A    between atoms: O_7  and  C_8
REMARK    5  A    between atoms: C_8  and  C_9
REMARK    6  A    between atoms: C_15  and  C_16
REMARK    7  A    between atoms: N_17  and  C_18
REMARK                            x       y       z     vdW  Elec       q    Type
REMARK                         _______ _______ _______ _____ _____    ______ ____
ROOT
ATOM      1  C   UNL     1       5.736   4.753  14.828  0.00  0.00    +0.000 C 
ATOM      2  C   UNL     1       5.174   4.297  16.133  0.00  0.00    +0.000 A 
ATOM      3  C   UNL     1       4.261   3.279  16.279  0.00  0.00    +0.000 A 
ATOM      4  C   UNL     1       4.153   2.947  17.646  0.00  0.00    +0.000 A 
ATOM      5  C   UNL     1       4.907   3.891  18.337  0.00  0.00    +0.000 A 
ATOM      6  C   UNL     1       4.997   4.063  19.821  0.00  0.00    +0.000 C 
ATOM      7  N   UNL     1       5.547   4.736  17.404  0.00  0.00    +0.000 N 
ENDROOT
BRANCH   7   8
ATOM      8  C   UNL     1       6.405   5.861  17.686  0.00  0.00    +0.000 A 
ATOM      9  C   UNL     1       7.506   5.750  18.545  0.00  0.00    +0.000 A 
ATOM     10  C   UNL     1       8.299   6.866  18.845  0.00  0.00    +0.000 A 
ATOM     11  C   UNL     1       8.021   8.096  18.259  0.00  0.00    +0.000 A 
ATOM     12 CL   UNL     1       8.994   9.466  18.626  0.00  0.00    +0.000 Cl
ATOM     13  C   UNL     1       6.951   8.221  17.382  0.00  0.00    +0.000 A 
ATOM     14  C   UNL     1       6.140   7.113  17.110  0.00  0.00    +0.000 A 
ENDBRANCH   7   8
BRANCH   4  15
ATOM     15  C   UNL     1       3.364   1.869  18.244  0.00  0.00    +0.000 C 
ATOM     16  N   UNL     1       2.152   1.957  18.717  0.00  0.00    +0.000 NA
BRANCH  16  17
ATOM     17  O   UNL     1       1.599   3.226  18.523  0.00  0.00    +0.000 OA
BRANCH  17  18
ATOM     18  C   UNL     1       1.456   3.916  19.764  0.00  0.00    +0.000 C 
BRANCH  18  19
ATOM     19  C   UNL     1       1.710   5.391  19.543  0.00  0.00    +0.000 A 
ATOM     20  C   UNL     1       1.547   6.325  20.581  0.00  0.00    +0.000 A 
ATOM     21  C   UNL     1       1.782   7.684  20.367  0.00  0.00    +0.000 A 
ATOM     22  C   UNL     1       2.201   8.128  19.115  0.00  0.00    +0.000 A 
ATOM     23  C   UNL     1       2.395   7.213  18.082  0.00  0.00    +0.000 A 
ATOM     24  C   UNL     1       2.156   5.852  18.295  0.00  0.00    +0.000 A 
ENDBRANCH  18  19
ENDBRANCH  17  18
ENDBRANCH  16  17
ENDBRANCH   4  15
TORSDOF 5
ENDMDL
MODEL 3
REMARK VINA RESULT:      -6.6      0.521      1.128
REMARK  Name = 
REMARK  7 active torsions:
REMARK  status: ('A' for Active; 'I' for Inactive)
REMARK    1  A    between atoms: C_1  and  C_2
REMARK    2  A    between atoms: C_4  and  C_5
REMARK    3  A    between atoms: N_6  and  O_7
REMARK    4  A    between atoms: O_7  and  C_8
REMARK    5  A    between atoms: C_8  and  C_9
REMARK    6  A    between atoms: C_15  and  C_16
REMARK    7  A    between atoms: N_17  and  C_18
REMARK                            x       y       z     vdW  Elec       q    Type
REMARK                         _______ _______ _______ _____ _____    ______ ____
ROOT
ATOM      1  C   UNL     1       5.587   4.380  14.943  0.00  0.00    +0.000 C 
ATOM      2  C   UNL     1       5.046   4.011  16.284  0.00  0.00    +0.000 A 
ATOM      3  C   UNL     1       4.181   2.968  16.520  0.00  0.00    +0.000 A 
ATOM      4  C   UNL     1       4.088   2.749  17.910  0.00  0.00    +0.000 A 
ATOM      5  C   UNL     1       4.796   3.783  18.516  0.00  0.00    +0.000 A 
ATOM      6  C   UNL     1       4.876   4.085  19.979  0.00  0.00    +0.000 C 
ATOM      7  N   UNL     1       5.397   4.574  17.513  0.00  0.00    +0.000 N 
ENDROOT
BRANCH   7   8
ATOM      8  C   UNL     1       6.200   5.758  17.695  0.00  0.00    +0.000 A 
ATOM      9  C   UNL     1       5.829   6.991  17.143  0.00  0.00    +0.000 A 
ATOM     10  C   UNL     1       6.647   8.120  17.291  0.00  0.00    +0.000 A 
ATOM     11  C   UNL     1       7.828   8.034  18.022  0.00  0.00    +0.000 A 
ATOM     12 CL   UNL     1       8.833   9.417  18.203  0.00  0.00    +0.000 Cl
ATOM     13  C   UNL     1       8.200   6.827  18.601  0.00  0.00    +0.000 A 
ATOM     14  C   UNL     1       7.398   5.693  18.425  0.00  0.00    +0.000 A 
ENDBRANCH   7   8
BRANCH   4  15
ATOM     15  C   UNL     1       3.350   1.690  18.601  0.00  0.00    +0.000 C 
ATOM     16  N   UNL     1       2.116   1.743  19.021  0.00  0.00    +0.000 NA
BRANCH  16  17
ATOM     17  O   UNL     1       1.487   2.941  18.666  0.00  0.00    +0.000 OA
BRANCH  17  18
ATOM     18  C   UNL     1       1.225   3.740  19.819  0.00  0.00    +0.000 C 
BRANCH  18  19
ATOM     19  C   UNL     1       1.603   5.176  19.522  0.00  0.00    +0.000 A 
ATOM     20  C   UNL     1       1.967   5.583  18.227  0.00  0.00    +0.000 A 
ATOM     21  C   UNL     1       2.315   6.909  17.964  0.00  0.00    +0.000 A 
ATOM     22  C   UNL     1       2.288   7.851  18.989  0.00  0.00    +0.000 A 
ATOM     23  C   UNL     1       1.903   7.470  20.274  0.00  0.00    +0.000 A 
ATOM     24  C   UNL     1       1.558   6.142  20.538  0.00  0.00    +0.000 A 
ENDBRANCH  18  19
ENDBRANCH  17  18
ENDBRANCH  16  17
ENDBRANCH   4  15
TORSDOF 5
ENDMDL
MODEL 4
REMARK VINA RESULT:      -6.5      3.293      6.689
REMARK  Name = 
REMARK  7 active torsions:
REMARK  status: ('A' for Active; 'I' for Inactive)
REMARK    1  A    between atoms: C_1  and  C_2
REMARK    2  A    between atoms: C_4  and  C_5
REMARK    3  A    between atoms: N_6  and  O_7
REMARK    4  A    between atoms: O_7  and  C_8
REMARK    5  A    between atoms: C_8  and  C_9
REMARK    6  A    between atoms: C_15  and  C_16
REMARK    7  A    between atoms: N_17  and  C_18
REMARK                            x       y       z     vdW  Elec       q    Type
REMARK                         _______ _______ _______ _____ _____    ______ ____
ROOT
ATOM      1  C   UNL     1       2.007   4.130  17.943  0.00  0.00    +0.000 C 
ATOM      2  C   UNL     1       3.391   4.675  17.821  0.00  0.00    +0.000 A 
ATOM      3  C   UNL     1       4.497   3.934  17.477  0.00  0.00    +0.000 A 
ATOM      4  C   UNL     1       5.571   4.806  17.204  0.00  0.00    +0.000 A 
ATOM      5  C   UNL     1       5.132   6.084  17.539  0.00  0.00    +0.000 A 
ATOM      6  C   UNL     1       5.946   7.339  17.569  0.00  0.00    +0.000 C 
ATOM      7  N   UNL     1       3.775   6.013  17.924  0.00  0.00    +0.000 N 
ENDROOT
BRANCH   7   8
ATOM      8  C   UNL     1       2.934   7.097  18.370  0.00  0.00    +0.000 A 
ATOM      9  C   UNL     1       2.363   7.107  19.649  0.00  0.00    +0.000 A 
ATOM     10  C   UNL     1       1.509   8.146  20.046  0.00  0.00    +0.000 A 
ATOM     11  C   UNL     1       1.247   9.202  19.181  0.00  0.00    +0.000 A 
ATOM     12 CL   UNL     1       0.200  10.476  19.667  0.00  0.00    +0.000 Cl
ATOM     13  C   UNL     1       1.826   9.226  17.918  0.00  0.00    +0.000 A 
ATOM     14  C   UNL     1       2.652   8.171  17.511  0.00  0.00    +0.000 A 
ENDBRANCH   7   8
BRANCH   4  15
ATOM     15  C   UNL     1       6.908   4.454  16.722  0.00  0.00    +0.000 C 
ATOM     16  N   UNL     1       7.278   4.311  15.479  0.00  0.00    +0.000 NA
BRANCH  16  17
ATOM     17  O   UNL     1       6.250   4.619  14.582  0.00  0.00    +0.000 OA
BRANCH  17  18
ATOM     18  C   UNL     1       6.771   4.872  13.278  0.00  0.00    +0.000 C 
BRANCH  18  19
ATOM     19  C   UNL     1       6.512   3.668  12.398  0.00  0.00    +0.000 A 
ATOM     20  C   UNL     1       7.570   2.907  11.872  0.00  0.00    +0.000 A 
ATOM     21  C   UNL     1       7.321   1.799  11.060  0.00  0.00    +0.000 A 
ATOM     22  C   UNL     1       6.010   1.426  10.776  0.00  0.00    +0.000 A 
ATOM     23  C   UNL     1       4.949   2.153  11.312  0.00  0.00    +0.000 A 
ATOM     24  C   UNL     1       5.198   3.265  12.122  0.00  0.00    +0.000 A 
ENDBRANCH  18  19
ENDBRANCH  17  18
ENDBRANCH  16  17
ENDBRANCH   4  15
TORSDOF 5
ENDMDL
MODEL 5
REMARK VINA RESULT:      -6.4      3.222      6.563
REMARK  Name = 
REMARK  7 active torsions:
REMARK  status: ('A' for Active; 'I' for Inactive)
REMARK    1  A    between atoms: C_1  and  C_2
REMARK    2  A    between atoms: C_4  and  C_5
REMARK    3  A    between atoms: N_6  and  O_7
REMARK    4  A    between atoms: O_7  and  C_8
REMARK    5  A    between atoms: C_8  and  C_9
REMARK    6  A    between atoms: C_15  and  C_16
REMARK    7  A    between atoms: N_17  and  C_18
REMARK                            x       y       z     vdW  Elec       q    Type
REMARK                         _______ _______ _______ _____ _____    ______ ____
ROOT
ATOM      1  C   UNL     1       2.357   3.944  18.292  0.00  0.00    +0.000 C 
ATOM      2  C   UNL     1       3.687   4.574  18.048  0.00  0.00    +0.000 A 
ATOM      3  C   UNL     1       4.833   3.885  17.724  0.00  0.00    +0.000 A 
ATOM      4  C   UNL     1       5.823   4.802  17.313  0.00  0.00    +0.000 A 
ATOM      5  C   UNL     1       5.299   6.071  17.542  0.00  0.00    +0.000 A 
ATOM      6  C   UNL     1       6.014   7.379  17.408  0.00  0.00    +0.000 C 
ATOM      7  N   UNL     1       3.970   5.940  18.000  0.00  0.00    +0.000 N 
ENDROOT
BRANCH   7   8
ATOM      8  C   UNL     1       3.066   6.999  18.378  0.00  0.00    +0.000 A 
ATOM      9  C   UNL     1       2.680   7.995  17.472  0.00  0.00    +0.000 A 
ATOM     10  C   UNL     1       1.838   9.042  17.871  0.00  0.00    +0.000 A 
ATOM     11  C   UNL     1       1.347   9.085  19.172  0.00  0.00    +0.000 A 
ATOM     12 CL   UNL     1       0.315  10.369  19.663  0.00  0.00    +0.000 Cl
ATOM     13  C   UNL     1       1.695   8.091  20.078  0.00  0.00    +0.000 A 
ATOM     14  C   UNL     1       2.562   7.063  19.687  0.00  0.00    +0.000 A 
ENDBRANCH   7   8
BRANCH   4  15
ATOM     15  C   UNL     1       7.161   4.501  16.801  0.00  0.00    +0.000 C 
ATOM     16  N   UNL     1       7.525   4.441  15.550  0.00  0.00    +0.000 NA
BRANCH  16  17
ATOM     17  O   UNL     1       6.486   4.788  14.680  0.00  0.00    +0.000 OA
BRANCH  17  18
ATOM     18  C   UNL     1       6.971   4.959  13.349  0.00  0.00    +0.000 C 
BRANCH  18  19
ATOM     19  C   UNL     1       6.568   3.761  12.517  0.00  0.00    +0.000 A 
ATOM     20  C   UNL     1       5.217   3.459  12.277  0.00  0.00    +0.000 A 
ATOM     21  C   UNL     1       4.855   2.350  11.510  0.00  0.00    +0.000 A 
ATOM     22  C   UNL     1       5.840   1.537  10.956  0.00  0.00    +0.000 A 
ATOM     23  C   UNL     1       7.186   1.838  11.162  0.00  0.00    +0.000 A 
ATOM     24  C   UNL     1       7.548   2.945  11.933  0.00  0.00    +0.000 A 
ENDBRANCH  18  19
ENDBRANCH  17  18
ENDBRANCH  16  17
ENDBRANCH   4  15
TORSDOF 5
ENDMDL
MODEL 6
REMARK VINA RESULT:      -6.1      3.083      6.410
REMARK  Name = 
REMARK  7 active torsions:
REMARK  status: ('A' for Active; 'I' for Inactive)
REMARK    1  A    between atoms: C_1  and  C_2
REMARK    2  A    between atoms: C_4  and  C_5
REMARK    3  A    between atoms: N_6  and  O_7
REMARK    4  A    between atoms: O_7  and  C_8
REMARK    5  A    between atoms: C_8  and  C_9
REMARK    6  A    between atoms: C_15  and  C_16
REMARK    7  A    between atoms: N_17  and  C_18
REMARK                            x       y       z     vdW  Elec       q    Type
REMARK                         _______ _______ _______ _____ _____    ______ ____
ROOT
ATOM      1  C   UNL     1       1.965   4.161  18.556  0.00  0.00    +0.000 C 
ATOM      2  C   UNL     1       3.345   4.698  18.369  0.00  0.00    +0.000 A 
ATOM      3  C   UNL     1       4.464   3.927  18.155  0.00  0.00    +0.000 A 
ATOM      4  C   UNL     1       5.532   4.761  17.764  0.00  0.00    +0.000 A 
ATOM      5  C   UNL     1       5.075   6.069  17.896  0.00  0.00    +0.000 A 
ATOM      6  C   UNL     1       5.875   7.324  17.744  0.00  0.00    +0.000 C 
ATOM      7  N   UNL     1       3.714   6.041  18.272  0.00  0.00    +0.000 N 
ENDROOT
BRANCH   7   8
ATOM      8  C   UNL     1       2.856   7.169  18.537  0.00  0.00    +0.000 A 
ATOM      9  C   UNL     1       2.310   7.396  19.807  0.00  0.00    +0.000 A 
ATOM     10  C   UNL     1       1.440   8.471  20.034  0.00  0.00    +0.000 A 
ATOM     11  C   UNL     1       1.134   9.351  19.000  0.00  0.00    +0.000 A 
ATOM     12 CL   UNL     1       0.066  10.669  19.277  0.00  0.00    +0.000 Cl
ATOM     13  C   UNL     1       1.687   9.160  17.740  0.00  0.00    +0.000 A 
ATOM     14  C   UNL     1       2.530   8.066  17.507  0.00  0.00    +0.000 A 
ENDBRANCH   7   8
BRANCH   4  15
ATOM     15  C   UNL     1       6.879   4.356  17.357  0.00  0.00    +0.000 C 
ATOM     16  N   UNL     1       7.382   4.415  16.155  0.00  0.00    +0.000 NA
BRANCH  16  17
ATOM     17  O   UNL     1       6.505   5.008  15.242  0.00  0.00    +0.000 OA
BRANCH  17  18
ATOM     18  C   UNL     1       7.111   5.124  13.955  0.00  0.00    +0.000 C 
BRANCH  18  19
ATOM     19  C   UNL     1       6.475   4.122  13.016  0.00  0.00    +0.000 A 
ATOM     20  C   UNL     1       5.078   3.995  12.919  0.00  0.00    +0.000 A 
ATOM     21  C   UNL     1       4.501   3.067  12.051  0.00  0.00    +0.000 A 
ATOM     22  C   UNL     1       5.311   2.263  11.254  0.00  0.00    +0.000 A 
ATOM     23  C   UNL     1       6.698   2.395  11.317  0.00  0.00    +0.000 A 
ATOM     24  C   UNL     1       7.276   3.322  12.189  0.00  0.00    +0.000 A 
ENDBRANCH  18  19
ENDBRANCH  17  18
ENDBRANCH  16  17
ENDBRANCH   4  15
TORSDOF 5
ENDMDL
MODEL 7
REMARK VINA RESULT:      -6.0      4.408      6.935
REMARK  Name = 
REMARK  7 active torsions:
REMARK  status: ('A' for Active; 'I' for Inactive)
REMARK    1  A    between atoms: C_1  and  C_2
REMARK    2  A    between atoms: C_4  and  C_5
REMARK    3  A    between atoms: N_6  and  O_7
REMARK    4  A    between atoms: O_7  and  C_8
REMARK    5  A    between atoms: C_8  and  C_9
REMARK    6  A    between atoms: C_15  and  C_16
REMARK    7  A    between atoms: N_17  and  C_18
REMARK                            x       y       z     vdW  Elec       q    Type
REMARK                         _______ _______ _______ _____ _____    ______ ____
ROOT
ATOM      1  C   UNL     1       0.180   8.120  22.128  0.00  0.00    +0.000 C 
ATOM      2  C   UNL     1       1.036   8.251  20.913  0.00  0.00    +0.000 A 
ATOM      3  C   UNL     1       1.934   7.304  20.482  0.00  0.00    +0.000 A 
ATOM      4  C   UNL     1       2.369   7.636  19.182  0.00  0.00    +0.000 A 
ATOM      5  C   UNL     1       1.830   8.888  18.899  0.00  0.00    +0.000 A 
ATOM      6  C   UNL     1       2.113   9.742  17.703  0.00  0.00    +0.000 C 
ATOM      7  N   UNL     1       0.998   9.280  19.970  0.00  0.00    +0.000 N 
ENDROOT
BRANCH   7   8
ATOM      8  C   UNL     1       0.262  10.513  20.101  0.00  0.00    +0.000 A 
ATOM      9  C   UNL     1      -0.996  10.685  19.509  0.00  0.00    +0.000 A 
ATOM     10  C   UNL     1      -1.675  11.907  19.607  0.00  0.00    +0.000 A 
ATOM     11  C   UNL     1      -1.119  12.958  20.328  0.00  0.00    +0.000 A 
ATOM     12 CL   UNL     1      -1.951  14.458  20.449  0.00  0.00    +0.000 Cl
ATOM     13  C   UNL     1       0.115  12.799  20.947  0.00  0.00    +0.000 A 
ATOM     14  C   UNL     1       0.807  11.588  20.820  0.00  0.00    +0.000 A 
ENDBRANCH   7   8
BRANCH   4  15
ATOM     15  C   UNL     1       3.257   6.863  18.312  0.00  0.00    +0.000 C 
ATOM     16  N   UNL     1       2.948   5.795  17.630  0.00  0.00    +0.000 NA
BRANCH  16  17
ATOM     17  O   UNL     1       1.592   5.472  17.739  0.00  0.00    +0.000 OA
BRANCH  17  18
ATOM     18  C   UNL     1       1.406   4.057  17.761  0.00  0.00    +0.000 C 
BRANCH  18  19
ATOM     19  C   UNL     1       1.820   3.524  19.115  0.00  0.00    +0.000 A 
ATOM     20  C   UNL     1       3.083   2.942  19.316  0.00  0.00    +0.000 A 
ATOM     21  C   UNL     1       3.455   2.450  20.569  0.00  0.00    +0.000 A 
ATOM     22  C   UNL     1       2.575   2.550  21.644  0.00  0.00    +0.000 A 
ATOM     23  C   UNL     1       1.329   3.149  21.468  0.00  0.00    +0.000 A 
ATOM     24  C   UNL     1       0.955   3.637  20.213  0.00  0.00    +0.000 A 
ENDBRANCH  18  19
ENDBRANCH  17  18
ENDBRANCH  16  17
ENDBRANCH   4  15
TORSDOF 5
ENDMDL
MODEL 8
REMARK VINA RESULT:      -6.0      3.205      6.072
REMARK  Name = 
REMARK  7 active torsions:
REMARK  status: ('A' for Active; 'I' for Inactive)
REMARK    1  A    between atoms: C_1  and  C_2
REMARK    2  A    between atoms: C_4  and  C_5
REMARK    3  A    between atoms: N_6  and  O_7
REMARK    4  A    between atoms: O_7  and  C_8
REMARK    5  A    between atoms: C_8  and  C_9
REMARK    6  A    between atoms: C_15  and  C_16
REMARK    7  A    between atoms: N_17  and  C_18
REMARK                            x       y       z     vdW  Elec       q    Type
REMARK                         _______ _______ _______ _____ _____    ______ ____
ROOT
ATOM      1  C   UNL     1       2.963   8.926  17.609  0.00  0.00    +0.000 C 
ATOM      2  C   UNL     1       2.695   7.587  18.212  0.00  0.00    +0.000 A 
ATOM      3  C   UNL     1       3.126   6.391  17.687  0.00  0.00    +0.000 A 
ATOM      4  C   UNL     1       2.923   5.370  18.638  0.00  0.00    +0.000 A 
ATOM      5  C   UNL     1       2.219   5.949  19.690  0.00  0.00    +0.000 A 
ATOM      6  C   UNL     1       1.636   5.250  20.877  0.00  0.00    +0.000 C 
ATOM      7  N   UNL     1       2.072   7.330  19.434  0.00  0.00    +0.000 N 
ENDROOT
BRANCH   7   8
ATOM      8  C   UNL     1       1.389   8.303  20.251  0.00  0.00    +0.000 A 
ATOM      9  C   UNL     1       1.622   8.401  21.629  0.00  0.00    +0.000 A 
ATOM     10  C   UNL     1       0.913   9.321  22.414  0.00  0.00    +0.000 A 
ATOM     11  C   UNL     1      -0.010  10.177  21.822  0.00  0.00    +0.000 A 
ATOM     12 CL   UNL     1      -0.879  11.306  22.784  0.00  0.00    +0.000 Cl
ATOM     13  C   UNL     1      -0.234  10.116  20.452  0.00  0.00    +0.000 A 
ATOM     14  C   UNL     1       0.450   9.174  19.675  0.00  0.00    +0.000 A 
ENDBRANCH   7   8
BRANCH   4  15
ATOM     15  C   UNL     1       3.314   3.962  18.534  0.00  0.00    +0.000 C 
ATOM     16  N   UNL     1       3.980   3.405  17.561  0.00  0.00    +0.000 NA
BRANCH  16  17
ATOM     17  O   UNL     1       4.388   4.335  16.599  0.00  0.00    +0.000 OA
BRANCH  17  18
ATOM     18  C   UNL     1       5.773   4.179  16.295  0.00  0.00    +0.000 C 
BRANCH  18  19
ATOM     19  C   UNL     1       6.572   5.190  17.089  0.00  0.00    +0.000 A 
ATOM     20  C   UNL     1       6.673   6.529  16.676  0.00  0.00    +0.000 A 
ATOM     21  C   UNL     1       7.414   7.454  17.414  0.00  0.00    +0.000 A 
ATOM     22  C   UNL     1       8.051   7.056  18.587  0.00  0.00    +0.000 A 
ATOM     23  C   UNL     1       7.938   5.737  19.026  0.00  0.00    +0.000 A 
ATOM     24  C   UNL     1       7.200   4.811  18.285  0.00  0.00    +0.000 A 
ENDBRANCH  18  19
ENDBRANCH  17  18
ENDBRANCH  16  17
ENDBRANCH   4  15
TORSDOF 5
ENDMDL
MODEL 9
REMARK VINA RESULT:      -6.0      6.017      8.871
REMARK  Name = 
REMARK  7 active torsions:
REMARK  status: ('A' for Active; 'I' for Inactive)
REMARK    1  A    between atoms: C_1  and  C_2
REMARK    2  A    between atoms: C_4  and  C_5
REMARK    3  A    between atoms: N_6  and  O_7
REMARK    4  A    between atoms: O_7  and  C_8
REMARK    5  A    between atoms: C_8  and  C_9
REMARK    6  A    between atoms: C_15  and  C_16
REMARK    7  A    between atoms: N_17  and  C_18
REMARK                            x       y       z     vdW  Elec       q    Type
REMARK                         _______ _______ _______ _____ _____    ______ ____
ROOT
ATOM      1  C   UNL     1      -0.496   9.061  22.355  0.00  0.00    +0.000 C 
ATOM      2  C   UNL     1       0.066   9.800  21.187  0.00  0.00    +0.000 A 
ATOM      3  C   UNL     1       0.981   9.283  20.299  0.00  0.00    +0.000 A 
ATOM      4  C   UNL     1       1.089  10.147  19.190  0.00  0.00    +0.000 A 
ATOM      5  C   UNL     1       0.334  11.275  19.499  0.00  0.00    +0.000 A 
ATOM      6  C   UNL     1       0.243  12.544  18.711  0.00  0.00    +0.000 C 
ATOM      7  N   UNL     1      -0.307  11.069  20.740  0.00  0.00    +0.000 N 
ENDROOT
BRANCH   7   8
ATOM      8  C   UNL     1      -1.166  11.988  21.445  0.00  0.00    +0.000 A 
ATOM      9  C   UNL     1      -0.750  12.632  22.617  0.00  0.00    +0.000 A 
ATOM     10  C   UNL     1      -1.616  13.485  23.315  0.00  0.00    +0.000 A 
ATOM     11  C   UNL     1      -2.896  13.730  22.828  0.00  0.00    +0.000 A 
ATOM     12 CL   UNL     1      -3.959  14.776  23.683  0.00  0.00    +0.000 Cl
ATOM     13  C   UNL     1      -3.318  13.124  21.651  0.00  0.00    +0.000 A 
ATOM     14  C   UNL     1      -2.463  12.246  20.974  0.00  0.00    +0.000 A 
ENDBRANCH   7   8
BRANCH   4  15
ATOM     15  C   UNL     1       1.879   9.946  17.974  0.00  0.00    +0.000 C 
ATOM     16  N   UNL     1       2.345   8.814  17.523  0.00  0.00    +0.000 NA
BRANCH  16  17
ATOM     17  O   UNL     1       1.937   7.726  18.300  0.00  0.00    +0.000 OA
BRANCH  17  18
ATOM     18  C   UNL     1       2.818   6.617  18.127  0.00  0.00    +0.000 C 
BRANCH  18  19
ATOM     19  C   UNL     1       2.176   5.378  18.714  0.00  0.00    +0.000 A 
ATOM     20  C   UNL     1       1.880   4.260  17.914  0.00  0.00    +0.000 A 
ATOM     21  C   UNL     1       1.286   3.123  18.464  0.00  0.00    +0.000 A 
ATOM     22  C   UNL     1       0.994   3.080  19.825  0.00  0.00    +0.000 A 
ATOM     23  C   UNL     1       1.305   4.170  20.637  0.00  0.00    +0.000 A 
ATOM     24  C   UNL     1       1.897   5.310  20.086  0.00  0.00    +0.000 A 
ENDBRANCH  18  19
ENDBRANCH  17  18
ENDBRANCH  16  17
ENDBRANCH   4  15
TORSDOF 5
ENDMDL
