MODEL 1
REMARK VINA RESULT:      -8.2      0.000      0.000
REMARK  Name = 
REMARK  10 active torsions:
REMARK  status: ('A' for Active; 'I' for Inactive)
REMARK    1  A    between atoms: C_1  and  C_2
REMARK    2  A    between atoms: C_3  and  N_4
REMARK    3  A    between atoms: N_4  and  S_5
REMARK    4  A    between atoms: S_5  and  C_6
REMARK    5  A    between atoms: C_12  and  N_13
REMARK    6  A    between atoms: N_13  and  C_14
REMARK    7  A    between atoms: N_13  and  C_21
REMARK    8  A    between atoms: C_14  and  C_15
REMARK    9  A    between atoms: C_21  and  C_22
REMARK   10  A    between atoms: C_26  and  C_27
REMARK                            x       y       z     vdW  Elec       q    Type
REMARK                         _______ _______ _______ _____ _____    ______ ____
ROOT
ATOM      1  N   UNL     1       3.005   6.480  18.534  0.00  0.00    +0.000 N 
ENDROOT
BRANCH   1   8
ATOM      2  C   UNL     1       1.419   7.091  21.087  0.00  0.00    +0.000 C 
ATOM      3  C   UNL     1       1.702   8.074  19.973  0.00  0.00    +0.000 A 
ATOM      4  C   UNL     1       1.213   9.404  20.146  0.00  0.00    +0.000 A 
ATOM      5  C   UNL     1       1.175  10.288  19.074  0.00  0.00    +0.000 A 
ATOM      6  C   UNL     1       1.635   9.879  17.834  0.00  0.00    +0.000 A 
ATOM      7  C   UNL     1       2.202   8.610  17.680  0.00  0.00    +0.000 A 
ATOM      8  C   UNL     1       2.309   7.681  18.738  0.00  0.00    +0.000 A 
BRANCH   4   9
ATOM      9  N   UNL     1       0.766   9.905  21.421  0.00  0.00    +0.000 N 
ATOM     10  H   UNL     1       0.403   9.192  22.055  0.00  0.00    +0.000 HD
BRANCH   9  11
ATOM     11  S   UNL     1      -0.226  11.268  21.487  0.00  0.00    +0.000 S 
ATOM     12  C   UNL     1      -1.136  11.055  23.011  0.00  0.00    +0.000 C 
ATOM     13  O   UNL     1       0.585  12.461  21.584  0.00  0.00    +0.000 OA
ATOM     14  O   UNL     1      -1.172  11.091  20.404  0.00  0.00    +0.000 OA
ENDBRANCH   9  11
ENDBRANCH   4   9
ENDBRANCH   1   8
BRANCH   1  15
ATOM     15  C   UNL     1       4.478   6.423  18.632  0.00  0.00    +0.000 C 
BRANCH  15  16
ATOM     16  C   UNL     1       5.234   5.771  17.482  0.00  0.00    +0.000 A 
ATOM     17  C   UNL     1       4.994   6.077  16.137  0.00  0.00    +0.000 A 
ATOM     18  C   UNL     1       5.829   5.572  15.130  0.00  0.00    +0.000 A 
ATOM     19  C   UNL     1       6.924   4.772  15.453  0.00  0.00    +0.000 A 
ATOM     20  C   UNL     1       7.179   4.459  16.783  0.00  0.00    +0.000 A 
ATOM     21  C   UNL     1       6.343   4.954  17.789  0.00  0.00    +0.000 A 
ENDBRANCH  15  16
ENDBRANCH   1  15
BRANCH   1  22
ATOM     22  C   UNL     1       2.331   5.241  18.093  0.00  0.00    +0.000 C 
BRANCH  22  23
ATOM     23  C   UNL     1       2.195   4.151  19.147  0.00  0.00    +0.000 A 
ATOM     24  C   UNL     1       1.026   3.951  19.894  0.00  0.00    +0.000 A 
ATOM     25  C   UNL     1       1.007   3.060  20.973  0.00  0.00    +0.000 A 
ATOM     26  C   UNL     1       2.159   2.359  21.331  0.00  0.00    +0.000 A 
ATOM     27  C   UNL     1       3.332   2.516  20.588  0.00  0.00    +0.000 A 
ATOM     28  C   UNL     1       3.341   3.407  19.499  0.00  0.00    +0.000 A 
BRANCH  27  29
ATOM     29  C   UNL     1       4.523   1.806  20.960  0.00  0.00    +0.000 C 
ATOM     30  N   UNL     1       5.489   1.241  21.274  0.00  0.00    +0.000 NA
ENDBRANCH  27  29
ENDBRANCH  22  23
ENDBRANCH   1  22
TORSDOF 8
ENDMDL
MODEL 2
REMARK VINA RESULT:      -8.1      1.533      2.418
REMARK  Name = 
REMARK  10 active torsions:
REMARK  status: ('A' for Active; 'I' for Inactive)
REMARK    1  A    between atoms: C_1  and  C_2
REMARK    2  A    between atoms: C_3  and  N_4
REMARK    3  A    between atoms: N_4  and  S_5
REMARK    4  A    between atoms: S_5  and  C_6
REMARK    5  A    between atoms: C_12  and  N_13
REMARK    6  A    between atoms: N_13  and  C_14
REMARK    7  A    between atoms: N_13  and  C_21
REMARK    8  A    between atoms: C_14  and  C_15
REMARK    9  A    between atoms: C_21  and  C_22
REMARK   10  A    between atoms: C_26  and  C_27
REMARK                            x       y       z     vdW  Elec       q    Type
REMARK                         _______ _______ _______ _____ _____    ______ ____
ROOT
ATOM      1  N   UNL     1       2.689   6.182  18.135  0.00  0.00    +0.000 N 
ENDROOT
BRANCH   1   8
ATOM      2  C   UNL     1       2.379   9.133  17.356  0.00  0.00    +0.000 C 
ATOM      3  C   UNL     1       1.923   8.517  18.659  0.00  0.00    +0.000 A 
ATOM      4  C   UNL     1       1.267   9.381  19.587  0.00  0.00    +0.000 A 
ATOM      5  C   UNL     1       1.069   8.984  20.905  0.00  0.00    +0.000 A 
ATOM      6  C   UNL     1       1.493   7.732  21.312  0.00  0.00    +0.000 A 
ATOM      7  C   UNL     1       2.052   6.844  20.386  0.00  0.00    +0.000 A 
ATOM      8  C   UNL     1       2.242   7.171  19.025  0.00  0.00    +0.000 A 
BRANCH   4   9
ATOM      9  N   UNL     1       0.759  10.676  19.212  0.00  0.00    +0.000 N 
ATOM     10  H   UNL     1       1.243  11.465  19.643  0.00  0.00    +0.000 HD
BRANCH   9  11
ATOM     11  S   UNL     1      -0.904  10.964  19.231  0.00  0.00    +0.000 S 
ATOM     12  C   UNL     1      -1.091  12.428  18.223  0.00  0.00    +0.000 C 
ATOM     13  O   UNL     1      -1.599   9.865  18.601  0.00  0.00    +0.000 OA
ATOM     14  O   UNL     1      -1.196  11.353  20.596  0.00  0.00    +0.000 OA
ENDBRANCH   9  11
ENDBRANCH   4   9
ENDBRANCH   1   8
BRANCH   1  15
ATOM     15  C   UNL     1       3.865   6.407  17.270  0.00  0.00    +0.000 C 
BRANCH  15  16
ATOM     16  C   UNL     1       5.237   6.379  17.929  0.00  0.00    +0.000 A 
ATOM     17  C   UNL     1       5.561   5.525  18.989  0.00  0.00    +0.000 A 
ATOM     18  C   UNL     1       6.882   5.423  19.447  0.00  0.00    +0.000 A 
ATOM     19  C   UNL     1       7.900   6.159  18.842  0.00  0.00    +0.000 A 
ATOM     20  C   UNL     1       7.598   7.013  17.787  0.00  0.00    +0.000 A 
ATOM     21  C   UNL     1       6.279   7.122  17.333  0.00  0.00    +0.000 A 
ENDBRANCH  15  16
ENDBRANCH   1  15
BRANCH   1  22
ATOM     22  C   UNL     1       1.951   4.921  17.921  0.00  0.00    +0.000 C 
BRANCH  22  23
ATOM     23  C   UNL     1       1.946   3.950  19.094  0.00  0.00    +0.000 A 
ATOM     24  C   UNL     1       0.861   3.815  19.971  0.00  0.00    +0.000 A 
ATOM     25  C   UNL     1       0.969   3.047  21.135  0.00  0.00    +0.000 A 
ATOM     26  C   UNL     1       2.167   2.406  21.450  0.00  0.00    +0.000 A 
ATOM     27  C   UNL     1       3.258   2.498  20.582  0.00  0.00    +0.000 A 
ATOM     28  C   UNL     1       3.139   3.265  19.408  0.00  0.00    +0.000 A 
BRANCH  27  29
ATOM     29  C   UNL     1       4.498   1.851  20.907  0.00  0.00    +0.000 C 
ATOM     30  N   UNL     1       5.497   1.327  21.185  0.00  0.00    +0.000 NA
ENDBRANCH  27  29
ENDBRANCH  22  23
ENDBRANCH   1  22
TORSDOF 8
ENDMDL
MODEL 3
REMARK VINA RESULT:      -8.1      1.511      2.301
REMARK  Name = 
REMARK  10 active torsions:
REMARK  status: ('A' for Active; 'I' for Inactive)
REMARK    1  A    between atoms: C_1  and  C_2
REMARK    2  A    between atoms: C_3  and  N_4
REMARK    3  A    between atoms: N_4  and  S_5
REMARK    4  A    between atoms: S_5  and  C_6
REMARK    5  A    between atoms: C_12  and  N_13
REMARK    6  A    between atoms: N_13  and  C_14
REMARK    7  A    between atoms: N_13  and  C_21
REMARK    8  A    between atoms: C_14  and  C_15
REMARK    9  A    between atoms: C_21  and  C_22
REMARK   10  A    between atoms: C_26  and  C_27
REMARK                            x       y       z     vdW  Elec       q    Type
REMARK                         _______ _______ _______ _____ _____    ______ ____
ROOT
ATOM      1  N   UNL     1       2.531   7.147  18.250  0.00  0.00    +0.000 N 
ENDROOT
BRANCH   1   8
ATOM      2  C   UNL     1       1.669  10.066  17.872  0.00  0.00    +0.000 C 
ATOM      3  C   UNL     1       1.370   9.213  19.083  0.00  0.00    +0.000 A 
ATOM      4  C   UNL     1       0.594   9.814  20.121  0.00  0.00    +0.000 A 
ATOM      5  C   UNL     1       0.509   9.219  21.375  0.00  0.00    +0.000 A 
ATOM      6  C   UNL     1       1.165   8.024  21.610  0.00  0.00    +0.000 A 
ATOM      7  C   UNL     1       1.849   7.382  20.572  0.00  0.00    +0.000 A 
ATOM      8  C   UNL     1       1.937   7.912  19.266  0.00  0.00    +0.000 A 
BRANCH   4   9
ATOM      9  N   UNL     1      -0.151  11.031  19.924  0.00  0.00    +0.000 N 
ATOM     10  H   UNL     1      -0.437  11.204  18.959  0.00  0.00    +0.000 HD
BRANCH   9  11
ATOM     11  S   UNL     1       0.397  12.472  20.611  0.00  0.00    +0.000 S 
ATOM     12  C   UNL     1      -0.643  12.676  22.050  0.00  0.00    +0.000 C 
ATOM     13  O   UNL     1       1.769  12.321  21.038  0.00  0.00    +0.000 OA
ATOM     14  O   UNL     1       0.013  13.502  19.666  0.00  0.00    +0.000 OA
ENDBRANCH   9  11
ENDBRANCH   4   9
ENDBRANCH   1   8
BRANCH   1  15
ATOM     15  C   UNL     1       3.864   7.489  17.713  0.00  0.00    +0.000 C 
BRANCH  15  16
ATOM     16  C   UNL     1       4.786   6.339  17.337  0.00  0.00    +0.000 A 
ATOM     17  C   UNL     1       5.126   6.029  16.016  0.00  0.00    +0.000 A 
ATOM     18  C   UNL     1       6.107   5.067  15.736  0.00  0.00    +0.000 A 
ATOM     19  C   UNL     1       6.774   4.415  16.772  0.00  0.00    +0.000 A 
ATOM     20  C   UNL     1       6.451   4.710  18.092  0.00  0.00    +0.000 A 
ATOM     21  C   UNL     1       5.467   5.663  18.373  0.00  0.00    +0.000 A 
ENDBRANCH  15  16
ENDBRANCH   1  15
BRANCH   1  22
ATOM     22  C   UNL     1       1.820   6.040  17.578  0.00  0.00    +0.000 C 
BRANCH  22  23
ATOM     23  C   UNL     1       2.146   4.641  18.083  0.00  0.00    +0.000 A 
ATOM     24  C   UNL     1       2.566   3.603  17.240  0.00  0.00    +0.000 A 
ATOM     25  C   UNL     1       2.680   2.292  17.717  0.00  0.00    +0.000 A 
ATOM     26  C   UNL     1       2.367   1.993  19.043  0.00  0.00    +0.000 A 
ATOM     27  C   UNL     1       1.973   3.011  19.915  0.00  0.00    +0.000 A 
ATOM     28  C   UNL     1       1.870   4.328  19.431  0.00  0.00    +0.000 A 
BRANCH  27  29
ATOM     29  C   UNL     1       1.638   2.707  21.278  0.00  0.00    +0.000 C 
ATOM     30  N   UNL     1       1.376   2.449  22.380  0.00  0.00    +0.000 NA
ENDBRANCH  27  29
ENDBRANCH  22  23
ENDBRANCH   1  22
TORSDOF 8
ENDMDL
MODEL 4
REMARK VINA RESULT:      -8.1      1.587      2.566
REMARK  Name = 
REMARK  10 active torsions:
REMARK  status: ('A' for Active; 'I' for Inactive)
REMARK    1  A    between atoms: C_1  and  C_2
REMARK    2  A    between atoms: C_3  and  N_4
REMARK    3  A    between atoms: N_4  and  S_5
REMARK    4  A    between atoms: S_5  and  C_6
REMARK    5  A    between atoms: C_12  and  N_13
REMARK    6  A    between atoms: N_13  and  C_14
REMARK    7  A    between atoms: N_13  and  C_21
REMARK    8  A    between atoms: C_14  and  C_15
REMARK    9  A    between atoms: C_21  and  C_22
REMARK   10  A    between atoms: C_26  and  C_27
REMARK                            x       y       z     vdW  Elec       q    Type
REMARK                         _______ _______ _______ _____ _____    ______ ____
ROOT
ATOM      1  N   UNL     1       2.418   7.172  18.171  0.00  0.00    +0.000 N 
ENDROOT
BRANCH   1   8
ATOM      2  C   UNL     1       1.599  10.114  17.878  0.00  0.00    +0.000 C 
ATOM      3  C   UNL     1       1.383   9.261  19.107  0.00  0.00    +0.000 A 
ATOM      4  C   UNL     1       0.713   9.874  20.210  0.00  0.00    +0.000 A 
ATOM      5  C   UNL     1       0.720   9.275  21.464  0.00  0.00    +0.000 A 
ATOM      6  C   UNL     1       1.365   8.062  21.638  0.00  0.00    +0.000 A 
ATOM      7  C   UNL     1       1.942   7.410  20.543  0.00  0.00    +0.000 A 
ATOM      8  C   UNL     1       1.932   7.946  19.236  0.00  0.00    +0.000 A 
BRANCH   4   9
ATOM      9  N   UNL     1      -0.016  11.110  20.081  0.00  0.00    +0.000 N 
ATOM     10  H   UNL     1      -0.169  11.416  19.119  0.00  0.00    +0.000 HD
BRANCH   9  11
ATOM     11  S   UNL     1       0.410  12.439  21.029  0.00  0.00    +0.000 S 
ATOM     12  C   UNL     1      -0.227  13.835  20.111  0.00  0.00    +0.000 C 
ATOM     13  O   UNL     1      -0.263  12.367  22.306  0.00  0.00    +0.000 OA
ATOM     14  O   UNL     1       1.856  12.506  20.945  0.00  0.00    +0.000 OA
ENDBRANCH   9  11
ENDBRANCH   4   9
ENDBRANCH   1   8
BRANCH   1  15
ATOM     15  C   UNL     1       3.673   7.528  17.477  0.00  0.00    +0.000 C 
BRANCH  15  16
ATOM     16  C   UNL     1       4.758   6.463  17.399  0.00  0.00    +0.000 A 
ATOM     17  C   UNL     1       5.239   5.776  18.519  0.00  0.00    +0.000 A 
ATOM     18  C   UNL     1       6.117   4.693  18.371  0.00  0.00    +0.000 A 
ATOM     19  C   UNL     1       6.512   4.270  17.102  0.00  0.00    +0.000 A 
ATOM     20  C   UNL     1       6.044   4.940  15.977  0.00  0.00    +0.000 A 
ATOM     21  C   UNL     1       5.174   6.026  16.123  0.00  0.00    +0.000 A 
ENDBRANCH  15  16
ENDBRANCH   1  15
BRANCH   1  22
ATOM     22  C   UNL     1       1.656   6.041  17.605  0.00  0.00    +0.000 C 
BRANCH  22  23
ATOM     23  C   UNL     1       2.064   4.658  18.091  0.00  0.00    +0.000 A 
ATOM     24  C   UNL     1       2.545   3.657  17.236  0.00  0.00    +0.000 A 
ATOM     25  C   UNL     1       2.736   2.349  17.696  0.00  0.00    +0.000 A 
ATOM     26  C   UNL     1       2.441   2.015  19.018  0.00  0.00    +0.000 A 
ATOM     27  C   UNL     1       1.988   2.997  19.902  0.00  0.00    +0.000 A 
ATOM     28  C   UNL     1       1.806   4.312  19.435  0.00  0.00    +0.000 A 
BRANCH  27  29
ATOM     29  C   UNL     1       1.671   2.656  21.261  0.00  0.00    +0.000 C 
ATOM     30  N   UNL     1       1.417   2.394  22.364  0.00  0.00    +0.000 NA
ENDBRANCH  27  29
ENDBRANCH  22  23
ENDBRANCH   1  22
TORSDOF 8
ENDMDL
MODEL 5
REMARK VINA RESULT:      -8.1      1.138      1.897
REMARK  Name = 
REMARK  10 active torsions:
REMARK  status: ('A' for Active; 'I' for Inactive)
REMARK    1  A    between atoms: C_1  and  C_2
REMARK    2  A    between atoms: C_3  and  N_4
REMARK    3  A    between atoms: N_4  and  S_5
REMARK    4  A    between atoms: S_5  and  C_6
REMARK    5  A    between atoms: C_12  and  N_13
REMARK    6  A    between atoms: N_13  and  C_14
REMARK    7  A    between atoms: N_13  and  C_21
REMARK    8  A    between atoms: C_14  and  C_15
REMARK    9  A    between atoms: C_21  and  C_22
REMARK   10  A    between atoms: C_26  and  C_27
REMARK                            x       y       z     vdW  Elec       q    Type
REMARK                         _______ _______ _______ _____ _____    ______ ____
ROOT
ATOM      1  N   UNL     1       2.787   6.713  18.247  0.00  0.00    +0.000 N 
ENDROOT
BRANCH   1   8
ATOM      2  C   UNL     1       1.939   9.601  17.656  0.00  0.00    +0.000 C 
ATOM      3  C   UNL     1       1.608   8.829  18.913  0.00  0.00    +0.000 A 
ATOM      4  C   UNL     1       0.807   9.496  19.889  0.00  0.00    +0.000 A 
ATOM      5  C   UNL     1       0.688   8.985  21.176  0.00  0.00    +0.000 A 
ATOM      6  C   UNL     1       1.336   7.807  21.506  0.00  0.00    +0.000 A 
ATOM      7  C   UNL     1       2.046   7.099  20.530  0.00  0.00    +0.000 A 
ATOM      8  C   UNL     1       2.169   7.543  19.194  0.00  0.00    +0.000 A 
BRANCH   4   9
ATOM      9  N   UNL     1       0.068  10.698  19.593  0.00  0.00    +0.000 N 
ATOM     10  H   UNL     1      -0.178  10.816  18.609  0.00  0.00    +0.000 HD
BRANCH   9  11
ATOM     11  S   UNL     1       0.585  12.176  20.221  0.00  0.00    +0.000 S 
ATOM     12  C   UNL     1      -0.510  13.365  19.456  0.00  0.00    +0.000 C 
ATOM     13  O   UNL     1       0.382  12.200  21.651  0.00  0.00    +0.000 OA
ATOM     14  O   UNL     1       1.899  12.385  19.645  0.00  0.00    +0.000 OA
ENDBRANCH   9  11
ENDBRANCH   4   9
ENDBRANCH   1   8
BRANCH   1  15
ATOM     15  C   UNL     1       4.017   7.136  17.545  0.00  0.00    +0.000 C 
BRANCH  15  16
ATOM     16  C   UNL     1       5.091   6.082  17.315  0.00  0.00    +0.000 A 
ATOM     17  C   UNL     1       5.245   5.398  16.104  0.00  0.00    +0.000 A 
ATOM     18  C   UNL     1       6.350   4.561  15.892  0.00  0.00    +0.000 A 
ATOM     19  C   UNL     1       7.324   4.410  16.877  0.00  0.00    +0.000 A 
ATOM     20  C   UNL     1       7.188   5.083  18.087  0.00  0.00    +0.000 A 
ATOM     21  C   UNL     1       6.083   5.912  18.304  0.00  0.00    +0.000 A 
ENDBRANCH  15  16
ENDBRANCH   1  15
BRANCH   1  22
ATOM     22  C   UNL     1       2.189   5.436  17.806  0.00  0.00    +0.000 C 
BRANCH  22  23
ATOM     23  C   UNL     1       2.061   4.362  18.877  0.00  0.00    +0.000 A 
ATOM     24  C   UNL     1       0.897   4.169  19.632  0.00  0.00    +0.000 A 
ATOM     25  C   UNL     1       0.885   3.294  20.725  0.00  0.00    +0.000 A 
ATOM     26  C   UNL     1       2.040   2.602  21.088  0.00  0.00    +0.000 A 
ATOM     27  C   UNL     1       3.209   2.751  20.337  0.00  0.00    +0.000 A 
ATOM     28  C   UNL     1       3.211   3.626  19.235  0.00  0.00    +0.000 A 
BRANCH  27  29
ATOM     29  C   UNL     1       4.405   2.051  20.715  0.00  0.00    +0.000 C 
ATOM     30  N   UNL     1       5.363   1.472  21.024  0.00  0.00    +0.000 NA
ENDBRANCH  27  29
ENDBRANCH  22  23
ENDBRANCH   1  22
TORSDOF 8
ENDMDL
MODEL 6
REMARK VINA RESULT:      -8.1      1.620      2.573
REMARK  Name = 
REMARK  10 active torsions:
REMARK  status: ('A' for Active; 'I' for Inactive)
REMARK    1  A    between atoms: C_1  and  C_2
REMARK    2  A    between atoms: C_3  and  N_4
REMARK    3  A    between atoms: N_4  and  S_5
REMARK    4  A    between atoms: S_5  and  C_6
REMARK    5  A    between atoms: C_12  and  N_13
REMARK    6  A    between atoms: N_13  and  C_14
REMARK    7  A    between atoms: N_13  and  C_21
REMARK    8  A    between atoms: C_14  and  C_15
REMARK    9  A    between atoms: C_21  and  C_22
REMARK   10  A    between atoms: C_26  and  C_27
REMARK                            x       y       z     vdW  Elec       q    Type
REMARK                         _______ _______ _______ _____ _____    ______ ____
ROOT
ATOM      1  N   UNL     1       2.518   7.128  18.189  0.00  0.00    +0.000 N 
ENDROOT
BRANCH   1   8
ATOM      2  C   UNL     1       1.981  10.135  17.901  0.00  0.00    +0.000 C 
ATOM      3  C   UNL     1       1.567   9.278  19.076  0.00  0.00    +0.000 A 
ATOM      4  C   UNL     1       0.839   9.923  20.122  0.00  0.00    +0.000 A 
ATOM      5  C   UNL     1       0.665   9.299  21.352  0.00  0.00    +0.000 A 
ATOM      6  C   UNL     1       1.185   8.033  21.555  0.00  0.00    +0.000 A 
ATOM      7  C   UNL     1       1.818   7.357  20.506  0.00  0.00    +0.000 A 
ATOM      8  C   UNL     1       1.989   7.918  19.221  0.00  0.00    +0.000 A 
BRANCH   4   9
ATOM      9  N   UNL     1       0.232  11.219  19.956  0.00  0.00    +0.000 N 
ATOM     10  H   UNL     1       0.305  11.831  20.770  0.00  0.00    +0.000 HD
BRANCH   9  11
ATOM     11  S   UNL     1      -1.317  11.343  19.300  0.00  0.00    +0.000 S 
ATOM     12  C   UNL     1      -1.135  12.573  18.015  0.00  0.00    +0.000 C 
ATOM     13  O   UNL     1      -1.698  10.086  18.699  0.00  0.00    +0.000 OA
ATOM     14  O   UNL     1      -2.116  11.947  20.348  0.00  0.00    +0.000 OA
ENDBRANCH   9  11
ENDBRANCH   4   9
ENDBRANCH   1   8
BRANCH   1  15
ATOM     15  C   UNL     1       3.821   7.449  17.571  0.00  0.00    +0.000 C 
BRANCH  15  16
ATOM     16  C   UNL     1       4.768   6.291  17.290  0.00  0.00    +0.000 A 
ATOM     17  C   UNL     1       5.146   5.906  15.998  0.00  0.00    +0.000 A 
ATOM     18  C   UNL     1       6.146   4.943  15.803  0.00  0.00    +0.000 A 
ATOM     19  C   UNL     1       6.795   4.365  16.893  0.00  0.00    +0.000 A 
ATOM     20  C   UNL     1       6.435   4.735  18.184  0.00  0.00    +0.000 A 
ATOM     21  C   UNL     1       5.431   5.689  18.381  0.00  0.00    +0.000 A 
ENDBRANCH  15  16
ENDBRANCH   1  15
BRANCH   1  22
ATOM     22  C   UNL     1       1.761   6.016  17.580  0.00  0.00    +0.000 C 
BRANCH  22  23
ATOM     23  C   UNL     1       2.113   4.623  18.084  0.00  0.00    +0.000 A 
ATOM     24  C   UNL     1       2.552   3.593  17.241  0.00  0.00    +0.000 A 
ATOM     25  C   UNL     1       2.689   2.284  17.717  0.00  0.00    +0.000 A 
ATOM     26  C   UNL     1       2.380   1.979  19.042  0.00  0.00    +0.000 A 
ATOM     27  C   UNL     1       1.967   2.989  19.914  0.00  0.00    +0.000 A 
ATOM     28  C   UNL     1       1.840   4.304  19.431  0.00  0.00    +0.000 A 
BRANCH  27  29
ATOM     29  C   UNL     1       1.635   2.677  21.276  0.00  0.00    +0.000 C 
ATOM     30  N   UNL     1       1.370   2.439  22.382  0.00  0.00    +0.000 NA
ENDBRANCH  27  29
ENDBRANCH  22  23
ENDBRANCH   1  22
TORSDOF 8
ENDMDL
MODEL 7
REMARK VINA RESULT:      -8.0      1.666      4.634
REMARK  Name = 
REMARK  10 active torsions:
REMARK  status: ('A' for Active; 'I' for Inactive)
REMARK    1  A    between atoms: C_1  and  C_2
REMARK    2  A    between atoms: C_3  and  N_4
REMARK    3  A    between atoms: N_4  and  S_5
REMARK    4  A    between atoms: S_5  and  C_6
REMARK    5  A    between atoms: C_12  and  N_13
REMARK    6  A    between atoms: N_13  and  C_14
REMARK    7  A    between atoms: N_13  and  C_21
REMARK    8  A    between atoms: C_14  and  C_15
REMARK    9  A    between atoms: C_21  and  C_22
REMARK   10  A    between atoms: C_26  and  C_27
REMARK                            x       y       z     vdW  Elec       q    Type
REMARK                         _______ _______ _______ _____ _____    ______ ____
ROOT
ATOM      1  N   UNL     1       2.729   6.875  18.292  0.00  0.00    +0.000 N 
ENDROOT
BRANCH   1   8
ATOM      2  C   UNL     1       1.824   9.750  17.725  0.00  0.00    +0.000 C 
ATOM      3  C   UNL     1       1.507   8.960  18.974  0.00  0.00    +0.000 A 
ATOM      4  C   UNL     1       0.691   9.604  19.954  0.00  0.00    +0.000 A 
ATOM      5  C   UNL     1       0.581   9.079  21.237  0.00  0.00    +0.000 A 
ATOM      6  C   UNL     1       1.252   7.912  21.558  0.00  0.00    +0.000 A 
ATOM      7  C   UNL     1       1.977   7.227  20.577  0.00  0.00    +0.000 A 
ATOM      8  C   UNL     1       2.093   7.684  19.246  0.00  0.00    +0.000 A 
BRANCH   4   9
ATOM      9  N   UNL     1      -0.071  10.792  19.668  0.00  0.00    +0.000 N 
ATOM     10  H   UNL     1      -0.243  10.960  18.675  0.00  0.00    +0.000 HD
BRANCH   9  11
ATOM     11  S   UNL     1       0.332  12.249  20.418  0.00  0.00    +0.000 S 
ATOM     12  C   UNL     1      -0.849  12.376  21.755  0.00  0.00    +0.000 C 
ATOM     13  O   UNL     1       1.663  12.164  20.972  0.00  0.00    +0.000 OA
ATOM     14  O   UNL     1      -0.016  13.272  19.452  0.00  0.00    +0.000 OA
ENDBRANCH   9  11
ENDBRANCH   4   9
ENDBRANCH   1   8
BRANCH   1  15
ATOM     15  C   UNL     1       2.279   5.490  18.042  0.00  0.00    +0.000 C 
BRANCH  15  16
ATOM     16  C   UNL     1       2.249   4.536  19.227  0.00  0.00    +0.000 A 
ATOM     17  C   UNL     1       1.068   4.150  19.871  0.00  0.00    +0.000 A 
ATOM     18  C   UNL     1       1.081   3.144  20.847  0.00  0.00    +0.000 A 
ATOM     19  C   UNL     1       2.270   2.498  21.182  0.00  0.00    +0.000 A 
ATOM     20  C   UNL     1       3.454   2.867  20.553  0.00  0.00    +0.000 A 
ATOM     21  C   UNL     1       3.444   3.875  19.584  0.00  0.00    +0.000 A 
ENDBRANCH  15  16
ENDBRANCH   1  15
BRANCH   1  22
ATOM     22  C   UNL     1       3.947   7.306  17.577  0.00  0.00    +0.000 C 
BRANCH  22  23
ATOM     23  C   UNL     1       4.997   6.227  17.348  0.00  0.00    +0.000 A 
ATOM     24  C   UNL     1       5.979   5.902  18.294  0.00  0.00    +0.000 A 
ATOM     25  C   UNL     1       7.029   5.035  17.971  0.00  0.00    +0.000 A 
ATOM     26  C   UNL     1       7.121   4.484  16.693  0.00  0.00    +0.000 A 
ATOM     27  C   UNL     1       6.142   4.766  15.737  0.00  0.00    +0.000 A 
ATOM     28  C   UNL     1       5.085   5.632  16.072  0.00  0.00    +0.000 A 
BRANCH  27  29
ATOM     29  C   UNL     1       6.240   4.211  14.416  0.00  0.00    +0.000 C 
ATOM     30  N   UNL     1       6.311   3.774  13.342  0.00  0.00    +0.000 NA
ENDBRANCH  27  29
ENDBRANCH  22  23
ENDBRANCH   1  22
TORSDOF 8
ENDMDL
MODEL 8
REMARK VINA RESULT:      -7.9      0.729      1.242
REMARK  Name = 
REMARK  10 active torsions:
REMARK  status: ('A' for Active; 'I' for Inactive)
REMARK    1  A    between atoms: C_1  and  C_2
REMARK    2  A    between atoms: C_3  and  N_4
REMARK    3  A    between atoms: N_4  and  S_5
REMARK    4  A    between atoms: S_5  and  C_6
REMARK    5  A    between atoms: C_12  and  N_13
REMARK    6  A    between atoms: N_13  and  C_14
REMARK    7  A    between atoms: N_13  and  C_21
REMARK    8  A    between atoms: C_14  and  C_15
REMARK    9  A    between atoms: C_21  and  C_22
REMARK   10  A    between atoms: C_26  and  C_27
REMARK                            x       y       z     vdW  Elec       q    Type
REMARK                         _______ _______ _______ _____ _____    ______ ____
ROOT
ATOM      1  N   UNL     1       3.025   6.388  18.674  0.00  0.00    +0.000 N 
ENDROOT
BRANCH   1   8
ATOM      2  C   UNL     1       1.414   7.227  21.146  0.00  0.00    +0.000 C 
ATOM      3  C   UNL     1       1.762   8.123  19.980  0.00  0.00    +0.000 A 
ATOM      4  C   UNL     1       1.327   9.481  20.057  0.00  0.00    +0.000 A 
ATOM      5  C   UNL     1       1.350  10.296  18.931  0.00  0.00    +0.000 A 
ATOM      6  C   UNL     1       1.817   9.790  17.731  0.00  0.00    +0.000 A 
ATOM      7  C   UNL     1       2.332   8.491  17.669  0.00  0.00    +0.000 A 
ATOM      8  C   UNL     1       2.377   7.627  18.787  0.00  0.00    +0.000 A 
BRANCH   4   9
ATOM      9  N   UNL     1       0.876  10.081  21.287  0.00  0.00    +0.000 N 
ATOM     10  H   UNL     1       0.879   9.453  22.093  0.00  0.00    +0.000 HD
BRANCH   9  11
ATOM     11  S   UNL     1      -0.535  11.005  21.303  0.00  0.00    +0.000 S 
ATOM     12  C   UNL     1       0.063  12.690  21.319  0.00  0.00    +0.000 C 
ATOM     13  O   UNL     1      -1.282  10.781  20.086  0.00  0.00    +0.000 OA
ATOM     14  O   UNL     1      -1.126  10.757  22.603  0.00  0.00    +0.000 OA
ENDBRANCH   9  11
ENDBRANCH   4   9
ENDBRANCH   1   8
BRANCH   1  15
ATOM     15  C   UNL     1       4.486   6.268  18.858  0.00  0.00    +0.000 C 
BRANCH  15  16
ATOM     16  C   UNL     1       5.312   5.837  17.655  0.00  0.00    +0.000 A 
ATOM     17  C   UNL     1       6.356   4.908  17.736  0.00  0.00    +0.000 A 
ATOM     18  C   UNL     1       6.973   4.423  16.574  0.00  0.00    +0.000 A 
ATOM     19  C   UNL     1       6.544   4.844  15.317  0.00  0.00    +0.000 A 
ATOM     20  C   UNL     1       5.508   5.765  15.215  0.00  0.00    +0.000 A 
ATOM     21  C   UNL     1       4.896   6.256  16.373  0.00  0.00    +0.000 A 
ENDBRANCH  15  16
ENDBRANCH   1  15
BRANCH   1  22
ATOM     22  C   UNL     1       2.317   5.163  18.250  0.00  0.00    +0.000 C 
BRANCH  22  23
ATOM     23  C   UNL     1       2.205   4.066  19.300  0.00  0.00    +0.000 A 
ATOM     24  C   UNL     1       1.049   3.852  20.062  0.00  0.00    +0.000 A 
ATOM     25  C   UNL     1       1.052   2.955  21.137  0.00  0.00    +0.000 A 
ATOM     26  C   UNL     1       2.214   2.262  21.474  0.00  0.00    +0.000 A 
ATOM     27  C   UNL     1       3.375   2.433  20.716  0.00  0.00    +0.000 A 
ATOM     28  C   UNL     1       3.362   3.329  19.632  0.00  0.00    +0.000 A 
BRANCH  27  29
ATOM     29  C   UNL     1       4.578   1.731  21.067  0.00  0.00    +0.000 C 
ATOM     30  N   UNL     1       5.544   1.158  21.364  0.00  0.00    +0.000 NA
ENDBRANCH  27  29
ENDBRANCH  22  23
ENDBRANCH   1  22
TORSDOF 8
ENDMDL
MODEL 9
REMARK VINA RESULT:      -7.8      1.707      4.742
REMARK  Name = 
REMARK  10 active torsions:
REMARK  status: ('A' for Active; 'I' for Inactive)
REMARK    1  A    between atoms: C_1  and  C_2
REMARK    2  A    between atoms: C_3  and  N_4
REMARK    3  A    between atoms: N_4  and  S_5
REMARK    4  A    between atoms: S_5  and  C_6
REMARK    5  A    between atoms: C_12  and  N_13
REMARK    6  A    between atoms: N_13  and  C_14
REMARK    7  A    between atoms: N_13  and  C_21
REMARK    8  A    between atoms: C_14  and  C_15
REMARK    9  A    between atoms: C_21  and  C_22
REMARK   10  A    between atoms: C_26  and  C_27
REMARK                            x       y       z     vdW  Elec       q    Type
REMARK                         _______ _______ _______ _____ _____    ______ ____
ROOT
ATOM      1  N   UNL     1       2.789   6.840  18.203  0.00  0.00    +0.000 N 
ENDROOT
BRANCH   1   8
ATOM      2  C   UNL     1       1.746   9.678  17.689  0.00  0.00    +0.000 C 
ATOM      3  C   UNL     1       1.492   8.863  18.936  0.00  0.00    +0.000 A 
ATOM      4  C   UNL     1       0.671   9.459  19.941  0.00  0.00    +0.000 A 
ATOM      5  C   UNL     1       0.614   8.917  21.220  0.00  0.00    +0.000 A 
ATOM      6  C   UNL     1       1.342   7.777  21.513  0.00  0.00    +0.000 A 
ATOM      7  C   UNL     1       2.074   7.135  20.508  0.00  0.00    +0.000 A 
ATOM      8  C   UNL     1       2.140   7.611  19.180  0.00  0.00    +0.000 A 
BRANCH   4   9
ATOM      9  N   UNL     1      -0.149  10.616  19.685  0.00  0.00    +0.000 N 
ATOM     10  H   UNL     1      -0.335  10.796  18.698  0.00  0.00    +0.000 HD
BRANCH   9  11
ATOM     11  S   UNL     1       0.190  12.073  20.465  0.00  0.00    +0.000 S 
ATOM     12  C   UNL     1       1.803  12.522  19.838  0.00  0.00    +0.000 C 
ATOM     13  O   UNL     1      -0.768  13.078  20.064  0.00  0.00    +0.000 OA
ATOM     14  O   UNL     1       0.365  11.717  21.859  0.00  0.00    +0.000 OA
ENDBRANCH   9  11
ENDBRANCH   4   9
ENDBRANCH   1   8
BRANCH   1  15
ATOM     15  C   UNL     1       2.311   5.486  17.854  0.00  0.00    +0.000 C 
BRANCH  15  16
ATOM     16  C   UNL     1       2.327   4.432  18.952  0.00  0.00    +0.000 A 
ATOM     17  C   UNL     1       3.504   3.859  19.447  0.00  0.00    +0.000 A 
ATOM     18  C   UNL     1       3.473   3.018  20.569  0.00  0.00    +0.000 A 
ATOM     19  C   UNL     1       2.270   2.752  21.221  0.00  0.00    +0.000 A 
ATOM     20  C   UNL     1       1.090   3.313  20.745  0.00  0.00    +0.000 A 
ATOM     21  C   UNL     1       1.117   4.145  19.621  0.00  0.00    +0.000 A 
ENDBRANCH  15  16
ENDBRANCH   1  15
BRANCH   1  22
ATOM     22  C   UNL     1       4.044   7.276  17.559  0.00  0.00    +0.000 C 
BRANCH  22  23
ATOM     23  C   UNL     1       5.074   6.183  17.310  0.00  0.00    +0.000 A 
ATOM     24  C   UNL     1       6.060   5.834  18.243  0.00  0.00    +0.000 A 
ATOM     25  C   UNL     1       7.093   4.954  17.901  0.00  0.00    +0.000 A 
ATOM     26  C   UNL     1       7.165   4.413  16.618  0.00  0.00    +0.000 A 
ATOM     27  C   UNL     1       6.181   4.719  15.674  0.00  0.00    +0.000 A 
ATOM     28  C   UNL     1       5.140   5.598  16.027  0.00  0.00    +0.000 A 
BRANCH  27  29
ATOM     29  C   UNL     1       6.257   4.175  14.347  0.00  0.00    +0.000 C 
ATOM     30  N   UNL     1       6.308   3.745  13.270  0.00  0.00    +0.000 NA
ENDBRANCH  27  29
ENDBRANCH  22  23
ENDBRANCH   1  22
TORSDOF 8
ENDMDL
