MODEL 1
REMARK VINA RESULT:      -9.0      0.000      0.000
REMARK  Name = 
REMARK  4 active torsions:
REMARK  status: ('A' for Active; 'I' for Inactive)
REMARK    1  A    between atoms: C_2  and  C_4
REMARK    2  A    between atoms: N_12  and  C_13
REMARK    3  A    between atoms: C_13  and  C_14
REMARK    4  A    between atoms: N_21  and  C_22
REMARK                            x       y       z     vdW  Elec       q    Type
REMARK                         _______ _______ _______ _____ _____    ______ ____
ROOT
ATOM      1  C   UNL     1       6.291   5.149  15.124  0.00  0.00    +0.000 A 
ATOM      2  C   UNL     1       6.357   4.303  16.237  0.00  0.00    +0.000 A 
ATOM      3  C   UNL     1       5.572   4.521  17.384  0.00  0.00    +0.000 A 
ATOM      4  C   UNL     1       4.727   5.638  17.376  0.00  0.00    +0.000 A 
ATOM      5  C   UNL     1       4.665   6.497  16.278  0.00  0.00    +0.000 A 
ATOM      6  C   UNL     1       5.422   6.243  15.126  0.00  0.00    +0.000 A 
ATOM      7  N   UNL     1       3.828   7.550  16.508  0.00  0.00    +0.000 NA
ATOM      8  C   UNL     1       3.386   7.390  17.730  0.00  0.00    +0.000 A 
ATOM      9  N   UNL     1       2.591   8.243  18.415  0.00  0.00    +0.000 N 
ATOM     10  N   UNL     1       3.822   6.180  18.264  0.00  0.00    +0.000 N 
ATOM     11  H   UNL     1       2.540   8.241  19.429  0.00  0.00    +0.000 HD
ENDROOT
BRANCH  10  12
ATOM     12  C   UNL     1       3.214   5.598  19.439  0.00  0.00    +0.000 C 
ATOM     13  C   UNL     1       2.173   6.310  20.329  0.00  0.00    +0.000 C 
ATOM     14  C   UNL     1       1.808   5.194  21.341  0.00  0.00    +0.000 C 
ATOM     15  C   UNL     1       1.698   4.043  20.378  0.00  0.00    +0.000 A 
ATOM     16  C   UNL     1       0.907   2.916  20.477  0.00  0.00    +0.000 A 
ATOM     17  C   UNL     1       0.779   2.113  19.345  0.00  0.00    +0.000 A 
ATOM     18  C   UNL     1       1.451   2.434  18.152  0.00  0.00    +0.000 A 
ATOM     19  C   UNL     1       2.308   3.534  18.086  0.00  0.00    +0.000 A 
ATOM     20  C   UNL     1       2.441   4.322  19.213  0.00  0.00    +0.000 A 
ENDBRANCH  10  12
BRANCH   1  22
ATOM     21  N   UNL     1       6.817   3.805  13.147  0.00  0.00    +0.000 N 
ATOM     22  C   UNL     1       7.165   4.858  13.952  0.00  0.00    +0.000 C 
ATOM     23  O   UNL     1       8.134   5.548  13.693  0.00  0.00    +0.000 OA
ATOM     24  H   UNL     1       7.374   3.667  12.314  0.00  0.00    +0.000 HD
ATOM     25  H   UNL     1       5.926   3.335  13.194  0.00  0.00    +0.000 HD
ENDBRANCH   1  22
BRANCH   9  26
ATOM     26  C   UNL     1       2.075   9.446  17.779  0.00  0.00    +0.000 C 
BRANCH  26  27
ATOM     27  C   UNL     1       1.275  10.298  18.742  0.00  0.00    +0.000 A 
ATOM     28  C   UNL     1       0.302   9.676  19.547  0.00  0.00    +0.000 A 
ATOM     29  C   UNL     1      -0.436  10.402  20.487  0.00  0.00    +0.000 A 
ATOM     30  C   UNL     1      -0.216  11.767  20.640  0.00  0.00    +0.000 A 
ATOM     31  C   UNL     1       0.740  12.403  19.850  0.00  0.00    +0.000 A 
ATOM     32  C   UNL     1       1.479  11.677  18.906  0.00  0.00    +0.000 A 
ATOM     33 CL   UNL     1       2.648  12.556  17.985  0.00  0.00    +0.000 Cl
ENDBRANCH  26  27
ENDBRANCH   9  26
TORSDOF 4
ENDMDL
MODEL 2
REMARK VINA RESULT:      -8.7      1.044      1.191
REMARK  Name = 
REMARK  4 active torsions:
REMARK  status: ('A' for Active; 'I' for Inactive)
REMARK    1  A    between atoms: C_2  and  C_4
REMARK    2  A    between atoms: N_12  and  C_13
REMARK    3  A    between atoms: C_13  and  C_14
REMARK    4  A    between atoms: N_21  and  C_22
REMARK                            x       y       z     vdW  Elec       q    Type
REMARK                         _______ _______ _______ _____ _____    ______ ____
ROOT
ATOM      1  C   UNL     1       6.276   5.294  15.190  0.00  0.00    +0.000 A 
ATOM      2  C   UNL     1       6.384   4.453  16.305  0.00  0.00    +0.000 A 
ATOM      3  C   UNL     1       5.586   4.632  17.449  0.00  0.00    +0.000 A 
ATOM      4  C   UNL     1       4.684   5.703  17.438  0.00  0.00    +0.000 A 
ATOM      5  C   UNL     1       4.580   6.556  16.339  0.00  0.00    +0.000 A 
ATOM      6  C   UNL     1       5.350   6.341  15.189  0.00  0.00    +0.000 A 
ATOM      7  N   UNL     1       3.689   7.565  16.566  0.00  0.00    +0.000 NA
ATOM      8  C   UNL     1       3.253   7.384  17.788  0.00  0.00    +0.000 A 
ATOM      9  N   UNL     1       2.413   8.195  18.470  0.00  0.00    +0.000 N 
ATOM     10  N   UNL     1       3.750   6.199  18.324  0.00  0.00    +0.000 N 
ATOM     11  H   UNL     1       2.361   8.192  19.484  0.00  0.00    +0.000 HD
ENDROOT
BRANCH  10  12
ATOM     12  C   UNL     1       3.172   5.588  19.499  0.00  0.00    +0.000 C 
ATOM     13  C   UNL     1       2.125   6.263  20.411  0.00  0.00    +0.000 C 
ATOM     14  C   UNL     1       1.800   5.126  21.413  0.00  0.00    +0.000 C 
ATOM     15  C   UNL     1       1.705   3.985  20.436  0.00  0.00    +0.000 A 
ATOM     16  C   UNL     1       0.942   2.839  20.531  0.00  0.00    +0.000 A 
ATOM     17  C   UNL     1       0.818   2.047  19.389  0.00  0.00    +0.000 A 
ATOM     18  C   UNL     1       1.468   2.399  18.192  0.00  0.00    +0.000 A 
ATOM     19  C   UNL     1       2.297   3.520  18.130  0.00  0.00    +0.000 A 
ATOM     20  C   UNL     1       2.426   4.297  19.266  0.00  0.00    +0.000 A 
ENDBRANCH  10  12
BRANCH   1  22
ATOM     21  N   UNL     1       6.775   4.095  13.115  0.00  0.00    +0.000 N 
ATOM     22  C   UNL     1       7.165   5.047  14.020  0.00  0.00    +0.000 C 
ATOM     23  O   UNL     1       8.186   5.688  13.849  0.00  0.00    +0.000 OA
ATOM     24  H   UNL     1       7.348   3.993  12.288  0.00  0.00    +0.000 HD
ATOM     25  H   UNL     1       5.854   3.685  13.097  0.00  0.00    +0.000 HD
ENDBRANCH   1  22
BRANCH   9  26
ATOM     26  C   UNL     1       1.836   9.369  17.832  0.00  0.00    +0.000 C 
BRANCH  26  27
ATOM     27  C   UNL     1       0.861  10.087  18.739  0.00  0.00    +0.000 A 
ATOM     28  C   UNL     1       1.343  10.651  19.937  0.00  0.00    +0.000 A 
ATOM     29  C   UNL     1       0.500  11.366  20.794  0.00  0.00    +0.000 A 
ATOM     30  C   UNL     1      -0.843  11.530  20.471  0.00  0.00    +0.000 A 
ATOM     31  C   UNL     1      -1.340  10.977  19.291  0.00  0.00    +0.000 A 
ATOM     32  C   UNL     1      -0.498  10.259  18.433  0.00  0.00    +0.000 A 
ATOM     33 CL   UNL     1      -1.209   9.623  16.991  0.00  0.00    +0.000 Cl
ENDBRANCH  26  27
ENDBRANCH   9  26
TORSDOF 4
ENDMDL
MODEL 3
REMARK VINA RESULT:      -8.6      1.334      2.140
REMARK  Name = 
REMARK  4 active torsions:
REMARK  status: ('A' for Active; 'I' for Inactive)
REMARK    1  A    between atoms: C_2  and  C_4
REMARK    2  A    between atoms: N_12  and  C_13
REMARK    3  A    between atoms: C_13  and  C_14
REMARK    4  A    between atoms: N_21  and  C_22
REMARK                            x       y       z     vdW  Elec       q    Type
REMARK                         _______ _______ _______ _____ _____    ______ ____
ROOT
ATOM      1  C   UNL     1       6.190   5.017  14.986  0.00  0.00    +0.000 A 
ATOM      2  C   UNL     1       5.753   3.763  15.433  0.00  0.00    +0.000 A 
ATOM      3  C   UNL     1       4.688   3.628  16.342  0.00  0.00    +0.000 A 
ATOM      4  C   UNL     1       4.088   4.806  16.801  0.00  0.00    +0.000 A 
ATOM      5  C   UNL     1       4.525   6.062  16.375  0.00  0.00    +0.000 A 
ATOM      6  C   UNL     1       5.559   6.180  15.437  0.00  0.00    +0.000 A 
ATOM      7  N   UNL     1       3.844   7.070  16.994  0.00  0.00    +0.000 NA
ATOM      8  C   UNL     1       3.012   6.482  17.817  0.00  0.00    +0.000 A 
ATOM      9  N   UNL     1       2.191   7.092  18.702  0.00  0.00    +0.000 N 
ATOM     10  N   UNL     1       3.047   5.099  17.658  0.00  0.00    +0.000 N 
ATOM     11  H   UNL     1       1.818   6.612  19.515  0.00  0.00    +0.000 HD
ENDROOT
BRANCH  10  12
ATOM     12  C   UNL     1       2.007   4.242  18.179  0.00  0.00    +0.000 C 
ATOM     13  C   UNL     1       1.739   2.800  17.698  0.00  0.00    +0.000 C 
ATOM     14  C   UNL     1       0.614   2.349  18.663  0.00  0.00    +0.000 C 
ATOM     15  C   UNL     1       1.182   2.899  19.944  0.00  0.00    +0.000 A 
ATOM     16  C   UNL     1       1.011   2.425  21.229  0.00  0.00    +0.000 A 
ATOM     17  C   UNL     1       1.839   2.942  22.226  0.00  0.00    +0.000 A 
ATOM     18  C   UNL     1       2.799   3.926  21.927  0.00  0.00    +0.000 A 
ATOM     19  C   UNL     1       2.910   4.452  20.640  0.00  0.00    +0.000 A 
ATOM     20  C   UNL     1       2.081   3.946  19.657  0.00  0.00    +0.000 A 
ENDBRANCH  10  12
BRANCH   1  22
ATOM     21  N   UNL     1       7.206   4.403  12.847  0.00  0.00    +0.000 N 
ATOM     22  C   UNL     1       7.333   5.077  14.032  0.00  0.00    +0.000 C 
ATOM     23  O   UNL     1       8.331   5.730  14.275  0.00  0.00    +0.000 OA
ATOM     24  H   UNL     1       7.957   4.516  12.178  0.00  0.00    +0.000 HD
ATOM     25  H   UNL     1       6.336   4.022  12.509  0.00  0.00    +0.000 HD
ENDBRANCH   1  22
BRANCH   9  26
ATOM     26  C   UNL     1       2.113   8.545  18.760  0.00  0.00    +0.000 C 
BRANCH  26  27
ATOM     27  C   UNL     1       1.233   9.021  19.895  0.00  0.00    +0.000 A 
ATOM     28  C   UNL     1       1.452   8.499  21.184  0.00  0.00    +0.000 A 
ATOM     29  C   UNL     1       0.702   8.935  22.282  0.00  0.00    +0.000 A 
ATOM     30  C   UNL     1      -0.285   9.900  22.110  0.00  0.00    +0.000 A 
ATOM     31  C   UNL     1      -0.520  10.427  20.841  0.00  0.00    +0.000 A 
ATOM     32  C   UNL     1       0.230   9.991  19.740  0.00  0.00    +0.000 A 
ATOM     33 CL   UNL     1      -0.131  10.714  18.213  0.00  0.00    +0.000 Cl
ENDBRANCH  26  27
ENDBRANCH   9  26
TORSDOF 4
ENDMDL
MODEL 4
REMARK VINA RESULT:      -8.5      1.011      1.413
REMARK  Name = 
REMARK  4 active torsions:
REMARK  status: ('A' for Active; 'I' for Inactive)
REMARK    1  A    between atoms: C_2  and  C_4
REMARK    2  A    between atoms: N_12  and  C_13
REMARK    3  A    between atoms: C_13  and  C_14
REMARK    4  A    between atoms: N_21  and  C_22
REMARK                            x       y       z     vdW  Elec       q    Type
REMARK                         _______ _______ _______ _____ _____    ______ ____
ROOT
ATOM      1  C   UNL     1       6.300   5.240  15.218  0.00  0.00    +0.000 A 
ATOM      2  C   UNL     1       6.404   4.458  16.375  0.00  0.00    +0.000 A 
ATOM      3  C   UNL     1       5.599   4.692  17.504  0.00  0.00    +0.000 A 
ATOM      4  C   UNL     1       4.693   5.757  17.434  0.00  0.00    +0.000 A 
ATOM      5  C   UNL     1       4.592   6.552  16.291  0.00  0.00    +0.000 A 
ATOM      6  C   UNL     1       5.371   6.282  15.159  0.00  0.00    +0.000 A 
ATOM      7  N   UNL     1       3.695   7.568  16.461  0.00  0.00    +0.000 NA
ATOM      8  C   UNL     1       3.253   7.447  17.688  0.00  0.00    +0.000 A 
ATOM      9  N   UNL     1       2.405   8.289  18.323  0.00  0.00    +0.000 N 
ATOM     10  N   UNL     1       3.751   6.293  18.287  0.00  0.00    +0.000 N 
ATOM     11  H   UNL     1       2.347   8.337  19.335  0.00  0.00    +0.000 HD
ENDROOT
BRANCH  10  12
ATOM     12  C   UNL     1       3.168   5.741  19.488  0.00  0.00    +0.000 C 
ATOM     13  C   UNL     1       2.129   6.466  20.370  0.00  0.00    +0.000 C 
ATOM     14  C   UNL     1       1.793   5.378  21.421  0.00  0.00    +0.000 C 
ATOM     15  C   UNL     1       1.685   4.197  20.495  0.00  0.00    +0.000 A 
ATOM     16  C   UNL     1       0.910   3.063  20.641  0.00  0.00    +0.000 A 
ATOM     17  C   UNL     1       0.777   2.223  19.536  0.00  0.00    +0.000 A 
ATOM     18  C   UNL     1       1.429   2.516  18.324  0.00  0.00    +0.000 A 
ATOM     19  C   UNL     1       2.270   3.624  18.212  0.00  0.00    +0.000 A 
ATOM     20  C   UNL     1       2.408   4.448  19.313  0.00  0.00    +0.000 A 
ENDBRANCH  10  12
BRANCH   1  22
ATOM     21  N   UNL     1       6.863   3.880  13.263  0.00  0.00    +0.000 N 
ATOM     22  C   UNL     1       7.198   4.937  14.068  0.00  0.00    +0.000 C 
ATOM     23  O   UNL     1       8.175   5.621  13.826  0.00  0.00    +0.000 OA
ATOM     24  H   UNL     1       7.438   3.735  12.443  0.00  0.00    +0.000 HD
ATOM     25  H   UNL     1       5.970   3.414  13.294  0.00  0.00    +0.000 HD
ENDBRANCH   1  22
BRANCH   9  26
ATOM     26  C   UNL     1       1.828   9.426  17.621  0.00  0.00    +0.000 C 
BRANCH  26  27
ATOM     27  C   UNL     1       1.772  10.662  18.494  0.00  0.00    +0.000 A 
ATOM     28  C   UNL     1       2.488  11.806  18.092  0.00  0.00    +0.000 A 
ATOM     29  C   UNL     1       2.438  12.992  18.832  0.00  0.00    +0.000 A 
ATOM     30  C   UNL     1       1.672  13.056  19.991  0.00  0.00    +0.000 A 
ATOM     31  C   UNL     1       0.958  11.933  20.408  0.00  0.00    +0.000 A 
ATOM     32  C   UNL     1       1.009  10.744  19.669  0.00  0.00    +0.000 A 
ATOM     33 CL   UNL     1       0.080   9.414  20.265  0.00  0.00    +0.000 Cl
ENDBRANCH  26  27
ENDBRANCH   9  26
TORSDOF 4
ENDMDL
MODEL 5
REMARK VINA RESULT:      -8.3      1.462      2.157
REMARK  Name = 
REMARK  4 active torsions:
REMARK  status: ('A' for Active; 'I' for Inactive)
REMARK    1  A    between atoms: C_2  and  C_4
REMARK    2  A    between atoms: N_12  and  C_13
REMARK    3  A    between atoms: C_13  and  C_14
REMARK    4  A    between atoms: N_21  and  C_22
REMARK                            x       y       z     vdW  Elec       q    Type
REMARK                         _______ _______ _______ _____ _____    ______ ____
ROOT
ATOM      1  C   UNL     1       6.128   5.075  15.059  0.00  0.00    +0.000 A 
ATOM      2  C   UNL     1       5.594   3.858  15.500  0.00  0.00    +0.000 A 
ATOM      3  C   UNL     1       4.525   3.803  16.413  0.00  0.00    +0.000 A 
ATOM      4  C   UNL     1       4.023   5.023  16.882  0.00  0.00    +0.000 A 
ATOM      5  C   UNL     1       4.558   6.242  16.462  0.00  0.00    +0.000 A 
ATOM      6  C   UNL     1       5.594   6.282  15.520  0.00  0.00    +0.000 A 
ATOM      7  N   UNL     1       3.964   7.297  17.090  0.00  0.00    +0.000 NA
ATOM      8  C   UNL     1       3.091   6.773  17.913  0.00  0.00    +0.000 A 
ATOM      9  N   UNL     1       2.326   7.442  18.806  0.00  0.00    +0.000 N 
ATOM     10  N   UNL     1       3.014   5.393  17.746  0.00  0.00    +0.000 N 
ATOM     11  H   UNL     1       1.918   6.988  19.618  0.00  0.00    +0.000 HD
ENDROOT
BRANCH  10  12
ATOM     12  C   UNL     1       1.910   4.619  18.266  0.00  0.00    +0.000 C 
ATOM     13  C   UNL     1       1.420   3.283  17.669  0.00  0.00    +0.000 C 
ATOM     14  C   UNL     1       0.318   2.872  18.678  0.00  0.00    +0.000 C 
ATOM     15  C   UNL     1       1.045   3.203  19.953  0.00  0.00    +0.000 A 
ATOM     16  C   UNL     1       0.907   2.615  21.195  0.00  0.00    +0.000 A 
ATOM     17  C   UNL     1       1.867   2.913  22.162  0.00  0.00    +0.000 A 
ATOM     18  C   UNL     1       2.924   3.798  21.882  0.00  0.00    +0.000 A 
ATOM     19  C   UNL     1       3.010   4.444  20.649  0.00  0.00    +0.000 A 
ATOM     20  C   UNL     1       2.051   4.155  19.696  0.00  0.00    +0.000 A 
ENDBRANCH  10  12
BRANCH   1  22
ATOM     21  N   UNL     1       7.135   4.277  12.976  0.00  0.00    +0.000 N 
ATOM     22  C   UNL     1       7.268   5.050  14.099  0.00  0.00    +0.000 C 
ATOM     23  O   UNL     1       8.270   5.716  14.283  0.00  0.00    +0.000 OA
ATOM     24  H   UNL     1       7.884   4.330  12.298  0.00  0.00    +0.000 HD
ATOM     25  H   UNL     1       6.262   3.872  12.675  0.00  0.00    +0.000 HD
ENDBRANCH   1  22
BRANCH   9  26
ATOM     26  C   UNL     1       2.365   8.896  18.873  0.00  0.00    +0.000 C 
BRANCH  26  27
ATOM     27  C   UNL     1       0.978   9.500  18.915  0.00  0.00    +0.000 A 
ATOM     28  C   UNL     1       0.257   9.619  17.711  0.00  0.00    +0.000 A 
ATOM     29  C   UNL     1      -1.047  10.126  17.693  0.00  0.00    +0.000 A 
ATOM     30  C   UNL     1      -1.654  10.527  18.878  0.00  0.00    +0.000 A 
ATOM     31  C   UNL     1      -0.955  10.420  20.080  0.00  0.00    +0.000 A 
ATOM     32  C   UNL     1       0.351   9.913  20.100  0.00  0.00    +0.000 A 
ATOM     33 CL   UNL     1       1.126   9.812  21.642  0.00  0.00    +0.000 Cl
ENDBRANCH  26  27
ENDBRANCH   9  26
TORSDOF 4
ENDMDL
MODEL 6
REMARK VINA RESULT:      -8.1      5.521      8.488
REMARK  Name = 
REMARK  4 active torsions:
REMARK  status: ('A' for Active; 'I' for Inactive)
REMARK    1  A    between atoms: C_2  and  C_4
REMARK    2  A    between atoms: N_12  and  C_13
REMARK    3  A    between atoms: C_13  and  C_14
REMARK    4  A    between atoms: N_21  and  C_22
REMARK                            x       y       z     vdW  Elec       q    Type
REMARK                         _______ _______ _______ _____ _____    ______ ____
ROOT
ATOM      1  C   UNL     1       2.063  15.983  19.874  0.00  0.00    +0.000 A 
ATOM      2  C   UNL     1       2.811  15.127  20.692  0.00  0.00    +0.000 A 
ATOM      3  C   UNL     1       2.368  13.831  21.011  0.00  0.00    +0.000 A 
ATOM      4  C   UNL     1       1.132  13.431  20.489  0.00  0.00    +0.000 A 
ATOM      5  C   UNL     1       0.371  14.282  19.685  0.00  0.00    +0.000 A 
ATOM      6  C   UNL     1       0.844  15.555  19.342  0.00  0.00    +0.000 A 
ATOM      7  N   UNL     1      -0.822  13.716  19.340  0.00  0.00    +0.000 NA
ATOM      8  C   UNL     1      -0.842  12.546  19.927  0.00  0.00    +0.000 A 
ATOM      9  N   UNL     1      -1.870  11.667  19.933  0.00  0.00    +0.000 N 
ATOM     10  N   UNL     1       0.374  12.281  20.552  0.00  0.00    +0.000 N 
ATOM     11  H   UNL     1      -1.963  10.947  20.642  0.00  0.00    +0.000 HD
ENDROOT
BRANCH  10  12
ATOM     12  C   UNL     1       0.744  10.949  20.972  0.00  0.00    +0.000 C 
ATOM     13  C   UNL     1      -0.221   9.936  21.625  0.00  0.00    +0.000 C 
ATOM     14  C   UNL     1       0.677   8.680  21.750  0.00  0.00    +0.000 C 
ATOM     15  C   UNL     1       1.325   8.729  20.393  0.00  0.00    +0.000 A 
ATOM     16  C   UNL     1       1.796   7.679  19.630  0.00  0.00    +0.000 A 
ATOM     17  C   UNL     1       2.121   7.940  18.299  0.00  0.00    +0.000 A 
ATOM     18  C   UNL     1       1.990   9.235  17.765  0.00  0.00    +0.000 A 
ATOM     19  C   UNL     1       1.586  10.304  18.566  0.00  0.00    +0.000 A 
ATOM     20  C   UNL     1       1.275  10.044  19.887  0.00  0.00    +0.000 A 
ENDBRANCH  10  12
BRANCH   1  22
ATOM     21  N   UNL     1       2.051  18.395  20.288  0.00  0.00    +0.000 N 
ATOM     22  C   UNL     1       2.594  17.347  19.593  0.00  0.00    +0.000 C 
ATOM     23  O   UNL     1       3.501  17.526  18.801  0.00  0.00    +0.000 OA
ATOM     24  H   UNL     1       2.473  19.303  20.143  0.00  0.00    +0.000 HD
ATOM     25  H   UNL     1       1.451  18.284  21.091  0.00  0.00    +0.000 HD
ENDBRANCH   1  22
BRANCH   9  26
ATOM     26  C   UNL     1      -3.084  11.943  19.178  0.00  0.00    +0.000 C 
BRANCH  26  27
ATOM     27  C   UNL     1      -3.086  11.247  17.834  0.00  0.00    +0.000 A 
ATOM     28  C   UNL     1      -2.032  10.364  17.529  0.00  0.00    +0.000 A 
ATOM     29  C   UNL     1      -2.004   9.657  16.322  0.00  0.00    +0.000 A 
ATOM     30  C   UNL     1      -3.028   9.821  15.396  0.00  0.00    +0.000 A 
ATOM     31  C   UNL     1      -4.079  10.693  15.678  0.00  0.00    +0.000 A 
ATOM     32  C   UNL     1      -4.108  11.403  16.885  0.00  0.00    +0.000 A 
ATOM     33 CL   UNL     1      -5.459  12.450  17.143  0.00  0.00    +0.000 Cl
ENDBRANCH  26  27
ENDBRANCH   9  26
TORSDOF 4
ENDMDL
MODEL 7
REMARK VINA RESULT:      -8.0      3.777      7.729
REMARK  Name = 
REMARK  4 active torsions:
REMARK  status: ('A' for Active; 'I' for Inactive)
REMARK    1  A    between atoms: C_2  and  C_4
REMARK    2  A    between atoms: N_12  and  C_13
REMARK    3  A    between atoms: C_13  and  C_14
REMARK    4  A    between atoms: N_21  and  C_22
REMARK                            x       y       z     vdW  Elec       q    Type
REMARK                         _______ _______ _______ _____ _____    ______ ____
ROOT
ATOM      1  C   UNL     1       2.353   7.102  19.483  0.00  0.00    +0.000 A 
ATOM      2  C   UNL     1       2.387   7.852  18.301  0.00  0.00    +0.000 A 
ATOM      3  C   UNL     1       1.794   9.124  18.211  0.00  0.00    +0.000 A 
ATOM      4  C   UNL     1       1.146   9.609  19.354  0.00  0.00    +0.000 A 
ATOM      5  C   UNL     1       1.092   8.864  20.532  0.00  0.00    +0.000 A 
ATOM      6  C   UNL     1       1.723   7.616  20.621  0.00  0.00    +0.000 A 
ATOM      7  N   UNL     1       0.360   9.495  21.496  0.00  0.00    +0.000 NA
ATOM      8  C   UNL     1      -0.069  10.603  20.945  0.00  0.00    +0.000 A 
ATOM      9  N   UNL     1      -0.906  11.507  21.504  0.00  0.00    +0.000 N 
ATOM     10  N   UNL     1       0.472  10.770  19.673  0.00  0.00    +0.000 N 
ATOM     11  H   UNL     1      -1.450  12.158  20.947  0.00  0.00    +0.000 HD
ENDROOT
BRANCH  10  12
ATOM     12  C   UNL     1       0.446  12.043  18.991  0.00  0.00    +0.000 C 
ATOM     13  C   UNL     1      -0.804  12.939  18.857  0.00  0.00    +0.000 C 
ATOM     14  C   UNL     1      -0.223  14.188  18.148  0.00  0.00    +0.000 C 
ATOM     15  C   UNL     1       1.044  14.332  18.947  0.00  0.00    +0.000 A 
ATOM     16  C   UNL     1       1.750  15.484  19.232  0.00  0.00    +0.000 A 
ATOM     17  C   UNL     1       2.749  15.407  20.203  0.00  0.00    +0.000 A 
ATOM     18  C   UNL     1       3.035  14.192  20.850  0.00  0.00    +0.000 A 
ATOM     19  C   UNL     1       2.367  13.018  20.499  0.00  0.00    +0.000 A 
ATOM     20  C   UNL     1       1.385  13.095  19.529  0.00  0.00    +0.000 A 
ENDBRANCH  10  12
BRANCH   1  22
ATOM     21  N   UNL     1       2.811   4.977  20.606  0.00  0.00    +0.000 N 
ATOM     22  C   UNL     1       2.994   5.757  19.495  0.00  0.00    +0.000 C 
ATOM     23  O   UNL     1       3.629   5.346  18.541  0.00  0.00    +0.000 OA
ATOM     24  H   UNL     1       3.187   4.038  20.568  0.00  0.00    +0.000 HD
ATOM     25  H   UNL     1       2.136   5.179  21.327  0.00  0.00    +0.000 HD
ENDBRANCH   1  22
BRANCH   9  26
ATOM     26  C   UNL     1      -1.364  11.342  22.876  0.00  0.00    +0.000 C 
BRANCH  26  27
ATOM     27  C   UNL     1      -2.235  12.495  23.325  0.00  0.00    +0.000 A 
ATOM     28  C   UNL     1      -3.513  12.213  23.846  0.00  0.00    +0.000 A 
ATOM     29  C   UNL     1      -4.346  13.232  24.320  0.00  0.00    +0.000 A 
ATOM     30  C   UNL     1      -3.917  14.555  24.280  0.00  0.00    +0.000 A 
ATOM     31  C   UNL     1      -2.657  14.856  23.765  0.00  0.00    +0.000 A 
ATOM     32  C   UNL     1      -1.822  13.836  23.289  0.00  0.00    +0.000 A 
ATOM     33 CL   UNL     1      -0.276  14.312  22.681  0.00  0.00    +0.000 Cl
ENDBRANCH  26  27
ENDBRANCH   9  26
TORSDOF 4
ENDMDL
MODEL 8
REMARK VINA RESULT:      -8.0      6.099      8.775
REMARK  Name = 
REMARK  4 active torsions:
REMARK  status: ('A' for Active; 'I' for Inactive)
REMARK    1  A    between atoms: C_2  and  C_4
REMARK    2  A    between atoms: N_12  and  C_13
REMARK    3  A    between atoms: C_13  and  C_14
REMARK    4  A    between atoms: N_21  and  C_22
REMARK                            x       y       z     vdW  Elec       q    Type
REMARK                         _______ _______ _______ _____ _____    ______ ____
ROOT
ATOM      1  C   UNL     1       1.549  16.191  19.434  0.00  0.00    +0.000 A 
ATOM      2  C   UNL     1       2.225  15.580  20.498  0.00  0.00    +0.000 A 
ATOM      3  C   UNL     1       1.742  14.411  21.111  0.00  0.00    +0.000 A 
ATOM      4  C   UNL     1       0.538  13.885  20.625  0.00  0.00    +0.000 A 
ATOM      5  C   UNL     1      -0.152  14.494  19.576  0.00  0.00    +0.000 A 
ATOM      6  C   UNL     1       0.362  15.635  18.947  0.00  0.00    +0.000 A 
ATOM      7  N   UNL     1      -1.328  13.855  19.307  0.00  0.00    +0.000 NA
ATOM      8  C   UNL     1      -1.406  12.878  20.176  0.00  0.00    +0.000 A 
ATOM      9  N   UNL     1      -2.446  12.029  20.338  0.00  0.00    +0.000 N 
ATOM     10  N   UNL     1      -0.241  12.789  20.933  0.00  0.00    +0.000 N 
ATOM     11  H   UNL     1      -2.598  11.518  21.202  0.00  0.00    +0.000 HD
ENDROOT
BRANCH  10  12
ATOM     12  C   UNL     1       0.080  11.614  21.710  0.00  0.00    +0.000 C 
ATOM     13  C   UNL     1      -0.941  10.813  22.546  0.00  0.00    +0.000 C 
ATOM     14  C   UNL     1      -0.076   9.631  23.053  0.00  0.00    +0.000 C 
ATOM     15  C   UNL     1       0.650   9.318  21.772  0.00  0.00    +0.000 A 
ATOM     16  C   UNL     1       1.143   8.102  21.343  0.00  0.00    +0.000 A 
ATOM     17  C   UNL     1       1.550   8.002  20.012  0.00  0.00    +0.000 A 
ATOM     18  C   UNL     1       1.475   9.110  19.149  0.00  0.00    +0.000 A 
ATOM     19  C   UNL     1       1.045  10.354  19.614  0.00  0.00    +0.000 A 
ATOM     20  C   UNL     1       0.654  10.453  20.936  0.00  0.00    +0.000 A 
ENDBRANCH  10  12
BRANCH   1  22
ATOM     21  N   UNL     1       1.285  18.514  18.711  0.00  0.00    +0.000 N 
ATOM     22  C   UNL     1       2.119  17.436  18.845  0.00  0.00    +0.000 C 
ATOM     23  O   UNL     1       3.291  17.510  18.525  0.00  0.00    +0.000 OA
ATOM     24  H   UNL     1       1.704  19.374  18.382  0.00  0.00    +0.000 HD
ATOM     25  H   UNL     1       0.375  18.576  19.141  0.00  0.00    +0.000 HD
ENDBRANCH   1  22
BRANCH   9  26
ATOM     26  C   UNL     1      -3.600  12.094  19.454  0.00  0.00    +0.000 C 
BRANCH  26  27
ATOM     27  C   UNL     1      -3.355  11.373  18.146  0.00  0.00    +0.000 A 
ATOM     28  C   UNL     1      -2.238  10.522  18.044  0.00  0.00    +0.000 A 
ATOM     29  C   UNL     1      -1.985   9.793  16.877  0.00  0.00    +0.000 A 
ATOM     30  C   UNL     1      -2.843   9.903  15.788  0.00  0.00    +0.000 A 
ATOM     31  C   UNL     1      -3.953  10.743  15.869  0.00  0.00    +0.000 A 
ATOM     32  C   UNL     1      -4.207  11.475  17.036  0.00  0.00    +0.000 A 
ATOM     33 CL   UNL     1      -5.615  12.479  17.038  0.00  0.00    +0.000 Cl
ENDBRANCH  26  27
ENDBRANCH   9  26
TORSDOF 4
ENDMDL
MODEL 9
REMARK VINA RESULT:      -8.0      3.190      7.011
REMARK  Name = 
REMARK  4 active torsions:
REMARK  status: ('A' for Active; 'I' for Inactive)
REMARK    1  A    between atoms: C_2  and  C_4
REMARK    2  A    between atoms: N_12  and  C_13
REMARK    3  A    between atoms: C_13  and  C_14
REMARK    4  A    between atoms: N_21  and  C_22
REMARK                            x       y       z     vdW  Elec       q    Type
REMARK                         _______ _______ _______ _____ _____    ______ ____
ROOT
ATOM      1  C   UNL     1       0.181  11.185  19.041  0.00  0.00    +0.000 A 
ATOM      2  C   UNL     1      -0.329  10.222  19.921  0.00  0.00    +0.000 A 
ATOM      3  C   UNL     1       0.240   8.940  20.030  0.00  0.00    +0.000 A 
ATOM      4  C   UNL     1       1.334   8.655  19.205  0.00  0.00    +0.000 A 
ATOM      5  C   UNL     1       1.841   9.601  18.313  0.00  0.00    +0.000 A 
ATOM      6  C   UNL     1       1.291  10.888  18.245  0.00  0.00    +0.000 A 
ATOM      7  N   UNL     1       2.863   9.093  17.565  0.00  0.00    +0.000 NA
ATOM      8  C   UNL     1       2.993   7.847  17.944  0.00  0.00    +0.000 A 
ATOM      9  N   UNL     1       3.832   6.928  17.412  0.00  0.00    +0.000 N 
ATOM     10  N   UNL     1       2.154   7.562  19.018  0.00  0.00    +0.000 N 
ATOM     11  H   UNL     1       3.676   5.930  17.511  0.00  0.00    +0.000 HD
ENDROOT
BRANCH  10  12
ATOM     12  C   UNL     1       2.337   6.389  19.843  0.00  0.00    +0.000 C 
ATOM     13  C   UNL     1       1.568   6.112  21.153  0.00  0.00    +0.000 C 
ATOM     14  C   UNL     1       2.083   4.699  21.527  0.00  0.00    +0.000 C 
ATOM     15  C   UNL     1       2.017   4.067  20.163  0.00  0.00    +0.000 A 
ATOM     16  C   UNL     1       1.806   2.740  19.844  0.00  0.00    +0.000 A 
ATOM     17  C   UNL     1       1.530   2.431  18.512  0.00  0.00    +0.000 A 
ATOM     18  C   UNL     1       1.490   3.438  17.531  0.00  0.00    +0.000 A 
ATOM     19  C   UNL     1       1.779   4.764  17.852  0.00  0.00    +0.000 A 
ATOM     20  C   UNL     1       2.063   5.066  19.171  0.00  0.00    +0.000 A 
ENDBRANCH  10  12
BRANCH   1  22
ATOM     21  N   UNL     1      -0.846  12.984  17.739  0.00  0.00    +0.000 N 
ATOM     22  C   UNL     1      -0.485  12.517  18.974  0.00  0.00    +0.000 C 
ATOM     23  O   UNL     1      -0.733  13.155  19.981  0.00  0.00    +0.000 OA
ATOM     24  H   UNL     1      -1.365  13.852  17.716  0.00  0.00    +0.000 HD
ATOM     25  H   UNL     1      -0.851  12.418  16.905  0.00  0.00    +0.000 HD
ENDBRANCH   1  22
BRANCH   9  26
ATOM     26  C   UNL     1       4.766   7.300  16.359  0.00  0.00    +0.000 C 
BRANCH  26  27
ATOM     27  C   UNL     1       5.551   6.110  15.851  0.00  0.00    +0.000 A 
ATOM     28  C   UNL     1       5.046   5.387  14.753  0.00  0.00    +0.000 A 
ATOM     29  C   UNL     1       5.749   4.307  14.209  0.00  0.00    +0.000 A 
ATOM     30  C   UNL     1       6.971   3.927  14.755  0.00  0.00    +0.000 A 
ATOM     31  C   UNL     1       7.486   4.628  15.845  0.00  0.00    +0.000 A 
ATOM     32  C   UNL     1       6.782   5.709  16.391  0.00  0.00    +0.000 A 
ATOM     33 CL   UNL     1       7.512   6.518  17.734  0.00  0.00    +0.000 Cl
ENDBRANCH  26  27
ENDBRANCH   9  26
TORSDOF 4
ENDMDL
