MODEL 1
REMARK VINA RESULT:      -9.4      0.000      0.000
REMARK  Name = 
REMARK  11 active torsions:
REMARK  status: ('A' for Active; 'I' for Inactive)
REMARK    1  A    between atoms: C_1  and  O_2
REMARK    2  A    between atoms: O_2  and  C_3
REMARK    3  A    between atoms: C_8  and  O_9
REMARK    4  A    between atoms: O_9  and  C_10
REMARK    5  A    between atoms: C_11  and  C_12
REMARK    6  A    between atoms: C_12  and  C_13
REMARK    7  A    between atoms: C_15  and  O_16
REMARK    8  A    between atoms: O_16  and  C_17
REMARK    9  A    between atoms: C_18  and  O_19
REMARK   10  A    between atoms: O_19  and  C_20
REMARK   11  A    between atoms: C_20  and  C_21
REMARK                            x       y       z     vdW  Elec       q    Type
REMARK                         _______ _______ _______ _____ _____    ______ ____
ROOT
ATOM      1  C   UNL     1       1.849   4.649  18.698  0.00  0.00    +0.000 A 
ATOM      2  C   UNL     1       2.261   5.835  18.055  0.00  0.00    +0.000 A 
ATOM      3  C   UNL     1       2.392   7.060  18.738  0.00  0.00    +0.000 A 
ATOM      4  C   UNL     1       1.989   7.131  20.075  0.00  0.00    +0.000 A 
ATOM      5  C   UNL     1       1.674   5.942  20.745  0.00  0.00    +0.000 A 
ATOM      6  C   UNL     1       1.643   4.710  20.083  0.00  0.00    +0.000 A 
ATOM      7 BR   UNL     1       1.335   3.170  21.154  0.00  0.00    +0.000 Br
ENDROOT
BRANCH   3   8
ATOM      8  O   UNL     1       2.845   8.092  17.959  0.00  0.00    +0.000 OA
ATOM      9  C   UNL     1       1.914   9.150  17.713  0.00  0.00    +0.000 C 
ENDBRANCH   3   8
BRANCH   1  10
ATOM     10  C   UNL     1       1.670   3.385  17.872  0.00  0.00    +0.000 C 
BRANCH  10  17
ATOM     11  C   UNL     1       6.430   5.312  17.434  0.00  0.00    +0.000 A 
ATOM     12  C   UNL     1       5.990   4.665  18.597  0.00  0.00    +0.000 A 
ATOM     13  C   UNL     1       4.894   3.805  18.557  0.00  0.00    +0.000 A 
ATOM     14  C   UNL     1       4.188   3.627  17.361  0.00  0.00    +0.000 A 
ATOM     15  C   UNL     1       4.636   4.262  16.192  0.00  0.00    +0.000 A 
ATOM     16  C   UNL     1       5.772   5.086  16.210  0.00  0.00    +0.000 A 
ATOM     17  C   UNL     1       2.980   2.709  17.359  0.00  0.00    +0.000 C 
ATOM     18  N   UNL     1       3.225   1.447  18.101  0.00  0.00    +0.000 NA
ATOM     19  C   UNL     1       4.187   1.552  19.214  0.00  0.00    +0.000 C 
ATOM     20  C   UNL     1       4.473   2.969  19.734  0.00  0.00    +0.000 C 
ATOM     21  H   UNL     1       3.605   0.769  17.439  0.00  0.00    +0.000 HD
BRANCH  11  23
ATOM     22  C   UNL     1       7.986   6.223  18.984  0.00  0.00    +0.000 C 
ATOM     23  O   UNL     1       7.559   6.068  17.637  0.00  0.00    +0.000 OA
ENDBRANCH  11  23
BRANCH  16  24
ATOM     24  O   UNL     1       6.303   5.659  15.085  0.00  0.00    +0.000 OA
ATOM     25  C   UNL     1       6.956   4.823  14.141  0.00  0.00    +0.000 C 
ENDBRANCH  16  24
ENDBRANCH  10  17
ENDBRANCH   1  10
BRANCH   4  26
ATOM     26  O   UNL     1       1.843   8.234  20.873  0.00  0.00    +0.000 OA
BRANCH  26  27
ATOM     27  C   UNL     1       0.753   8.261  21.788  0.00  0.00    +0.000 C 
BRANCH  27  28
ATOM     28  C   UNL     1       0.073   9.603  21.838  0.00  0.00    +0.000 A 
ATOM     29  C   UNL     1      -0.670   9.964  22.970  0.00  0.00    +0.000 A 
ATOM     30  C   UNL     1      -1.197  11.250  23.082  0.00  0.00    +0.000 A 
ATOM     31  C   UNL     1      -0.978  12.178  22.071  0.00  0.00    +0.000 A 
ATOM     32  C   UNL     1      -0.229  11.833  20.946  0.00  0.00    +0.000 A 
ATOM     33  C   UNL     1       0.299  10.546  20.829  0.00  0.00    +0.000 A 
ENDBRANCH  27  28
ENDBRANCH  26  27
ENDBRANCH   4  26
TORSDOF 8
ENDMDL
MODEL 2
REMARK VINA RESULT:      -9.3      0.621      1.039
REMARK  Name = 
REMARK  11 active torsions:
REMARK  status: ('A' for Active; 'I' for Inactive)
REMARK    1  A    between atoms: C_1  and  O_2
REMARK    2  A    between atoms: O_2  and  C_3
REMARK    3  A    between atoms: C_8  and  O_9
REMARK    4  A    between atoms: O_9  and  C_10
REMARK    5  A    between atoms: C_11  and  C_12
REMARK    6  A    between atoms: C_12  and  C_13
REMARK    7  A    between atoms: C_15  and  O_16
REMARK    8  A    between atoms: O_16  and  C_17
REMARK    9  A    between atoms: C_18  and  O_19
REMARK   10  A    between atoms: O_19  and  C_20
REMARK   11  A    between atoms: C_20  and  C_21
REMARK                            x       y       z     vdW  Elec       q    Type
REMARK                         _______ _______ _______ _____ _____    ______ ____
ROOT
ATOM      1  C   UNL     1       2.059   4.690  18.642  0.00  0.00    +0.000 A 
ATOM      2  C   UNL     1       2.442   5.902  18.030  0.00  0.00    +0.000 A 
ATOM      3  C   UNL     1       2.471   7.125  18.728  0.00  0.00    +0.000 A 
ATOM      4  C   UNL     1       1.994   7.161  20.042  0.00  0.00    +0.000 A 
ATOM      5  C   UNL     1       1.707   5.951  20.685  0.00  0.00    +0.000 A 
ATOM      6  C   UNL     1       1.777   4.725  20.013  0.00  0.00    +0.000 A 
ATOM      7 BR   UNL     1       1.494   3.161  21.055  0.00  0.00    +0.000 Br
ENDROOT
BRANCH   3   8
ATOM      8  O   UNL     1       2.910   8.187  17.982  0.00  0.00    +0.000 OA
ATOM      9  C   UNL     1       1.967   9.242  17.775  0.00  0.00    +0.000 C 
ENDBRANCH   3   8
BRANCH   1  10
ATOM     10  C   UNL     1       1.991   3.427  17.798  0.00  0.00    +0.000 C 
BRANCH  10  17
ATOM     11  C   UNL     1       6.531   5.658  16.809  0.00  0.00    +0.000 A 
ATOM     12  C   UNL     1       6.164   5.251  18.099  0.00  0.00    +0.000 A 
ATOM     13  C   UNL     1       5.160   4.302  18.283  0.00  0.00    +0.000 A 
ATOM     14  C   UNL     1       4.470   3.790  17.177  0.00  0.00    +0.000 A 
ATOM     15  C   UNL     1       4.847   4.184  15.884  0.00  0.00    +0.000 A 
ATOM     16  C   UNL     1       5.894   5.097  15.685  0.00  0.00    +0.000 A 
ATOM     17  C   UNL     1       3.360   2.782  17.415  0.00  0.00    +0.000 C 
ATOM     18  N   UNL     1       3.735   1.751  18.415  0.00  0.00    +0.000 NA
ATOM     19  C   UNL     1       4.686   2.200  19.450  0.00  0.00    +0.000 C 
ATOM     20  C   UNL     1       4.830   3.719  19.629  0.00  0.00    +0.000 C 
ATOM     21  H   UNL     1       4.179   0.982  17.913  0.00  0.00    +0.000 HD
BRANCH  11  23
ATOM     22  C   UNL     1       7.423   7.715  17.598  0.00  0.00    +0.000 C 
ATOM     23  O   UNL     1       7.579   6.545  16.805  0.00  0.00    +0.000 OA
ENDBRANCH  11  23
BRANCH  16  24
ATOM     24  O   UNL     1       6.360   5.448  14.446  0.00  0.00    +0.000 OA
ATOM     25  C   UNL     1       7.087   4.486  13.696  0.00  0.00    +0.000 C 
ENDBRANCH  16  24
ENDBRANCH  10  17
ENDBRANCH   1  10
BRANCH   4  26
ATOM     26  O   UNL     1       1.747   8.247  20.839  0.00  0.00    +0.000 OA
BRANCH  26  27
ATOM     27  C   UNL     1       0.597   8.217  21.678  0.00  0.00    +0.000 C 
BRANCH  27  28
ATOM     28  C   UNL     1      -0.068   9.562  21.794  0.00  0.00    +0.000 A 
ATOM     29  C   UNL     1      -0.307  10.320  20.640  0.00  0.00    +0.000 A 
ATOM     30  C   UNL     1      -1.035  11.507  20.719  0.00  0.00    +0.000 A 
ATOM     31  C   UNL     1      -1.529  11.935  21.945  0.00  0.00    +0.000 A 
ATOM     32  C   UNL     1      -1.307  11.182  23.098  0.00  0.00    +0.000 A 
ATOM     33  C   UNL     1      -0.578   9.993  23.023  0.00  0.00    +0.000 A 
ENDBRANCH  27  28
ENDBRANCH  26  27
ENDBRANCH   4  26
TORSDOF 8
ENDMDL
MODEL 3
REMARK VINA RESULT:      -9.0      0.840      1.051
REMARK  Name = 
REMARK  11 active torsions:
REMARK  status: ('A' for Active; 'I' for Inactive)
REMARK    1  A    between atoms: C_1  and  O_2
REMARK    2  A    between atoms: O_2  and  C_3
REMARK    3  A    between atoms: C_8  and  O_9
REMARK    4  A    between atoms: O_9  and  C_10
REMARK    5  A    between atoms: C_11  and  C_12
REMARK    6  A    between atoms: C_12  and  C_13
REMARK    7  A    between atoms: C_15  and  O_16
REMARK    8  A    between atoms: O_16  and  C_17
REMARK    9  A    between atoms: C_18  and  O_19
REMARK   10  A    between atoms: O_19  and  C_20
REMARK   11  A    between atoms: C_20  and  C_21
REMARK                            x       y       z     vdW  Elec       q    Type
REMARK                         _______ _______ _______ _____ _____    ______ ____
ROOT
ATOM      1  C   UNL     1       1.835   4.692  18.708  0.00  0.00    +0.000 A 
ATOM      2  C   UNL     1       2.280   5.890  18.109  0.00  0.00    +0.000 A 
ATOM      3  C   UNL     1       2.424   7.090  18.832  0.00  0.00    +0.000 A 
ATOM      4  C   UNL     1       2.003   7.126  20.165  0.00  0.00    +0.000 A 
ATOM      5  C   UNL     1       1.654   5.923  20.791  0.00  0.00    +0.000 A 
ATOM      6  C   UNL     1       1.610   4.713  20.090  0.00  0.00    +0.000 A 
ATOM      7 BR   UNL     1       1.255   3.147  21.107  0.00  0.00    +0.000 Br
ENDROOT
BRANCH   3   8
ATOM      8  O   UNL     1       2.909   8.136  18.093  0.00  0.00    +0.000 OA
ATOM      9  C   UNL     1       1.941   9.084  17.634  0.00  0.00    +0.000 C 
ENDBRANCH   3   8
BRANCH   1  10
ATOM     10  C   UNL     1       1.644   3.459  17.839  0.00  0.00    +0.000 C 
BRANCH  10  17
ATOM     11  C   UNL     1       6.450   5.294  17.517  0.00  0.00    +0.000 A 
ATOM     12  C   UNL     1       5.977   4.635  18.660  0.00  0.00    +0.000 A 
ATOM     13  C   UNL     1       4.864   3.799  18.585  0.00  0.00    +0.000 A 
ATOM     14  C   UNL     1       4.175   3.657  17.374  0.00  0.00    +0.000 A 
ATOM     15  C   UNL     1       4.657   4.304  16.226  0.00  0.00    +0.000 A 
ATOM     16  C   UNL     1       5.809   5.104  16.277  0.00  0.00    +0.000 A 
ATOM     17  C   UNL     1       2.948   2.765  17.335  0.00  0.00    +0.000 C 
ATOM     18  N   UNL     1       3.155   1.485  18.058  0.00  0.00    +0.000 NA
ATOM     19  C   UNL     1       4.100   1.551  19.190  0.00  0.00    +0.000 C 
ATOM     20  C   UNL     1       4.406   2.952  19.740  0.00  0.00    +0.000 C 
ATOM     21  H   UNL     1       3.533   0.812  17.391  0.00  0.00    +0.000 HD
BRANCH  11  23
ATOM     22  C   UNL     1       8.011   6.124  19.106  0.00  0.00    +0.000 C 
ATOM     23  O   UNL     1       7.590   6.022  17.752  0.00  0.00    +0.000 OA
ENDBRANCH  11  23
BRANCH  16  24
ATOM     24  O   UNL     1       6.371   5.685  15.173  0.00  0.00    +0.000 OA
ATOM     25  C   UNL     1       6.975   4.848  14.198  0.00  0.00    +0.000 C 
ENDBRANCH  16  24
ENDBRANCH  10  17
ENDBRANCH   1  10
BRANCH   4  26
ATOM     26  O   UNL     1       1.865   8.206  20.995  0.00  0.00    +0.000 OA
BRANCH  26  27
ATOM     27  C   UNL     1       0.550   8.662  21.292  0.00  0.00    +0.000 C 
BRANCH  27  28
ATOM     28  C   UNL     1       0.240   9.989  20.652  0.00  0.00    +0.000 A 
ATOM     29  C   UNL     1      -0.826  10.091  19.747  0.00  0.00    +0.000 A 
ATOM     30  C   UNL     1      -1.202  11.336  19.246  0.00  0.00    +0.000 A 
ATOM     31  C   UNL     1      -0.523  12.479  19.650  0.00  0.00    +0.000 A 
ATOM     32  C   UNL     1       0.532  12.390  20.559  0.00  0.00    +0.000 A 
ATOM     33  C   UNL     1       0.913  11.144  21.063  0.00  0.00    +0.000 A 
ENDBRANCH  27  28
ENDBRANCH  26  27
ENDBRANCH   4  26
TORSDOF 8
ENDMDL
MODEL 4
REMARK VINA RESULT:      -8.3      0.919      1.013
REMARK  Name = 
REMARK  11 active torsions:
REMARK  status: ('A' for Active; 'I' for Inactive)
REMARK    1  A    between atoms: C_1  and  O_2
REMARK    2  A    between atoms: O_2  and  C_3
REMARK    3  A    between atoms: C_8  and  O_9
REMARK    4  A    between atoms: O_9  and  C_10
REMARK    5  A    between atoms: C_11  and  C_12
REMARK    6  A    between atoms: C_12  and  C_13
REMARK    7  A    between atoms: C_15  and  O_16
REMARK    8  A    between atoms: O_16  and  C_17
REMARK    9  A    between atoms: C_18  and  O_19
REMARK   10  A    between atoms: O_19  and  C_20
REMARK   11  A    between atoms: C_20  and  C_21
REMARK                            x       y       z     vdW  Elec       q    Type
REMARK                         _______ _______ _______ _____ _____    ______ ____
ROOT
ATOM      1  C   UNL     1       2.134   4.624  18.511  0.00  0.00    +0.000 A 
ATOM      2  C   UNL     1       2.421   5.977  18.235  0.00  0.00    +0.000 A 
ATOM      3  C   UNL     1       2.135   7.013  19.146  0.00  0.00    +0.000 A 
ATOM      4  C   UNL     1       1.436   6.704  20.316  0.00  0.00    +0.000 A 
ATOM      5  C   UNL     1       1.235   5.357  20.643  0.00  0.00    +0.000 A 
ATOM      6  C   UNL     1       1.614   4.325  19.777  0.00  0.00    +0.000 A 
ATOM      7 BR   UNL     1       1.404   2.549  20.419  0.00  0.00    +0.000 Br
ENDROOT
BRANCH   3   8
ATOM      8  O   UNL     1       2.524   8.256  18.722  0.00  0.00    +0.000 OA
ATOM      9  C   UNL     1       1.600   8.953  17.883  0.00  0.00    +0.000 C 
ENDBRANCH   3   8
BRANCH   1  10
ATOM     10  C   UNL     1       2.415   3.577  17.445  0.00  0.00    +0.000 C 
BRANCH  10  17
ATOM     11  C   UNL     1       6.856   6.073  16.663  0.00  0.00    +0.000 A 
ATOM     12  C   UNL     1       6.327   5.874  17.946  0.00  0.00    +0.000 A 
ATOM     13  C   UNL     1       5.387   4.871  18.176  0.00  0.00    +0.000 A 
ATOM     14  C   UNL     1       4.922   4.090  17.110  0.00  0.00    +0.000 A 
ATOM     15  C   UNL     1       5.463   4.276  15.829  0.00  0.00    +0.000 A 
ATOM     16  C   UNL     1       6.451   5.246  15.597  0.00  0.00    +0.000 A 
ATOM     17  C   UNL     1       3.875   3.027  17.390  0.00  0.00    +0.000 C 
ATOM     18  N   UNL     1       4.172   2.247  18.618  0.00  0.00    +0.000 NA
ATOM     19  C   UNL     1       4.910   2.982  19.663  0.00  0.00    +0.000 C 
ATOM     20  C   UNL     1       4.900   4.514  19.553  0.00  0.00    +0.000 C 
ATOM     21  H   UNL     1       4.750   1.452  18.345  0.00  0.00    +0.000 HD
BRANCH  11  23
ATOM     22  C   UNL     1       7.805   7.993  17.694  0.00  0.00    +0.000 C 
ATOM     23  O   UNL     1       7.816   7.054  16.626  0.00  0.00    +0.000 OA
ENDBRANCH  11  23
BRANCH  16  24
ATOM     24  O   UNL     1       7.074   5.411  14.390  0.00  0.00    +0.000 OA
ATOM     25  C   UNL     1       6.810   4.475  13.356  0.00  0.00    +0.000 C 
ENDBRANCH  16  24
ENDBRANCH  10  17
ENDBRANCH   1  10
BRANCH   4  26
ATOM     26  O   UNL     1       0.885   7.552  21.239  0.00  0.00    +0.000 OA
BRANCH  26  27
ATOM     27  C   UNL     1       1.570   8.767  21.529  0.00  0.00    +0.000 C 
BRANCH  27  28
ATOM     28  C   UNL     1       0.629   9.918  21.764  0.00  0.00    +0.000 A 
ATOM     29  C   UNL     1      -0.308   9.847  22.804  0.00  0.00    +0.000 A 
ATOM     30  C   UNL     1      -1.097  10.954  23.113  0.00  0.00    +0.000 A 
ATOM     31  C   UNL     1      -0.948  12.133  22.392  0.00  0.00    +0.000 A 
ATOM     32  C   UNL     1      -0.010  12.218  21.364  0.00  0.00    +0.000 A 
ATOM     33  C   UNL     1       0.781  11.111  21.050  0.00  0.00    +0.000 A 
ENDBRANCH  27  28
ENDBRANCH  26  27
ENDBRANCH   4  26
TORSDOF 8
ENDMDL
MODEL 5
REMARK VINA RESULT:      -8.3      4.261      9.563
REMARK  Name = 
REMARK  11 active torsions:
REMARK  status: ('A' for Active; 'I' for Inactive)
REMARK    1  A    between atoms: C_1  and  O_2
REMARK    2  A    between atoms: O_2  and  C_3
REMARK    3  A    between atoms: C_8  and  O_9
REMARK    4  A    between atoms: O_9  and  C_10
REMARK    5  A    between atoms: C_11  and  C_12
REMARK    6  A    between atoms: C_12  and  C_13
REMARK    7  A    between atoms: C_15  and  O_16
REMARK    8  A    between atoms: O_16  and  C_17
REMARK    9  A    between atoms: C_18  and  O_19
REMARK   10  A    between atoms: O_19  and  C_20
REMARK   11  A    between atoms: C_20  and  C_21
REMARK                            x       y       z     vdW  Elec       q    Type
REMARK                         _______ _______ _______ _____ _____    ______ ____
ROOT
ATOM      1  C   UNL     1       0.290  10.623  20.670  0.00  0.00    +0.000 A 
ATOM      2  C   UNL     1       0.800  10.371  19.379  0.00  0.00    +0.000 A 
ATOM      3  C   UNL     1       1.397   9.144  19.027  0.00  0.00    +0.000 A 
ATOM      4  C   UNL     1       1.594   8.183  20.023  0.00  0.00    +0.000 A 
ATOM      5  C   UNL     1       1.005   8.384  21.277  0.00  0.00    +0.000 A 
ATOM      6  C   UNL     1       0.324   9.566  21.590  0.00  0.00    +0.000 A 
ATOM      7 BR   UNL     1      -0.540   9.635  23.281  0.00  0.00    +0.000 Br
ENDROOT
BRANCH   3   8
ATOM      8  O   UNL     1       1.794   9.068  17.719  0.00  0.00    +0.000 OA
ATOM      9  C   UNL     1       2.908   8.213  17.448  0.00  0.00    +0.000 C 
ENDBRANCH   3   8
BRANCH   1  10
ATOM     10  C   UNL     1      -0.278  11.998  20.985  0.00  0.00    +0.000 C 
BRANCH  10  17
ATOM     11  C   UNL     1      -4.675  11.428  18.357  0.00  0.00    +0.000 A 
ATOM     12  C   UNL     1      -4.577  12.267  19.476  0.00  0.00    +0.000 A 
ATOM     13  C   UNL     1      -3.334  12.730  19.906  0.00  0.00    +0.000 A 
ATOM     14  C   UNL     1      -2.168  12.311  19.255  0.00  0.00    +0.000 A 
ATOM     15  C   UNL     1      -2.266  11.484  18.125  0.00  0.00    +0.000 A 
ATOM     16  C   UNL     1      -3.516  11.058  17.650  0.00  0.00    +0.000 A 
ATOM     17  C   UNL     1      -0.829  12.808  19.769  0.00  0.00    +0.000 C 
ATOM     18  N   UNL     1      -0.847  14.257  20.090  0.00  0.00    +0.000 NA
ATOM     19  C   UNL     1      -2.154  14.785  20.527  0.00  0.00    +0.000 C 
ATOM     20  C   UNL     1      -3.182  13.748  21.002  0.00  0.00    +0.000 C 
ATOM     21  H   UNL     1      -0.587  14.763  19.243  0.00  0.00    +0.000 HD
BRANCH  11  23
ATOM     22  C   UNL     1      -6.714  10.385  18.996  0.00  0.00    +0.000 C 
ATOM     23  O   UNL     1      -5.974  11.122  18.031  0.00  0.00    +0.000 OA
ENDBRANCH  11  23
BRANCH  16  24
ATOM     24  O   UNL     1      -3.674  10.325  16.504  0.00  0.00    +0.000 OA
ATOM     25  C   UNL     1      -3.079  10.801  15.306  0.00  0.00    +0.000 C 
ENDBRANCH  16  24
ENDBRANCH  10  17
ENDBRANCH   1  10
BRANCH   4  26
ATOM     26  O   UNL     1       2.312   7.018  19.965  0.00  0.00    +0.000 OA
BRANCH  26  27
ATOM     27  C   UNL     1       1.790   5.873  20.631  0.00  0.00    +0.000 C 
BRANCH  27  28
ATOM     28  C   UNL     1       1.883   4.625  19.794  0.00  0.00    +0.000 A 
ATOM     29  C   UNL     1       1.348   3.424  20.277  0.00  0.00    +0.000 A 
ATOM     30  C   UNL     1       1.314   2.294  19.461  0.00  0.00    +0.000 A 
ATOM     31  C   UNL     1       1.807   2.362  18.164  0.00  0.00    +0.000 A 
ATOM     32  C   UNL     1       2.332   3.556  17.669  0.00  0.00    +0.000 A 
ATOM     33  C   UNL     1       2.368   4.690  18.483  0.00  0.00    +0.000 A 
ENDBRANCH  27  28
ENDBRANCH  26  27
ENDBRANCH   4  26
TORSDOF 8
ENDMDL
MODEL 6
REMARK VINA RESULT:      -8.2      1.185      1.529
REMARK  Name = 
REMARK  11 active torsions:
REMARK  status: ('A' for Active; 'I' for Inactive)
REMARK    1  A    between atoms: C_1  and  O_2
REMARK    2  A    between atoms: O_2  and  C_3
REMARK    3  A    between atoms: C_8  and  O_9
REMARK    4  A    between atoms: O_9  and  C_10
REMARK    5  A    between atoms: C_11  and  C_12
REMARK    6  A    between atoms: C_12  and  C_13
REMARK    7  A    between atoms: C_15  and  O_16
REMARK    8  A    between atoms: O_16  and  C_17
REMARK    9  A    between atoms: C_18  and  O_19
REMARK   10  A    between atoms: O_19  and  C_20
REMARK   11  A    between atoms: C_20  and  C_21
REMARK                            x       y       z     vdW  Elec       q    Type
REMARK                         _______ _______ _______ _____ _____    ______ ____
ROOT
ATOM      1  C   UNL     1       1.914   4.414  18.640  0.00  0.00    +0.000 A 
ATOM      2  C   UNL     1       2.340   5.562  17.939  0.00  0.00    +0.000 A 
ATOM      3  C   UNL     1       2.419   6.832  18.543  0.00  0.00    +0.000 A 
ATOM      4  C   UNL     1       1.949   6.985  19.851  0.00  0.00    +0.000 A 
ATOM      5  C   UNL     1       1.618   5.838  20.583  0.00  0.00    +0.000 A 
ATOM      6  C   UNL     1       1.639   4.563  20.005  0.00  0.00    +0.000 A 
ATOM      7 BR   UNL     1       1.301   3.093  21.162  0.00  0.00    +0.000 Br
ENDROOT
BRANCH   3   8
ATOM      8  O   UNL     1       2.895   7.817  17.718  0.00  0.00    +0.000 OA
ATOM      9  C   UNL     1       4.173   7.577  17.125  0.00  0.00    +0.000 C 
ENDBRANCH   3   8
BRANCH   1  10
ATOM     10  C   UNL     1       1.796   3.095  17.894  0.00  0.00    +0.000 C 
BRANCH  10  17
ATOM     11  C   UNL     1       6.512   5.034  17.145  0.00  0.00    +0.000 A 
ATOM     12  C   UNL     1       6.058   4.643  18.412  0.00  0.00    +0.000 A 
ATOM     13  C   UNL     1       4.987   3.759  18.538  0.00  0.00    +0.000 A 
ATOM     14  C   UNL     1       4.320   3.301  17.395  0.00  0.00    +0.000 A 
ATOM     15  C   UNL     1       4.783   3.679  16.126  0.00  0.00    +0.000 A 
ATOM     16  C   UNL     1       5.895   4.524  15.987  0.00  0.00    +0.000 A 
ATOM     17  C   UNL     1       3.137   2.365  17.570  0.00  0.00    +0.000 C 
ATOM     18  N   UNL     1       3.396   1.305  18.576  0.00  0.00    +0.000 NA
ATOM     19  C   UNL     1       4.323   1.684  19.659  0.00  0.00    +0.000 C 
ATOM     20  C   UNL     1       4.556   3.188  19.861  0.00  0.00    +0.000 C 
ATOM     21  H   UNL     1       3.813   0.512  18.087  0.00  0.00    +0.000 HD
BRANCH  11  23
ATOM     22  C   UNL     1       7.704   6.720  18.323  0.00  0.00    +0.000 C 
ATOM     23  O   UNL     1       7.614   5.852  17.201  0.00  0.00    +0.000 OA
ENDBRANCH  11  23
BRANCH  16  24
ATOM     24  O   UNL     1       6.442   4.853  14.775  0.00  0.00    +0.000 OA
ATOM     25  C   UNL     1       6.239   3.976  13.678  0.00  0.00    +0.000 C 
ENDBRANCH  16  24
ENDBRANCH  10  17
ENDBRANCH   1  10
BRANCH   4  26
ATOM     26  O   UNL     1       1.746   8.135  20.564  0.00  0.00    +0.000 OA
BRANCH  26  27
ATOM     27  C   UNL     1       1.831   9.378  19.873  0.00  0.00    +0.000 C 
BRANCH  27  28
ATOM     28  C   UNL     1       0.479   9.934  19.517  0.00  0.00    +0.000 A 
ATOM     29  C   UNL     1      -0.192  10.764  20.425  0.00  0.00    +0.000 A 
ATOM     30  C   UNL     1      -1.383  11.387  20.057  0.00  0.00    +0.000 A 
ATOM     31  C   UNL     1      -1.904  11.188  18.784  0.00  0.00    +0.000 A 
ATOM     32  C   UNL     1      -1.238  10.373  17.868  0.00  0.00    +0.000 A 
ATOM     33  C   UNL     1      -0.044   9.747  18.233  0.00  0.00    +0.000 A 
ENDBRANCH  27  28
ENDBRANCH  26  27
ENDBRANCH   4  26
TORSDOF 8
ENDMDL
MODEL 7
REMARK VINA RESULT:      -8.1      4.044      9.322
REMARK  Name = 
REMARK  11 active torsions:
REMARK  status: ('A' for Active; 'I' for Inactive)
REMARK    1  A    between atoms: C_1  and  O_2
REMARK    2  A    between atoms: O_2  and  C_3
REMARK    3  A    between atoms: C_8  and  O_9
REMARK    4  A    between atoms: O_9  and  C_10
REMARK    5  A    between atoms: C_11  and  C_12
REMARK    6  A    between atoms: C_12  and  C_13
REMARK    7  A    between atoms: C_15  and  O_16
REMARK    8  A    between atoms: O_16  and  C_17
REMARK    9  A    between atoms: C_18  and  O_19
REMARK   10  A    between atoms: O_19  and  C_20
REMARK   11  A    between atoms: C_20  and  C_21
REMARK                            x       y       z     vdW  Elec       q    Type
REMARK                         _______ _______ _______ _____ _____    ______ ____
ROOT
ATOM      1  C   UNL     1       0.805  10.127  20.426  0.00  0.00    +0.000 A 
ATOM      2  C   UNL     1       1.327   9.688  19.191  0.00  0.00    +0.000 A 
ATOM      3  C   UNL     1       1.786   8.371  18.989  0.00  0.00    +0.000 A 
ATOM      4  C   UNL     1       1.835   7.501  20.082  0.00  0.00    +0.000 A 
ATOM      5  C   UNL     1       1.230   7.896  21.282  0.00  0.00    +0.000 A 
ATOM      6  C   UNL     1       0.683   9.174  21.445  0.00  0.00    +0.000 A 
ATOM      7 BR   UNL     1      -0.225   9.514  23.080  0.00  0.00    +0.000 Br
ENDROOT
BRANCH   3   8
ATOM      8  O   UNL     1       2.217   8.117  17.714  0.00  0.00    +0.000 OA
ATOM      9  C   UNL     1       3.531   7.566  17.593  0.00  0.00    +0.000 C 
ENDBRANCH   3   8
BRANCH   1  10
ATOM     10  C   UNL     1       0.393  11.583  20.577  0.00  0.00    +0.000 C 
BRANCH  10  17
ATOM     11  C   UNL     1      -4.085  11.120  18.067  0.00  0.00    +0.000 A 
ATOM     12  C   UNL     1      -3.891  12.069  19.079  0.00  0.00    +0.000 A 
ATOM     13  C   UNL     1      -2.605  12.463  19.444  0.00  0.00    +0.000 A 
ATOM     14  C   UNL     1      -1.492  11.866  18.837  0.00  0.00    +0.000 A 
ATOM     15  C   UNL     1      -1.685  10.927  17.812  0.00  0.00    +0.000 A 
ATOM     16  C   UNL     1      -2.976  10.565  17.399  0.00  0.00    +0.000 A 
ATOM     17  C   UNL     1      -0.105  12.295  19.280  0.00  0.00    +0.000 C 
ATOM     18  N   UNL     1       0.013  13.767  19.430  0.00  0.00    +0.000 NA
ATOM     19  C   UNL     1      -1.232  14.459  19.812  0.00  0.00    +0.000 C 
ATOM     20  C   UNL     1      -2.341  13.582  20.412  0.00  0.00    +0.000 C 
ATOM     21  H   UNL     1       0.303  14.145  18.528  0.00  0.00    +0.000 HD
BRANCH  11  23
ATOM     22  C   UNL     1      -6.288  10.808  18.903  0.00  0.00    +0.000 C 
ATOM     23  O   UNL     1      -5.411  10.898  17.788  0.00  0.00    +0.000 OA
ENDBRANCH  11  23
BRANCH  16  24
ATOM     24  O   UNL     1      -3.221   9.723  16.347  0.00  0.00    +0.000 OA
ATOM     25  C   UNL     1      -2.971  10.190  15.030  0.00  0.00    +0.000 C 
ENDBRANCH  16  24
ENDBRANCH  10  17
ENDBRANCH   1  10
BRANCH   4  26
ATOM     26  O   UNL     1       2.412   6.263  20.172  0.00  0.00    +0.000 OA
BRANCH  26  27
ATOM     27  C   UNL     1       1.581   5.120  19.999  0.00  0.00    +0.000 C 
BRANCH  27  28
ATOM     28  C   UNL     1       2.296   3.984  19.317  0.00  0.00    +0.000 A 
ATOM     29  C   UNL     1       3.546   3.565  19.794  0.00  0.00    +0.000 A 
ATOM     30  C   UNL     1       4.159   2.435  19.254  0.00  0.00    +0.000 A 
ATOM     31  C   UNL     1       3.525   1.720  18.245  0.00  0.00    +0.000 A 
ATOM     32  C   UNL     1       2.277   2.122  17.771  0.00  0.00    +0.000 A 
ATOM     33  C   UNL     1       1.659   3.254  18.309  0.00  0.00    +0.000 A 
ENDBRANCH  27  28
ENDBRANCH  26  27
ENDBRANCH   4  26
TORSDOF 8
ENDMDL
MODEL 8
REMARK VINA RESULT:      -8.0      4.551      9.278
REMARK  Name = 
REMARK  11 active torsions:
REMARK  status: ('A' for Active; 'I' for Inactive)
REMARK    1  A    between atoms: C_1  and  O_2
REMARK    2  A    between atoms: O_2  and  C_3
REMARK    3  A    between atoms: C_8  and  O_9
REMARK    4  A    between atoms: O_9  and  C_10
REMARK    5  A    between atoms: C_11  and  C_12
REMARK    6  A    between atoms: C_12  and  C_13
REMARK    7  A    between atoms: C_15  and  O_16
REMARK    8  A    between atoms: O_16  and  C_17
REMARK    9  A    between atoms: C_18  and  O_19
REMARK   10  A    between atoms: O_19  and  C_20
REMARK   11  A    between atoms: C_20  and  C_21
REMARK                            x       y       z     vdW  Elec       q    Type
REMARK                         _______ _______ _______ _____ _____    ______ ____
ROOT
ATOM      1  C   UNL     1       0.702  10.665  20.091  0.00  0.00    +0.000 A 
ATOM      2  C   UNL     1       1.267  10.222  18.877  0.00  0.00    +0.000 A 
ATOM      3  C   UNL     1       1.785   8.922  18.714  0.00  0.00    +0.000 A 
ATOM      4  C   UNL     1       1.847   8.078  19.827  0.00  0.00    +0.000 A 
ATOM      5  C   UNL     1       1.201   8.473  21.006  0.00  0.00    +0.000 A 
ATOM      6  C   UNL     1       0.598   9.730  21.129  0.00  0.00    +0.000 A 
ATOM      7 BR   UNL     1      -0.357  10.067  22.738  0.00  0.00    +0.000 Br
ENDROOT
BRANCH   3   8
ATOM      8  O   UNL     1       2.252   8.658  17.454  0.00  0.00    +0.000 OA
ATOM      9  C   UNL     1       3.445   7.873  17.377  0.00  0.00    +0.000 C 
ENDBRANCH   3   8
BRANCH   1  10
ATOM     10  C   UNL     1       0.227  12.105  20.202  0.00  0.00    +0.000 C 
BRANCH  10  17
ATOM     11  C   UNL     1       2.341  16.278  18.037  0.00  0.00    +0.000 A 
ATOM     12  C   UNL     1       1.147  16.339  18.768  0.00  0.00    +0.000 A 
ATOM     13  C   UNL     1       0.819  15.332  19.674  0.00  0.00    +0.000 A 
ATOM     14  C   UNL     1       1.657  14.219  19.816  0.00  0.00    +0.000 A 
ATOM     15  C   UNL     1       2.860  14.164  19.097  0.00  0.00    +0.000 A 
ATOM     16  C   UNL     1       3.227  15.199  18.224  0.00  0.00    +0.000 A 
ATOM     17  C   UNL     1       1.254  13.125  20.788  0.00  0.00    +0.000 C 
ATOM     18  N   UNL     1       0.754  13.666  22.077  0.00  0.00    +0.000 NA
ATOM     19  C   UNL     1       0.096  14.984  21.989  0.00  0.00    +0.000 C 
ATOM     20  C   UNL     1      -0.369  15.420  20.592  0.00  0.00    +0.000 C 
ATOM     21  H   UNL     1       1.557  13.772  22.698  0.00  0.00    +0.000 HD
BRANCH  11  23
ATOM     22  C   UNL     1       1.392  18.165  16.946  0.00  0.00    +0.000 C 
ATOM     23  O   UNL     1       2.540  17.381  17.243  0.00  0.00    +0.000 OA
ENDBRANCH  11  23
BRANCH  16  24
ATOM     24  O   UNL     1       4.427  15.238  17.566  0.00  0.00    +0.000 OA
ATOM     25  C   UNL     1       5.615  15.383  18.328  0.00  0.00    +0.000 C 
ENDBRANCH  16  24
ENDBRANCH  10  17
ENDBRANCH   1  10
BRANCH   4  26
ATOM     26  O   UNL     1       2.473   6.867  19.956  0.00  0.00    +0.000 OA
BRANCH  26  27
ATOM     27  C   UNL     1       1.730   5.781  20.501  0.00  0.00    +0.000 C 
BRANCH  27  28
ATOM     28  C   UNL     1       1.883   4.517  19.698  0.00  0.00    +0.000 A 
ATOM     29  C   UNL     1       0.902   3.520  19.780  0.00  0.00    +0.000 A 
ATOM     30  C   UNL     1       0.966   2.403  18.947  0.00  0.00    +0.000 A 
ATOM     31  C   UNL     1       2.002   2.283  18.030  0.00  0.00    +0.000 A 
ATOM     32  C   UNL     1       2.977   3.276  17.932  0.00  0.00    +0.000 A 
ATOM     33  C   UNL     1       2.917   4.396  18.764  0.00  0.00    +0.000 A 
ENDBRANCH  27  28
ENDBRANCH  26  27
ENDBRANCH   4  26
TORSDOF 8
ENDMDL
MODEL 9
REMARK VINA RESULT:      -7.8      3.768      9.114
REMARK  Name = 
REMARK  11 active torsions:
REMARK  status: ('A' for Active; 'I' for Inactive)
REMARK    1  A    between atoms: C_1  and  O_2
REMARK    2  A    between atoms: O_2  and  C_3
REMARK    3  A    between atoms: C_8  and  O_9
REMARK    4  A    between atoms: O_9  and  C_10
REMARK    5  A    between atoms: C_11  and  C_12
REMARK    6  A    between atoms: C_12  and  C_13
REMARK    7  A    between atoms: C_15  and  O_16
REMARK    8  A    between atoms: O_16  and  C_17
REMARK    9  A    between atoms: C_18  and  O_19
REMARK   10  A    between atoms: O_19  and  C_20
REMARK   11  A    between atoms: C_20  and  C_21
REMARK                            x       y       z     vdW  Elec       q    Type
REMARK                         _______ _______ _______ _____ _____    ______ ____
ROOT
ATOM      1  C   UNL     1       1.523   7.907  19.916  0.00  0.00    +0.000 A 
ATOM      2  C   UNL     1       1.523   6.798  20.788  0.00  0.00    +0.000 A 
ATOM      3  C   UNL     1       2.118   5.567  20.446  0.00  0.00    +0.000 A 
ATOM      4  C   UNL     1       2.624   5.401  19.153  0.00  0.00    +0.000 A 
ATOM      5  C   UNL     1       2.715   6.523  18.319  0.00  0.00    +0.000 A 
ATOM      6  C   UNL     1       2.212   7.770  18.705  0.00  0.00    +0.000 A 
ATOM      7 BR   UNL     1       2.535   9.225  17.525  0.00  0.00    +0.000 Br
ENDROOT
BRANCH   3   8
ATOM      8  O   UNL     1       2.058   4.621  21.435  0.00  0.00    +0.000 OA
ATOM      9  C   UNL     1       1.352   3.420  21.114  0.00  0.00    +0.000 C 
ENDBRANCH   3   8
BRANCH   1  10
ATOM     10  C   UNL     1       0.800   9.177  20.338  0.00  0.00    +0.000 C 
BRANCH  10  17
ATOM     11  C   UNL     1      -3.447  11.194  18.227  0.00  0.00    +0.000 A 
ATOM     12  C   UNL     1      -2.849  11.741  19.370  0.00  0.00    +0.000 A 
ATOM     13  C   UNL     1      -1.517  11.464  19.674  0.00  0.00    +0.000 A 
ATOM     14  C   UNL     1      -0.783  10.587  18.866  0.00  0.00    +0.000 A 
ATOM     15  C   UNL     1      -1.376  10.051  17.712  0.00  0.00    +0.000 A 
ATOM     16  C   UNL     1      -2.698  10.368  17.367  0.00  0.00    +0.000 A 
ATOM     17  C   UNL     1       0.655  10.281  19.243  0.00  0.00    +0.000 C 
ATOM     18  N   UNL     1       1.407  11.496  19.643  0.00  0.00    +0.000 NA
ATOM     19  C   UNL     1       0.594  12.561  20.262  0.00  0.00    +0.000 C 
ATOM     20  C   UNL     1      -0.782  12.140  20.798  0.00  0.00    +0.000 C 
ATOM     21  H   UNL     1       1.826  11.890  18.800  0.00  0.00    +0.000 HD
BRANCH  11  23
ATOM     22  C   UNL     1      -5.767  10.767  18.524  0.00  0.00    +0.000 C 
ATOM     23  O   UNL     1      -4.739  11.623  18.041  0.00  0.00    +0.000 OA
ENDBRANCH  11  23
BRANCH  16  24
ATOM     24  O   UNL     1      -3.295   9.945  16.210  0.00  0.00    +0.000 OA
ATOM     25  C   UNL     1      -2.901  10.543  14.984  0.00  0.00    +0.000 C 
ENDBRANCH  16  24
ENDBRANCH  10  17
ENDBRANCH   1  10
BRANCH   4  26
ATOM     26  O   UNL     1       3.063   4.258  18.541  0.00  0.00    +0.000 OA
BRANCH  26  27
ATOM     27  C   UNL     1       4.425   3.882  18.716  0.00  0.00    +0.000 C 
BRANCH  27  28
ATOM     28  C   UNL     1       5.279   4.235  17.528  0.00  0.00    +0.000 A 
ATOM     29  C   UNL     1       6.630   4.556  17.716  0.00  0.00    +0.000 A 
ATOM     30  C   UNL     1       7.461   4.759  16.615  0.00  0.00    +0.000 A 
ATOM     31  C   UNL     1       6.949   4.637  15.329  0.00  0.00    +0.000 A 
ATOM     32  C   UNL     1       5.608   4.307  15.131  0.00  0.00    +0.000 A 
ATOM     33  C   UNL     1       4.772   4.103  16.231  0.00  0.00    +0.000 A 
ENDBRANCH  27  28
ENDBRANCH  26  27
ENDBRANCH   4  26
TORSDOF 8
ENDMDL
