MODEL 1
REMARK VINA RESULT:      -7.3      0.000      0.000
REMARK  Name = 
REMARK  5 active torsions:
REMARK  status: ('A' for Active; 'I' for Inactive)
REMARK    1  A    between atoms: C_1  and  O_2
REMARK    2  A    between atoms: O_2  and  C_3
REMARK    3  A    between atoms: C_8  and  C_9
REMARK    4  A    between atoms: C_10  and  C_11
REMARK    5  A    between atoms: C_14  and  N_15
REMARK                            x       y       z     vdW  Elec       q    Type
REMARK                         _______ _______ _______ _____ _____    ______ ____
ROOT
ATOM      1  C   UNL     1      11.097  14.409  18.739  0.00  0.00    +0.000 A 
ATOM      2  C   UNL     1      11.603  13.795  19.891  0.00  0.00    +0.000 A 
ATOM      3  C   UNL     1      11.223  12.494  20.247  0.00  0.00    +0.000 A 
ATOM      4  C   UNL     1      10.322  11.806  19.420  0.00  0.00    +0.000 A 
ATOM      5  C   UNL     1       9.725  10.527  19.431  0.00  0.00    +0.000 A 
ATOM      6  C   UNL     1       8.907  10.417  18.312  0.00  0.00    +0.000 A 
ATOM      7  O   UNL     1       8.982  11.607  17.619  0.00  0.00    +0.000 OA
ATOM      8  C   UNL     1       9.836  12.435  18.286  0.00  0.00    +0.000 A 
ATOM      9  C   UNL     1      10.194  13.729  17.908  0.00  0.00    +0.000 A 
ENDROOT
BRANCH   1  11
ATOM     10  C   UNL     1      10.983  16.045  17.015  0.00  0.00    +0.000 C 
ATOM     11  O   UNL     1      11.418  15.674  18.320  0.00  0.00    +0.000 OA
ENDBRANCH   1  11
BRANCH   6  12
ATOM     12  C   UNL     1       8.131   9.284  17.945  0.00  0.00    +0.000 C 
ATOM     13  C   UNL     1       8.379   8.045  18.391  0.00  0.00    +0.000 C 
BRANCH  13  14
ATOM     14  C   UNL     1       7.549   6.890  18.003  0.00  0.00    +0.000 A 
ATOM     15  C   UNL     1       7.513   5.710  18.759  0.00  0.00    +0.000 A 
ATOM     16  C   UNL     1       6.750   4.612  18.343  0.00  0.00    +0.000 A 
ATOM     17  C   UNL     1       5.955   4.689  17.202  0.00  0.00    +0.000 A 
ATOM     18  C   UNL     1       6.001   5.855  16.437  0.00  0.00    +0.000 A 
ATOM     19  C   UNL     1       6.769   6.957  16.845  0.00  0.00    +0.000 A 
BRANCH  17  20
ATOM     20  N   UNL     1       5.319   3.542  16.712  0.00  0.00    +0.000 N 
ATOM     21  H   UNL     1       5.164   3.555  15.709  0.00  0.00    +0.000 HD
ATOM     22  H   UNL     1       5.739   2.674  17.028  0.00  0.00    +0.000 HD
ENDBRANCH  17  20
ENDBRANCH  13  14
ENDBRANCH   6  12
TORSDOF 4
ENDMDL
MODEL 2
REMARK VINA RESULT:      -7.3      4.092      9.113
REMARK  Name = 
REMARK  5 active torsions:
REMARK  status: ('A' for Active; 'I' for Inactive)
REMARK    1  A    between atoms: C_1  and  O_2
REMARK    2  A    between atoms: O_2  and  C_3
REMARK    3  A    between atoms: C_8  and  C_9
REMARK    4  A    between atoms: C_10  and  C_11
REMARK    5  A    between atoms: C_14  and  N_15
REMARK                            x       y       z     vdW  Elec       q    Type
REMARK                         _______ _______ _______ _____ _____    ______ ____
ROOT
ATOM      1  C   UNL     1       4.632   3.677  17.473  0.00  0.00    +0.000 A 
ATOM      2  C   UNL     1       4.727   4.069  16.133  0.00  0.00    +0.000 A 
ATOM      3  C   UNL     1       5.540   5.142  15.746  0.00  0.00    +0.000 A 
ATOM      4  C   UNL     1       6.270   5.822  16.732  0.00  0.00    +0.000 A 
ATOM      5  C   UNL     1       7.172   6.908  16.742  0.00  0.00    +0.000 A 
ATOM      6  C   UNL     1       7.583   7.122  18.054  0.00  0.00    +0.000 A 
ATOM      7  O   UNL     1       6.942   6.196  18.850  0.00  0.00    +0.000 OA
ATOM      8  C   UNL     1       6.160   5.416  18.052  0.00  0.00    +0.000 A 
ATOM      9  C   UNL     1       5.357   4.354  18.466  0.00  0.00    +0.000 A 
ENDROOT
BRANCH   1  11
ATOM     10  C   UNL     1       4.016   2.291  19.308  0.00  0.00    +0.000 C 
ATOM     11  O   UNL     1       3.863   2.640  17.936  0.00  0.00    +0.000 OA
ENDBRANCH   1  11
BRANCH   6  12
ATOM     12  C   UNL     1       8.497   8.116  18.498  0.00  0.00    +0.000 C 
ATOM     13  C   UNL     1       8.383   9.414  18.186  0.00  0.00    +0.000 C 
BRANCH  13  14
ATOM     14  C   UNL     1       9.340  10.425  18.671  0.00  0.00    +0.000 A 
ATOM     15  C   UNL     1       9.487  10.720  20.033  0.00  0.00    +0.000 A 
ATOM     16  C   UNL     1      10.372  11.716  20.462  0.00  0.00    +0.000 A 
ATOM     17  C   UNL     1      11.179  12.394  19.550  0.00  0.00    +0.000 A 
ATOM     18  C   UNL     1      11.024  12.115  18.191  0.00  0.00    +0.000 A 
ATOM     19  C   UNL     1      10.133  11.123  17.754  0.00  0.00    +0.000 A 
BRANCH  17  20
ATOM     20  N   UNL     1      11.944  13.488  19.969  0.00  0.00    +0.000 N 
ATOM     21  H   UNL     1      11.564  13.971  20.776  0.00  0.00    +0.000 HD
ATOM     22  H   UNL     1      12.932  13.281  20.073  0.00  0.00    +0.000 HD
ENDBRANCH  17  20
ENDBRANCH  13  14
ENDBRANCH   6  12
TORSDOF 4
ENDMDL
MODEL 3
REMARK VINA RESULT:      -7.3      1.037      1.620
REMARK  Name = 
REMARK  5 active torsions:
REMARK  status: ('A' for Active; 'I' for Inactive)
REMARK    1  A    between atoms: C_1  and  O_2
REMARK    2  A    between atoms: O_2  and  C_3
REMARK    3  A    between atoms: C_8  and  C_9
REMARK    4  A    between atoms: C_10  and  C_11
REMARK    5  A    between atoms: C_14  and  N_15
REMARK                            x       y       z     vdW  Elec       q    Type
REMARK                         _______ _______ _______ _____ _____    ______ ____
ROOT
ATOM      1  C   UNL     1      10.496  15.193  17.739  0.00  0.00    +0.000 A 
ATOM      2  C   UNL     1      11.692  14.817  18.361  0.00  0.00    +0.000 A 
ATOM      3  C   UNL     1      11.883  13.515  18.841  0.00  0.00    +0.000 A 
ATOM      4  C   UNL     1      10.849  12.580  18.682  0.00  0.00    +0.000 A 
ATOM      5  C   UNL     1      10.666  11.220  19.011  0.00  0.00    +0.000 A 
ATOM      6  C   UNL     1       9.401  10.833  18.581  0.00  0.00    +0.000 A 
ATOM      7  O   UNL     1       8.800  11.932  18.004  0.00  0.00    +0.000 OA
ATOM      8  C   UNL     1       9.674  12.976  18.063  0.00  0.00    +0.000 A 
ATOM      9  C   UNL     1       9.455  14.266  17.579  0.00  0.00    +0.000 A 
ENDROOT
BRANCH   1  11
ATOM     10  C   UNL     1      10.761  17.547  17.965  0.00  0.00    +0.000 C 
ATOM     11  O   UNL     1      10.229  16.442  17.241  0.00  0.00    +0.000 OA
ENDBRANCH   1  11
BRANCH   6  12
ATOM     12  C   UNL     1       8.827   9.540  18.712  0.00  0.00    +0.000 C 
ATOM     13  C   UNL     1       8.158   8.927  17.725  0.00  0.00    +0.000 C 
BRANCH  13  14
ATOM     14  C   UNL     1       7.583   7.579  17.885  0.00  0.00    +0.000 A 
ATOM     15  C   UNL     1       6.474   7.149  17.143  0.00  0.00    +0.000 A 
ATOM     16  C   UNL     1       5.921   5.879  17.347  0.00  0.00    +0.000 A 
ATOM     17  C   UNL     1       6.501   4.985  18.245  0.00  0.00    +0.000 A 
ATOM     18  C   UNL     1       7.596   5.415  18.997  0.00  0.00    +0.000 A 
ATOM     19  C   UNL     1       8.150   6.689  18.802  0.00  0.00    +0.000 A 
BRANCH  17  20
ATOM     20  N   UNL     1       5.856   3.782  18.552  0.00  0.00    +0.000 N 
ATOM     21  H   UNL     1       6.479   3.055  18.889  0.00  0.00    +0.000 HD
ATOM     22  H   UNL     1       5.038   3.894  19.142  0.00  0.00    +0.000 HD
ENDBRANCH  17  20
ENDBRANCH  13  14
ENDBRANCH   6  12
TORSDOF 4
ENDMDL
MODEL 4
REMARK VINA RESULT:      -7.2      3.934      8.778
REMARK  Name = 
REMARK  5 active torsions:
REMARK  status: ('A' for Active; 'I' for Inactive)
REMARK    1  A    between atoms: C_1  and  O_2
REMARK    2  A    between atoms: O_2  and  C_3
REMARK    3  A    between atoms: C_8  and  C_9
REMARK    4  A    between atoms: C_10  and  C_11
REMARK    5  A    between atoms: C_14  and  N_15
REMARK                            x       y       z     vdW  Elec       q    Type
REMARK                         _______ _______ _______ _____ _____    ______ ____
ROOT
ATOM      1  C   UNL     1       4.325   4.826  17.430  0.00  0.00    +0.000 A 
ATOM      2  C   UNL     1       5.231   4.045  18.156  0.00  0.00    +0.000 A 
ATOM      3  C   UNL     1       6.471   4.558  18.560  0.00  0.00    +0.000 A 
ATOM      4  C   UNL     1       6.792   5.883  18.226  0.00  0.00    +0.000 A 
ATOM      5  C   UNL     1       7.895   6.734  18.449  0.00  0.00    +0.000 A 
ATOM      6  C   UNL     1       7.619   7.967  17.869  0.00  0.00    +0.000 A 
ATOM      7  O   UNL     1       6.372   7.886  17.285  0.00  0.00    +0.000 OA
ATOM      8  C   UNL     1       5.879   6.635  17.507  0.00  0.00    +0.000 A 
ATOM      9  C   UNL     1       4.639   6.151  17.089  0.00  0.00    +0.000 A 
ENDROOT
BRANCH   1  11
ATOM     10  C   UNL     1       1.984   4.697  17.841  0.00  0.00    +0.000 C 
ATOM     11  O   UNL     1       3.094   4.403  16.998  0.00  0.00    +0.000 OA
ENDBRANCH   1  11
BRANCH   6  12
ATOM     12  C   UNL     1       8.467   9.108  17.873  0.00  0.00    +0.000 C 
ATOM     13  C   UNL     1       8.905   9.697  18.995  0.00  0.00    +0.000 C 
BRANCH  13  14
ATOM     14  C   UNL     1       9.793  10.873  18.970  0.00  0.00    +0.000 A 
ATOM     15  C   UNL     1      10.286  11.461  20.143  0.00  0.00    +0.000 A 
ATOM     16  C   UNL     1      11.093  12.604  20.091  0.00  0.00    +0.000 A 
ATOM     17  C   UNL     1      11.481  13.147  18.868  0.00  0.00    +0.000 A 
ATOM     18  C   UNL     1      10.979  12.575  17.698  0.00  0.00    +0.000 A 
ATOM     19  C   UNL     1      10.165  11.433  17.743  0.00  0.00    +0.000 A 
BRANCH  17  20
ATOM     20  N   UNL     1      12.157  14.371  18.828  0.00  0.00    +0.000 N 
ATOM     21  H   UNL     1      11.666  15.096  18.312  0.00  0.00    +0.000 HD
ATOM     22  H   UNL     1      12.478  14.693  19.735  0.00  0.00    +0.000 HD
ENDBRANCH  17  20
ENDBRANCH  13  14
ENDBRANCH   6  12
TORSDOF 4
ENDMDL
MODEL 5
REMARK VINA RESULT:      -7.2      0.700      1.208
REMARK  Name = 
REMARK  5 active torsions:
REMARK  status: ('A' for Active; 'I' for Inactive)
REMARK    1  A    between atoms: C_1  and  O_2
REMARK    2  A    between atoms: O_2  and  C_3
REMARK    3  A    between atoms: C_8  and  C_9
REMARK    4  A    between atoms: C_10  and  C_11
REMARK    5  A    between atoms: C_14  and  N_15
REMARK                            x       y       z     vdW  Elec       q    Type
REMARK                         _______ _______ _______ _____ _____    ______ ____
ROOT
ATOM      1  C   UNL     1      10.728  14.173  18.878  0.00  0.00    +0.000 A 
ATOM      2  C   UNL     1      11.329  13.509  19.954  0.00  0.00    +0.000 A 
ATOM      3  C   UNL     1      11.030  12.171  20.241  0.00  0.00    +0.000 A 
ATOM      4  C   UNL     1      10.112  11.496  19.421  0.00  0.00    +0.000 A 
ATOM      5  C   UNL     1       9.575  10.192  19.378  0.00  0.00    +0.000 A 
ATOM      6  C   UNL     1       8.696  10.117  18.303  0.00  0.00    +0.000 A 
ATOM      7  O   UNL     1       8.676  11.353  17.691  0.00  0.00    +0.000 OA
ATOM      8  C   UNL     1       9.531  12.175  18.362  0.00  0.00    +0.000 A 
ATOM      9  C   UNL     1       9.807  13.507  18.055  0.00  0.00    +0.000 A 
ENDROOT
BRANCH   1  11
ATOM     10  C   UNL     1      12.260  15.994  18.825  0.00  0.00    +0.000 C 
ATOM     11  O   UNL     1      10.966  15.478  18.529  0.00  0.00    +0.000 OA
ENDBRANCH   1  11
BRANCH   6  12
ATOM     12  C   UNL     1       7.951   8.974  17.904  0.00  0.00    +0.000 C 
ATOM     13  C   UNL     1       8.165   7.746  18.395  0.00  0.00    +0.000 C 
BRANCH  13  14
ATOM     14  C   UNL     1       7.368   6.580  17.971  0.00  0.00    +0.000 A 
ATOM     15  C   UNL     1       7.146   6.280  16.620  0.00  0.00    +0.000 A 
ATOM     16  C   UNL     1       6.349   5.192  16.246  0.00  0.00    +0.000 A 
ATOM     17  C   UNL     1       5.809   4.340  17.208  0.00  0.00    +0.000 A 
ATOM     18  C   UNL     1       6.014   4.645  18.555  0.00  0.00    +0.000 A 
ATOM     19  C   UNL     1       6.806   5.738  18.936  0.00  0.00    +0.000 A 
BRANCH  17  20
ATOM     20  N   UNL     1       4.893   3.351  16.833  0.00  0.00    +0.000 N 
ATOM     21  H   UNL     1       5.131   2.877  15.967  0.00  0.00    +0.000 HD
ATOM     22  H   UNL     1       4.664   2.701  17.578  0.00  0.00    +0.000 HD
ENDBRANCH  17  20
ENDBRANCH  13  14
ENDBRANCH   6  12
TORSDOF 4
ENDMDL
MODEL 6
REMARK VINA RESULT:      -7.2      3.907      8.911
REMARK  Name = 
REMARK  5 active torsions:
REMARK  status: ('A' for Active; 'I' for Inactive)
REMARK    1  A    between atoms: C_1  and  O_2
REMARK    2  A    between atoms: O_2  and  C_3
REMARK    3  A    between atoms: C_8  and  C_9
REMARK    4  A    between atoms: C_10  and  C_11
REMARK    5  A    between atoms: C_14  and  N_15
REMARK                            x       y       z     vdW  Elec       q    Type
REMARK                         _______ _______ _______ _____ _____    ______ ____
ROOT
ATOM      1  C   UNL     1       4.753   4.540  17.321  0.00  0.00    +0.000 A 
ATOM      2  C   UNL     1       5.550   4.026  18.350  0.00  0.00    +0.000 A 
ATOM      3  C   UNL     1       6.648   4.742  18.845  0.00  0.00    +0.000 A 
ATOM      4  C   UNL     1       6.937   5.999  18.291  0.00  0.00    +0.000 A 
ATOM      5  C   UNL     1       7.914   6.992  18.513  0.00  0.00    +0.000 A 
ATOM      6  C   UNL     1       7.674   8.044  17.636  0.00  0.00    +0.000 A 
ATOM      7  O   UNL     1       6.575   7.712  16.873  0.00  0.00    +0.000 OA
ATOM      8  C   UNL     1       6.134   6.485  17.273  0.00  0.00    +0.000 A 
ATOM      9  C   UNL     1       5.037   5.794  16.759  0.00  0.00    +0.000 A 
ENDROOT
BRANCH   1  11
ATOM     10  C   UNL     1       3.074   2.870  17.561  0.00  0.00    +0.000 C 
ATOM     11  O   UNL     1       3.663   3.907  16.782  0.00  0.00    +0.000 OA
ENDBRANCH   1  11
BRANCH   6  12
ATOM     12  C   UNL     1       8.425   9.248  17.540  0.00  0.00    +0.000 C 
ATOM     13  C   UNL     1       8.828   9.952  18.607  0.00  0.00    +0.000 C 
BRANCH  13  14
ATOM     14  C   UNL     1       9.615  11.192  18.478  0.00  0.00    +0.000 A 
ATOM     15  C   UNL     1       9.081  12.360  17.918  0.00  0.00    +0.000 A 
ATOM     16  C   UNL     1       9.864  13.510  17.768  0.00  0.00    +0.000 A 
ATOM     17  C   UNL     1      11.178  13.543  18.232  0.00  0.00    +0.000 A 
ATOM     18  C   UNL     1      11.720  12.376  18.775  0.00  0.00    +0.000 A 
ATOM     19  C   UNL     1      10.941  11.219  18.922  0.00  0.00    +0.000 A 
BRANCH  17  20
ATOM     20  N   UNL     1      11.997  14.639  17.941  0.00  0.00    +0.000 N 
ATOM     21  H   UNL     1      12.985  14.411  17.888  0.00  0.00    +0.000 HD
ATOM     22  H   UNL     1      11.684  15.186  17.146  0.00  0.00    +0.000 HD
ENDBRANCH  17  20
ENDBRANCH  13  14
ENDBRANCH   6  12
TORSDOF 4
ENDMDL
MODEL 7
REMARK VINA RESULT:      -7.1      7.548      9.797
REMARK  Name = 
REMARK  5 active torsions:
REMARK  status: ('A' for Active; 'I' for Inactive)
REMARK    1  A    between atoms: C_1  and  O_2
REMARK    2  A    between atoms: O_2  and  C_3
REMARK    3  A    between atoms: C_8  and  C_9
REMARK    4  A    between atoms: C_10  and  C_11
REMARK    5  A    between atoms: C_14  and  N_15
REMARK                            x       y       z     vdW  Elec       q    Type
REMARK                         _______ _______ _______ _____ _____    ______ ____
ROOT
ATOM      1  C   UNL     1       5.555   5.089  15.778  0.00  0.00    +0.000 A 
ATOM      2  C   UNL     1       4.946   3.980  16.377  0.00  0.00    +0.000 A 
ATOM      3  C   UNL     1       3.933   4.135  17.332  0.00  0.00    +0.000 A 
ATOM      4  C   UNL     1       3.531   5.434  17.681  0.00  0.00    +0.000 A 
ATOM      5  C   UNL     1       2.576   5.985  18.563  0.00  0.00    +0.000 A 
ATOM      6  C   UNL     1       2.639   7.371  18.462  0.00  0.00    +0.000 A 
ATOM      7  O   UNL     1       3.620   7.681  17.544  0.00  0.00    +0.000 OA
ATOM      8  C   UNL     1       4.149   6.515  17.075  0.00  0.00    +0.000 A 
ATOM      9  C   UNL     1       5.160   6.391  16.123  0.00  0.00    +0.000 A 
ENDROOT
BRANCH   1  11
ATOM     10  C   UNL     1       6.402   4.041  13.816  0.00  0.00    +0.000 C 
ATOM     11  O   UNL     1       6.549   5.025  14.836  0.00  0.00    +0.000 OA
ENDBRANCH   1  11
BRANCH   6  12
ATOM     12  C   UNL     1       1.838   8.303  19.176  0.00  0.00    +0.000 C 
ATOM     13  C   UNL     1       1.482   8.140  20.458  0.00  0.00    +0.000 C 
BRANCH  13  14
ATOM     14  C   UNL     1       0.660   9.130  21.177  0.00  0.00    +0.000 A 
ATOM     15  C   UNL     1       0.370   9.008  22.543  0.00  0.00    +0.000 A 
ATOM     16  C   UNL     1      -0.449   9.940  23.190  0.00  0.00    +0.000 A 
ATOM     17  C   UNL     1      -0.944  11.050  22.508  0.00  0.00    +0.000 A 
ATOM     18  C   UNL     1      -0.671  11.167  21.144  0.00  0.00    +0.000 A 
ATOM     19  C   UNL     1       0.144  10.232  20.488  0.00  0.00    +0.000 A 
BRANCH  17  20
ATOM     20  N   UNL     1      -1.882  11.888  23.120  0.00  0.00    +0.000 N 
ATOM     21  H   UNL     1      -1.641  12.874  23.080  0.00  0.00    +0.000 HD
ATOM     22  H   UNL     1      -2.839  11.713  22.832  0.00  0.00    +0.000 HD
ENDBRANCH  17  20
ENDBRANCH  13  14
ENDBRANCH   6  12
TORSDOF 4
ENDMDL
MODEL 8
REMARK VINA RESULT:      -7.1      1.290      2.118
REMARK  Name = 
REMARK  5 active torsions:
REMARK  status: ('A' for Active; 'I' for Inactive)
REMARK    1  A    between atoms: C_1  and  O_2
REMARK    2  A    between atoms: O_2  and  C_3
REMARK    3  A    between atoms: C_8  and  C_9
REMARK    4  A    between atoms: C_10  and  C_11
REMARK    5  A    between atoms: C_14  and  N_15
REMARK                            x       y       z     vdW  Elec       q    Type
REMARK                         _______ _______ _______ _____ _____    ______ ____
ROOT
ATOM      1  C   UNL     1      11.188  15.026  19.356  0.00  0.00    +0.000 A 
ATOM      2  C   UNL     1      11.545  14.868  18.011  0.00  0.00    +0.000 A 
ATOM      3  C   UNL     1      11.253  13.687  17.316  0.00  0.00    +0.000 A 
ATOM      4  C   UNL     1      10.585  12.655  17.994  0.00  0.00    +0.000 A 
ATOM      5  C   UNL     1      10.124  11.366  17.653  0.00  0.00    +0.000 A 
ATOM      6  C   UNL     1       9.516  10.810  18.774  0.00  0.00    +0.000 A 
ATOM      7  O   UNL     1       9.604  11.729  19.799  0.00  0.00    +0.000 OA
ATOM      8  C   UNL     1      10.242  12.835  19.324  0.00  0.00    +0.000 A 
ATOM      9  C   UNL     1      10.523  13.998  20.042  0.00  0.00    +0.000 A 
ENDROOT
BRANCH   1  11
ATOM     10  C   UNL     1      10.853  16.186  21.406  0.00  0.00    +0.000 C 
ATOM     11  O   UNL     1      11.434  16.147  20.107  0.00  0.00    +0.000 OA
ENDBRANCH   1  11
BRANCH   6  12
ATOM     12  C   UNL     1       8.911   9.525  18.853  0.00  0.00    +0.000 C 
ATOM     13  C   UNL     1       8.240   8.963  17.839  0.00  0.00    +0.000 C 
BRANCH  13  14
ATOM     14  C   UNL     1       7.633   7.623  17.945  0.00  0.00    +0.000 A 
ATOM     15  C   UNL     1       6.528   7.241  17.172  0.00  0.00    +0.000 A 
ATOM     16  C   UNL     1       5.945   5.979  17.325  0.00  0.00    +0.000 A 
ATOM     17  C   UNL     1       6.489   5.044  18.204  0.00  0.00    +0.000 A 
ATOM     18  C   UNL     1       7.579   5.425  18.987  0.00  0.00    +0.000 A 
ATOM     19  C   UNL     1       8.165   6.693  18.843  0.00  0.00    +0.000 A 
BRANCH  17  20
ATOM     20  N   UNL     1       5.813   3.846  18.461  0.00  0.00    +0.000 N 
ATOM     21  H   UNL     1       4.879   3.975  18.839  0.00  0.00    +0.000 HD
ATOM     22  H   UNL     1       5.829   3.191  17.687  0.00  0.00    +0.000 HD
ENDBRANCH  17  20
ENDBRANCH  13  14
ENDBRANCH   6  12
TORSDOF 4
ENDMDL
MODEL 9
REMARK VINA RESULT:      -7.1      4.044      9.122
REMARK  Name = 
REMARK  5 active torsions:
REMARK  status: ('A' for Active; 'I' for Inactive)
REMARK    1  A    between atoms: C_1  and  O_2
REMARK    2  A    between atoms: O_2  and  C_3
REMARK    3  A    between atoms: C_8  and  C_9
REMARK    4  A    between atoms: C_10  and  C_11
REMARK    5  A    between atoms: C_14  and  N_15
REMARK                            x       y       z     vdW  Elec       q    Type
REMARK                         _______ _______ _______ _____ _____    ______ ____
ROOT
ATOM      1  C   UNL     1       4.815   3.741  18.018  0.00  0.00    +0.000 A 
ATOM      2  C   UNL     1       4.532   4.257  16.748  0.00  0.00    +0.000 A 
ATOM      3  C   UNL     1       5.158   5.419  16.281  0.00  0.00    +0.000 A 
ATOM      4  C   UNL     1       6.088   6.064  17.111  0.00  0.00    +0.000 A 
ATOM      5  C   UNL     1       6.903   7.210  17.004  0.00  0.00    +0.000 A 
ATOM      6  C   UNL     1       7.634   7.338  18.180  0.00  0.00    +0.000 A 
ATOM      7  O   UNL     1       7.275   6.297  19.012  0.00  0.00    +0.000 OA
ATOM      8  C   UNL     1       6.351   5.534  18.364  0.00  0.00    +0.000 A 
ATOM      9  C   UNL     1       5.741   4.380  18.857  0.00  0.00    +0.000 A 
ENDROOT
BRANCH   1  11
ATOM     10  C   UNL     1       3.281   2.802  19.577  0.00  0.00    +0.000 C 
ATOM     11  O   UNL     1       4.250   2.610  18.550  0.00  0.00    +0.000 OA
ENDBRANCH   1  11
BRANCH   6  12
ATOM     12  C   UNL     1       8.581   8.355  18.476  0.00  0.00    +0.000 C 
ATOM     13  C   UNL     1       8.333   9.663  18.316  0.00  0.00    +0.000 C 
BRANCH  13  14
ATOM     14  C   UNL     1       9.330  10.698  18.643  0.00  0.00    +0.000 A 
ATOM     15  C   UNL     1      10.000  11.428  17.651  0.00  0.00    +0.000 A 
ATOM     16  C   UNL     1      10.974  12.374  17.989  0.00  0.00    +0.000 A 
ATOM     17  C   UNL     1      11.256  12.662  19.323  0.00  0.00    +0.000 A 
ATOM     18  C   UNL     1      10.604  11.926  20.313  0.00  0.00    +0.000 A 
ATOM     19  C   UNL     1       9.631  10.971  19.981  0.00  0.00    +0.000 A 
BRANCH  17  20
ATOM     20  N   UNL     1      12.333  13.494  19.648  0.00  0.00    +0.000 N 
ATOM     21  H   UNL     1      12.791  13.251  20.521  0.00  0.00    +0.000 HD
ATOM     22  H   UNL     1      12.994  13.625  18.889  0.00  0.00    +0.000 HD
ENDBRANCH  17  20
ENDBRANCH  13  14
ENDBRANCH   6  12
TORSDOF 4
ENDMDL
