MODEL 1
REMARK VINA RESULT:      -7.7      0.000      0.000
REMARK  Name = 
REMARK  10 active torsions:
REMARK  status: ('A' for Active; 'I' for Inactive)
REMARK    1  A    between atoms: C_1  and  C_2
REMARK    2  A    between atoms: C_7  and  C_8
REMARK    3  A    between atoms: C_8  and  C_9
REMARK    4  A    between atoms: C_8  and  C_10
REMARK    5  A    between atoms: C_8  and  C_11
REMARK    6  A    between atoms: C_11  and  C_12
REMARK    7  A    between atoms: C_12  and  O_13
REMARK    8  A    between atoms: C_12  and  C_14
REMARK    9  A    between atoms: C_12  and  C_26
REMARK   10  A    between atoms: C_14  and  N_15
REMARK                            x       y       z     vdW  Elec       q    Type
REMARK                         _______ _______ _______ _____ _____    ______ ____
ROOT
ATOM      1  C   UNL     1       2.525   5.719  19.335  0.00  0.00    +0.000 C 
ENDROOT
BRANCH   1   2
ATOM      2  C   UNL     1       1.848   4.667  20.304  0.00  0.00    +0.000 C 
ATOM      3  F   UNL     1       2.558   4.472  21.436  0.00  0.00    +0.000 F 
ATOM      4  F   UNL     1       0.609   5.067  20.694  0.00  0.00    +0.000 F 
ATOM      5  F   UNL     1       1.713   3.447  19.737  0.00  0.00    +0.000 F 
ENDBRANCH   1   2
BRANCH   1   6
ATOM      6  O   UNL     1       3.655   6.380  19.939  0.00  0.00    +0.000 OA
ATOM      7  H   UNL     1       3.365   7.235  20.304  0.00  0.00    +0.000 HD
ENDBRANCH   1   6
BRANCH   1   8
ATOM      8  C   UNL     1       3.100   4.897  18.123  0.00  0.00    +0.000 C 
BRANCH   8   9
ATOM      9  C   UNL     1       4.564   4.318  17.980  0.00  0.00    +0.000 C 
ATOM     10  C   UNL     1       4.538   3.284  16.819  0.00  0.00    +0.000 C 
ATOM     11  C   UNL     1       4.795   3.441  19.261  0.00  0.00    +0.000 C 
BRANCH   9  18
ATOM     12  C   UNL     1       4.955   6.775  15.959  0.00  0.00    +0.000 C 
ATOM     13  C   UNL     1       5.923   6.401  17.051  0.00  0.00    +0.000 A 
ATOM     14  C   UNL     1       6.980   7.329  17.239  0.00  0.00    +0.000 A 
ATOM     15  C   UNL     1       7.922   7.181  18.250  0.00  0.00    +0.000 A 
ATOM     16  C   UNL     1       7.837   6.083  19.082  0.00  0.00    +0.000 A 
ATOM     17  C   UNL     1       6.804   5.156  18.914  0.00  0.00    +0.000 A 
ATOM     18  C   UNL     1       5.795   5.278  17.919  0.00  0.00    +0.000 A 
ENDBRANCH   9  18
ENDBRANCH   8   9
ENDBRANCH   1   8
BRANCH   1  19
ATOM     19  C   UNL     1       1.417   6.758  18.957  0.00  0.00    +0.000 C 
BRANCH  19  20
ATOM     20  N   UNL     1       1.742   8.231  19.072  0.00  0.00    +0.000 N 
ATOM     21  C   UNL     1       2.209   8.993  18.010  0.00  0.00    +0.000 A 
ATOM     22  C   UNL     1       2.126  10.320  17.870  0.00  0.00    +0.000 A 
ATOM     23  C   UNL     1       1.432  11.100  18.908  0.00  0.00    +0.000 A 
ATOM     24  O   UNL     1       1.293  12.314  18.792  0.00  0.00    +0.000 OA
ATOM     25  C   UNL     1       0.931  10.346  20.080  0.00  0.00    +0.000 A 
ATOM     26  C   UNL     1       0.254  11.062  21.080  0.00  0.00    +0.000 A 
ATOM     27  C   UNL     1      -0.204  10.406  22.215  0.00  0.00    +0.000 A 
ATOM     28  C   UNL     1       0.069   9.050  22.373  0.00  0.00    +0.000 A 
ATOM     29  C   UNL     1       0.743   8.332  21.370  0.00  0.00    +0.000 A 
ATOM     30  C   UNL     1       1.138   8.942  20.165  0.00  0.00    +0.000 A 
ENDBRANCH  19  20
ENDBRANCH   1  19
TORSDOF 7
ENDMDL
MODEL 2
REMARK VINA RESULT:      -7.6      2.461      6.233
REMARK  Name = 
REMARK  10 active torsions:
REMARK  status: ('A' for Active; 'I' for Inactive)
REMARK    1  A    between atoms: C_1  and  C_2
REMARK    2  A    between atoms: C_7  and  C_8
REMARK    3  A    between atoms: C_8  and  C_9
REMARK    4  A    between atoms: C_8  and  C_10
REMARK    5  A    between atoms: C_8  and  C_11
REMARK    6  A    between atoms: C_11  and  C_12
REMARK    7  A    between atoms: C_12  and  O_13
REMARK    8  A    between atoms: C_12  and  C_14
REMARK    9  A    between atoms: C_12  and  C_26
REMARK   10  A    between atoms: C_14  and  N_15
REMARK                            x       y       z     vdW  Elec       q    Type
REMARK                         _______ _______ _______ _____ _____    ______ ____
ROOT
ATOM      1  C   UNL     1       2.200   3.933  18.239  0.00  0.00    +0.000 C 
ENDROOT
BRANCH   1   2
ATOM      2  C   UNL     1       1.307   3.357  19.412  0.00  0.00    +0.000 C 
ATOM      3  F   UNL     1       0.400   2.455  18.979  0.00  0.00    +0.000 F 
ATOM      4  F   UNL     1       2.057   2.723  20.351  0.00  0.00    +0.000 F 
ATOM      5  F   UNL     1       0.600   4.318  20.048  0.00  0.00    +0.000 F 
ENDBRANCH   1   2
BRANCH   1   6
ATOM      6  O   UNL     1       1.847   3.382  16.954  0.00  0.00    +0.000 OA
ATOM      7  H   UNL     1       2.567   2.801  16.648  0.00  0.00    +0.000 HD
ENDBRANCH   1   6
BRANCH   1   8
ATOM      8  C   UNL     1       1.880   5.471  18.155  0.00  0.00    +0.000 C 
BRANCH   8   9
ATOM      9  C   UNL     1       2.622   6.636  18.922  0.00  0.00    +0.000 C 
ATOM     10  C   UNL     1       3.725   7.184  17.971  0.00  0.00    +0.000 C 
ATOM     11  C   UNL     1       3.429   5.936  20.070  0.00  0.00    +0.000 C 
BRANCH   9  18
ATOM     12  C   UNL     1       1.765   9.447  17.639  0.00  0.00    +0.000 C 
ATOM     13  C   UNL     1       1.387   8.984  19.022  0.00  0.00    +0.000 A 
ATOM     14  C   UNL     1       0.465   9.831  19.690  0.00  0.00    +0.000 A 
ATOM     15  C   UNL     1      -0.050   9.521  20.943  0.00  0.00    +0.000 A 
ATOM     16  C   UNL     1       0.369   8.363  21.566  0.00  0.00    +0.000 A 
ATOM     17  C   UNL     1       1.278   7.514  20.926  0.00  0.00    +0.000 A 
ATOM     18  C   UNL     1       1.808   7.766  19.630  0.00  0.00    +0.000 A 
ENDBRANCH   9  18
ENDBRANCH   8   9
ENDBRANCH   1   8
BRANCH   1  19
ATOM     19  C   UNL     1       3.684   3.589  18.597  0.00  0.00    +0.000 C 
BRANCH  19  20
ATOM     20  N   UNL     1       4.748   3.813  17.544  0.00  0.00    +0.000 N 
ATOM     21  C   UNL     1       4.529   3.622  16.188  0.00  0.00    +0.000 A 
ATOM     22  C   UNL     1       5.208   4.168  15.174  0.00  0.00    +0.000 A 
ATOM     23  C   UNL     1       6.290   5.120  15.478  0.00  0.00    +0.000 A 
ATOM     24  O   UNL     1       6.906   5.680  14.575  0.00  0.00    +0.000 OA
ATOM     25  C   UNL     1       6.588   5.348  16.911  0.00  0.00    +0.000 A 
ATOM     26  C   UNL     1       7.607   6.261  17.232  0.00  0.00    +0.000 A 
ATOM     27  C   UNL     1       7.947   6.483  18.559  0.00  0.00    +0.000 A 
ATOM     28  C   UNL     1       7.311   5.748  19.556  0.00  0.00    +0.000 A 
ATOM     29  C   UNL     1       6.289   4.838  19.236  0.00  0.00    +0.000 A 
ATOM     30  C   UNL     1       5.852   4.657  17.911  0.00  0.00    +0.000 A 
ENDBRANCH  19  20
ENDBRANCH   1  19
TORSDOF 7
ENDMDL
MODEL 3
REMARK VINA RESULT:      -7.5      1.544      2.395
REMARK  Name = 
REMARK  10 active torsions:
REMARK  status: ('A' for Active; 'I' for Inactive)
REMARK    1  A    between atoms: C_1  and  C_2
REMARK    2  A    between atoms: C_7  and  C_8
REMARK    3  A    between atoms: C_8  and  C_9
REMARK    4  A    between atoms: C_8  and  C_10
REMARK    5  A    between atoms: C_8  and  C_11
REMARK    6  A    between atoms: C_11  and  C_12
REMARK    7  A    between atoms: C_12  and  O_13
REMARK    8  A    between atoms: C_12  and  C_14
REMARK    9  A    between atoms: C_12  and  C_26
REMARK   10  A    between atoms: C_14  and  N_15
REMARK                            x       y       z     vdW  Elec       q    Type
REMARK                         _______ _______ _______ _____ _____    ______ ____
ROOT
ATOM      1  C   UNL     1       2.331   4.251  20.390  0.00  0.00    +0.000 C 
ENDROOT
BRANCH   1   2
ATOM      2  C   UNL     1       1.388   3.024  20.724  0.00  0.00    +0.000 C 
ATOM      3  F   UNL     1       0.218   3.072  20.051  0.00  0.00    +0.000 F 
ATOM      4  F   UNL     1       1.969   1.841  20.396  0.00  0.00    +0.000 F 
ATOM      5  F   UNL     1       1.061   2.960  22.034  0.00  0.00    +0.000 F 
ENDBRANCH   1   2
BRANCH   1   6
ATOM      6  O   UNL     1       2.848   4.889  21.576  0.00  0.00    +0.000 OA
ATOM      7  H   UNL     1       2.586   5.827  21.572  0.00  0.00    +0.000 HD
ENDBRANCH   1   6
BRANCH   1   8
ATOM      8  C   UNL     1       3.578   3.658  19.637  0.00  0.00    +0.000 C 
BRANCH   8   9
ATOM      9  C   UNL     1       3.705   3.380  18.087  0.00  0.00    +0.000 C 
ATOM     10  C   UNL     1       2.284   3.531  17.475  0.00  0.00    +0.000 C 
ATOM     11  C   UNL     1       4.010   1.847  17.958  0.00  0.00    +0.000 C 
BRANCH   9  18
ATOM     12  C   UNL     1       6.039   5.267  19.215  0.00  0.00    +0.000 C 
ATOM     13  C   UNL     1       5.877   4.873  17.770  0.00  0.00    +0.000 A 
ATOM     14  C   UNL     1       6.949   5.276  16.931  0.00  0.00    +0.000 A 
ATOM     15  C   UNL     1       7.002   4.934  15.585  0.00  0.00    +0.000 A 
ATOM     16  C   UNL     1       5.966   4.200  15.043  0.00  0.00    +0.000 A 
ATOM     17  C   UNL     1       4.900   3.794  15.851  0.00  0.00    +0.000 A 
ATOM     18  C   UNL     1       4.814   4.086  17.241  0.00  0.00    +0.000 A 
ENDBRANCH   9  18
ENDBRANCH   8   9
ENDBRANCH   1   8
BRANCH   1  19
ATOM     19  C   UNL     1       1.475   5.258  19.552  0.00  0.00    +0.000 C 
BRANCH  19  20
ATOM     20  N   UNL     1       2.049   6.631  19.272  0.00  0.00    +0.000 N 
ATOM     21  C   UNL     1       2.802   6.925  18.144  0.00  0.00    +0.000 A 
ATOM     22  C   UNL     1       2.990   8.127  17.588  0.00  0.00    +0.000 A 
ATOM     23  C   UNL     1       2.306   9.292  18.174  0.00  0.00    +0.000 A 
ATOM     24  O   UNL     1       2.415  10.404  17.665  0.00  0.00    +0.000 OA
ATOM     25  C   UNL     1       1.504   9.046  19.395  0.00  0.00    +0.000 A 
ATOM     26  C   UNL     1       0.831  10.137  19.968  0.00  0.00    +0.000 A 
ATOM     27  C   UNL     1       0.095   9.964  21.133  0.00  0.00    +0.000 A 
ATOM     28  C   UNL     1       0.085   8.718  21.751  0.00  0.00    +0.000 A 
ATOM     29  C   UNL     1       0.755   7.625  21.176  0.00  0.00    +0.000 A 
ATOM     30  C   UNL     1       1.432   7.738  19.947  0.00  0.00    +0.000 A 
ENDBRANCH  19  20
ENDBRANCH   1  19
TORSDOF 7
ENDMDL
MODEL 4
REMARK VINA RESULT:      -7.5      0.895      1.210
REMARK  Name = 
REMARK  10 active torsions:
REMARK  status: ('A' for Active; 'I' for Inactive)
REMARK    1  A    between atoms: C_1  and  C_2
REMARK    2  A    between atoms: C_7  and  C_8
REMARK    3  A    between atoms: C_8  and  C_9
REMARK    4  A    between atoms: C_8  and  C_10
REMARK    5  A    between atoms: C_8  and  C_11
REMARK    6  A    between atoms: C_11  and  C_12
REMARK    7  A    between atoms: C_12  and  O_13
REMARK    8  A    between atoms: C_12  and  C_14
REMARK    9  A    between atoms: C_12  and  C_26
REMARK   10  A    between atoms: C_14  and  N_15
REMARK                            x       y       z     vdW  Elec       q    Type
REMARK                         _______ _______ _______ _____ _____    ______ ____
ROOT
ATOM      1  C   UNL     1       2.430   4.931  20.080  0.00  0.00    +0.000 C 
ENDROOT
BRANCH   1   2
ATOM      2  C   UNL     1       1.471   3.673  20.020  0.00  0.00    +0.000 C 
ATOM      3  F   UNL     1       1.388   3.142  18.781  0.00  0.00    +0.000 F 
ATOM      4  F   UNL     1       1.899   2.675  20.836  0.00  0.00    +0.000 F 
ATOM      5  F   UNL     1       0.202   3.969  20.382  0.00  0.00    +0.000 F 
ENDBRANCH   1   2
BRANCH   1   6
ATOM      6  O   UNL     1       3.561   4.722  20.950  0.00  0.00    +0.000 OA
ATOM      7  H   UNL     1       3.394   5.166  21.801  0.00  0.00    +0.000 HD
ENDBRANCH   1   6
BRANCH   1   8
ATOM      8  C   UNL     1       3.022   5.103  18.633  0.00  0.00    +0.000 C 
BRANCH   8   9
ATOM      9  C   UNL     1       4.364   4.480  18.078  0.00  0.00    +0.000 C 
ATOM     10  C   UNL     1       4.023   3.774  16.735  0.00  0.00    +0.000 C 
ATOM     11  C   UNL     1       4.710   3.296  19.048  0.00  0.00    +0.000 C 
BRANCH   9  18
ATOM     12  C   UNL     1       4.939   6.890  16.043  0.00  0.00    +0.000 C 
ATOM     13  C   UNL     1       5.881   6.443  17.131  0.00  0.00    +0.000 A 
ATOM     14  C   UNL     1       7.010   7.283  17.309  0.00  0.00    +0.000 A 
ATOM     15  C   UNL     1       7.944   7.064  18.314  0.00  0.00    +0.000 A 
ATOM     16  C   UNL     1       7.777   5.979  19.152  0.00  0.00    +0.000 A 
ATOM     17  C   UNL     1       6.671   5.138  18.994  0.00  0.00    +0.000 A 
ATOM     18  C   UNL     1       5.669   5.337  18.005  0.00  0.00    +0.000 A 
ENDBRANCH   9  18
ENDBRANCH   8   9
ENDBRANCH   1   8
BRANCH   1  19
ATOM     19  C   UNL     1       1.563   6.132  20.583  0.00  0.00    +0.000 C 
BRANCH  19  20
ATOM     20  N   UNL     1       1.856   7.511  20.033  0.00  0.00    +0.000 N 
ATOM     21  C   UNL     1       2.318   7.734  18.744  0.00  0.00    +0.000 A 
ATOM     22  C   UNL     1       2.209   8.859  18.029  0.00  0.00    +0.000 A 
ATOM     23  C   UNL     1       1.487  10.002  18.613  0.00  0.00    +0.000 A 
ATOM     24  O   UNL     1       1.324  11.035  17.970  0.00  0.00    +0.000 OA
ATOM     25  C   UNL     1       0.988   9.833  19.998  0.00  0.00    +0.000 A 
ATOM     26  C   UNL     1       0.285  10.903  20.576  0.00  0.00    +0.000 A 
ATOM     27  C   UNL     1      -0.172  10.806  21.883  0.00  0.00    +0.000 A 
ATOM     28  C   UNL     1       0.129   9.668  22.626  0.00  0.00    +0.000 A 
ATOM     29  C   UNL     1       0.829   8.597  22.047  0.00  0.00    +0.000 A 
ATOM     30  C   UNL     1       1.224   8.618  20.697  0.00  0.00    +0.000 A 
ENDBRANCH  19  20
ENDBRANCH   1  19
TORSDOF 7
ENDMDL
MODEL 5
REMARK VINA RESULT:      -7.4      2.294      6.172
REMARK  Name = 
REMARK  10 active torsions:
REMARK  status: ('A' for Active; 'I' for Inactive)
REMARK    1  A    between atoms: C_1  and  C_2
REMARK    2  A    between atoms: C_7  and  C_8
REMARK    3  A    between atoms: C_8  and  C_9
REMARK    4  A    between atoms: C_8  and  C_10
REMARK    5  A    between atoms: C_8  and  C_11
REMARK    6  A    between atoms: C_11  and  C_12
REMARK    7  A    between atoms: C_12  and  O_13
REMARK    8  A    between atoms: C_12  and  C_14
REMARK    9  A    between atoms: C_12  and  C_26
REMARK   10  A    between atoms: C_14  and  N_15
REMARK                            x       y       z     vdW  Elec       q    Type
REMARK                         _______ _______ _______ _____ _____    ______ ____
ROOT
ATOM      1  C   UNL     1       3.036   3.903  19.643  0.00  0.00    +0.000 C 
ENDROOT
BRANCH   1   2
ATOM      2  C   UNL     1       2.556   3.232  20.994  0.00  0.00    +0.000 C 
ATOM      3  F   UNL     1       1.395   2.557  20.855  0.00  0.00    +0.000 F 
ATOM      4  F   UNL     1       3.465   2.335  21.460  0.00  0.00    +0.000 F 
ATOM      5  F   UNL     1       2.345   4.135  21.978  0.00  0.00    +0.000 F 
ENDBRANCH   1   2
BRANCH   1   6
ATOM      6  O   UNL     1       2.070   3.757  18.581  0.00  0.00    +0.000 OA
ATOM      7  H   UNL     1       2.121   2.851  18.227  0.00  0.00    +0.000 HD
ENDBRANCH   1   6
BRANCH   1   8
ATOM      8  C   UNL     1       3.138   5.447  19.929  0.00  0.00    +0.000 C 
BRANCH   8   9
ATOM      9  C   UNL     1       2.532   6.614  19.052  0.00  0.00    +0.000 C 
ATOM     10  C   UNL     1       1.674   5.954  17.936  0.00  0.00    +0.000 C 
ATOM     11  C   UNL     1       3.749   7.231  18.276  0.00  0.00    +0.000 C 
BRANCH   9  18
ATOM     12  C   UNL     1       1.814   9.409  17.655  0.00  0.00    +0.000 C 
ATOM     13  C   UNL     1       1.463   9.044  19.073  0.00  0.00    +0.000 A 
ATOM     14  C   UNL     1       0.627   9.985  19.729  0.00  0.00    +0.000 A 
ATOM     15  C   UNL     1       0.144   9.774  21.015  0.00  0.00    +0.000 A 
ATOM     16  C   UNL     1       0.509   8.623  21.682  0.00  0.00    +0.000 A 
ATOM     17  C   UNL     1       1.332   7.682  21.055  0.00  0.00    +0.000 A 
ATOM     18  C   UNL     1       1.825   7.832  19.729  0.00  0.00    +0.000 A 
ENDBRANCH   9  18
ENDBRANCH   8   9
ENDBRANCH   1   8
BRANCH   1  19
ATOM     19  C   UNL     1       4.387   3.215  19.257  0.00  0.00    +0.000 C 
BRANCH  19  20
ATOM     20  N   UNL     1       5.097   3.678  18.003  0.00  0.00    +0.000 N 
ATOM     21  C   UNL     1       4.574   3.518  16.728  0.00  0.00    +0.000 A 
ATOM     22  C   UNL     1       4.875   4.227  15.635  0.00  0.00    +0.000 A 
ATOM     23  C   UNL     1       5.830   5.341  15.755  0.00  0.00    +0.000 A 
ATOM     24  O   UNL     1       6.096   6.046  14.786  0.00  0.00    +0.000 OA
ATOM     25  C   UNL     1       6.442   5.549  17.089  0.00  0.00    +0.000 A 
ATOM     26  C   UNL     1       7.347   6.613  17.236  0.00  0.00    +0.000 A 
ATOM     27  C   UNL     1       7.973   6.828  18.456  0.00  0.00    +0.000 A 
ATOM     28  C   UNL     1       7.739   5.942  19.505  0.00  0.00    +0.000 A 
ATOM     29  C   UNL     1       6.831   4.880  19.359  0.00  0.00    +0.000 A 
ATOM     30  C   UNL     1       6.106   4.688  18.168  0.00  0.00    +0.000 A 
ENDBRANCH  19  20
ENDBRANCH   1  19
TORSDOF 7
ENDMDL
MODEL 6
REMARK VINA RESULT:      -7.2      2.199      6.173
REMARK  Name = 
REMARK  10 active torsions:
REMARK  status: ('A' for Active; 'I' for Inactive)
REMARK    1  A    between atoms: C_1  and  C_2
REMARK    2  A    between atoms: C_7  and  C_8
REMARK    3  A    between atoms: C_8  and  C_9
REMARK    4  A    between atoms: C_8  and  C_10
REMARK    5  A    between atoms: C_8  and  C_11
REMARK    6  A    between atoms: C_11  and  C_12
REMARK    7  A    between atoms: C_12  and  O_13
REMARK    8  A    between atoms: C_12  and  C_14
REMARK    9  A    between atoms: C_12  and  C_26
REMARK   10  A    between atoms: C_14  and  N_15
REMARK                            x       y       z     vdW  Elec       q    Type
REMARK                         _______ _______ _______ _____ _____    ______ ____
ROOT
ATOM      1  C   UNL     1       2.810   4.368  19.561  0.00  0.00    +0.000 C 
ENDROOT
BRANCH   1   2
ATOM      2  C   UNL     1       2.223   3.912  20.958  0.00  0.00    +0.000 C 
ATOM      3  F   UNL     1       2.695   2.709  21.351  0.00  0.00    +0.000 F 
ATOM      4  F   UNL     1       2.540   4.788  21.947  0.00  0.00    +0.000 F 
ATOM      5  F   UNL     1       0.877   3.796  20.944  0.00  0.00    +0.000 F 
ENDBRANCH   1   2
BRANCH   1   6
ATOM      6  O   UNL     1       1.930   4.052  18.463  0.00  0.00    +0.000 OA
ATOM      7  H   UNL     1       1.234   3.447  18.777  0.00  0.00    +0.000 HD
ENDBRANCH   1   6
BRANCH   1   8
ATOM      8  C   UNL     1       2.898   5.938  19.610  0.00  0.00    +0.000 C 
BRANCH   8   9
ATOM      9  C   UNL     1       2.407   6.949  18.499  0.00  0.00    +0.000 C 
ATOM     10  C   UNL     1       1.533   6.143  17.497  0.00  0.00    +0.000 C 
ATOM     11  C   UNL     1       3.688   7.317  17.670  0.00  0.00    +0.000 C 
BRANCH   9  18
ATOM     12  C   UNL     1       1.023   7.659  21.302  0.00  0.00    +0.000 C 
ATOM     13  C   UNL     1       1.217   8.633  20.170  0.00  0.00    +0.000 A 
ATOM     14  C   UNL     1       0.878   9.974  20.489  0.00  0.00    +0.000 A 
ATOM     15  C   UNL     1       1.063  11.017  19.590  0.00  0.00    +0.000 A 
ATOM     16  C   UNL     1       1.571  10.734  18.338  0.00  0.00    +0.000 A 
ATOM     17  C   UNL     1       1.911   9.420  18.003  0.00  0.00    +0.000 A 
ATOM     18  C   UNL     1       1.775   8.321  18.897  0.00  0.00    +0.000 A 
ENDBRANCH   9  18
ENDBRANCH   8   9
ENDBRANCH   1   8
BRANCH   1  19
ATOM     19  C   UNL     1       4.184   3.638  19.393  0.00  0.00    +0.000 C 
BRANCH  19  20
ATOM     20  N   UNL     1       4.988   3.897  18.137  0.00  0.00    +0.000 N 
ATOM     21  C   UNL     1       4.520   3.615  16.862  0.00  0.00    +0.000 A 
ATOM     22  C   UNL     1       4.925   4.163  15.712  0.00  0.00    +0.000 A 
ATOM     23  C   UNL     1       5.948   5.222  15.754  0.00  0.00    +0.000 A 
ATOM     24  O   UNL     1       6.312   5.783  14.725  0.00  0.00    +0.000 OA
ATOM     25  C   UNL     1       6.505   5.552  17.087  0.00  0.00    +0.000 A 
ATOM     26  C   UNL     1       7.473   6.567  17.159  0.00  0.00    +0.000 A 
ATOM     27  C   UNL     1       8.050   6.890  18.380  0.00  0.00    +0.000 A 
ATOM     28  C   UNL     1       7.702   6.157  19.511  0.00  0.00    +0.000 A 
ATOM     29  C   UNL     1       6.730   5.144  19.440  0.00  0.00    +0.000 A 
ATOM     30  C   UNL     1       6.055   4.854  18.240  0.00  0.00    +0.000 A 
ENDBRANCH  19  20
ENDBRANCH   1  19
TORSDOF 7
ENDMDL
MODEL 7
REMARK VINA RESULT:      -7.1      2.617      6.021
REMARK  Name = 
REMARK  10 active torsions:
REMARK  status: ('A' for Active; 'I' for Inactive)
REMARK    1  A    between atoms: C_1  and  C_2
REMARK    2  A    between atoms: C_7  and  C_8
REMARK    3  A    between atoms: C_8  and  C_9
REMARK    4  A    between atoms: C_8  and  C_10
REMARK    5  A    between atoms: C_8  and  C_11
REMARK    6  A    between atoms: C_11  and  C_12
REMARK    7  A    between atoms: C_12  and  O_13
REMARK    8  A    between atoms: C_12  and  C_14
REMARK    9  A    between atoms: C_12  and  C_26
REMARK   10  A    between atoms: C_14  and  N_15
REMARK                            x       y       z     vdW  Elec       q    Type
REMARK                         _______ _______ _______ _____ _____    ______ ____
ROOT
ATOM      1  C   UNL     1       2.525   3.435  18.328  0.00  0.00    +0.000 C 
ENDROOT
BRANCH   1   2
ATOM      2  C   UNL     1       1.800   2.516  19.394  0.00  0.00    +0.000 C 
ATOM      3  F   UNL     1       2.298   2.674  20.639  0.00  0.00    +0.000 F 
ATOM      4  F   UNL     1       0.473   2.792  19.475  0.00  0.00    +0.000 F 
ATOM      5  F   UNL     1       1.918   1.199  19.112  0.00  0.00    +0.000 F 
ENDBRANCH   1   2
BRANCH   1   6
ATOM      6  O   UNL     1       2.261   3.021  16.972  0.00  0.00    +0.000 OA
ATOM      7  H   UNL     1       2.446   3.766  16.371  0.00  0.00    +0.000 HD
ENDBRANCH   1   6
BRANCH   1   8
ATOM      8  C   UNL     1       1.891   4.867  18.476  0.00  0.00    +0.000 C 
BRANCH   8   9
ATOM      9  C   UNL     1       2.244   5.951  19.571  0.00  0.00    +0.000 C 
ATOM     10  C   UNL     1       3.623   5.561  20.176  0.00  0.00    +0.000 C 
ATOM     11  C   UNL     1       1.234   5.705  20.746  0.00  0.00    +0.000 C 
BRANCH   9  18
ATOM     12  C   UNL     1       3.542   7.464  17.060  0.00  0.00    +0.000 C 
ATOM     13  C   UNL     1       2.663   8.117  18.094  0.00  0.00    +0.000 A 
ATOM     14  C   UNL     1       2.302   9.456  17.793  0.00  0.00    +0.000 A 
ATOM     15  C   UNL     1       1.437  10.187  18.598  0.00  0.00    +0.000 A 
ATOM     16  C   UNL     1       0.932   9.597  19.739  0.00  0.00    +0.000 A 
ATOM     17  C   UNL     1       1.274   8.279  20.055  0.00  0.00    +0.000 A 
ATOM     18  C   UNL     1       2.126   7.475  19.248  0.00  0.00    +0.000 A 
ENDBRANCH   9  18
ENDBRANCH   8   9
ENDBRANCH   1   8
BRANCH   1  19
ATOM     19  C   UNL     1       4.057   3.359  18.639  0.00  0.00    +0.000 C 
BRANCH  19  20
ATOM     20  N   UNL     1       5.033   3.701  17.535  0.00  0.00    +0.000 N 
ATOM     21  C   UNL     1       4.775   3.468  16.191  0.00  0.00    +0.000 A 
ATOM     22  C   UNL     1       5.332   4.083  15.142  0.00  0.00    +0.000 A 
ATOM     23  C   UNL     1       6.299   5.165  15.388  0.00  0.00    +0.000 A 
ATOM     24  O   UNL     1       6.796   5.786  14.453  0.00  0.00    +0.000 OA
ATOM     25  C   UNL     1       6.635   5.446  16.803  0.00  0.00    +0.000 A 
ATOM     26  C   UNL     1       7.545   6.482  17.068  0.00  0.00    +0.000 A 
ATOM     27  C   UNL     1       7.918   6.761  18.376  0.00  0.00    +0.000 A 
ATOM     28  C   UNL     1       7.427   5.964  19.407  0.00  0.00    +0.000 A 
ATOM     29  C   UNL     1       6.512   4.931  19.143  0.00  0.00    +0.000 A 
ATOM     30  C   UNL     1       6.038   4.680  17.842  0.00  0.00    +0.000 A 
ENDBRANCH  19  20
ENDBRANCH   1  19
TORSDOF 7
ENDMDL
MODEL 8
REMARK VINA RESULT:      -7.1      2.459      6.233
REMARK  Name = 
REMARK  10 active torsions:
REMARK  status: ('A' for Active; 'I' for Inactive)
REMARK    1  A    between atoms: C_1  and  C_2
REMARK    2  A    between atoms: C_7  and  C_8
REMARK    3  A    between atoms: C_8  and  C_9
REMARK    4  A    between atoms: C_8  and  C_10
REMARK    5  A    between atoms: C_8  and  C_11
REMARK    6  A    between atoms: C_11  and  C_12
REMARK    7  A    between atoms: C_12  and  O_13
REMARK    8  A    between atoms: C_12  and  C_14
REMARK    9  A    between atoms: C_12  and  C_26
REMARK   10  A    between atoms: C_14  and  N_15
REMARK                            x       y       z     vdW  Elec       q    Type
REMARK                         _______ _______ _______ _____ _____    ______ ____
ROOT
ATOM      1  C   UNL     1       2.257   3.997  18.265  0.00  0.00    +0.000 C 
ENDROOT
BRANCH   1   2
ATOM      2  C   UNL     1       1.371   3.521  19.488  0.00  0.00    +0.000 C 
ATOM      3  F   UNL     1       0.661   4.529  20.038  0.00  0.00    +0.000 F 
ATOM      4  F   UNL     1       0.468   2.576  19.116  0.00  0.00    +0.000 F 
ATOM      5  F   UNL     1       2.109   2.995  20.491  0.00  0.00    +0.000 F 
ENDBRANCH   1   2
BRANCH   1   6
ATOM      6  O   UNL     1       1.956   3.278  17.052  0.00  0.00    +0.000 OA
ATOM      7  H   UNL     1       2.286   3.788  16.290  0.00  0.00    +0.000 HD
ENDBRANCH   1   6
BRANCH   1   8
ATOM      8  C   UNL     1       1.862   5.495  17.991  0.00  0.00    +0.000 C 
BRANCH   8   9
ATOM      9  C   UNL     1       2.632   6.784  18.486  0.00  0.00    +0.000 C 
ATOM     10  C   UNL     1       3.796   7.037  17.486  0.00  0.00    +0.000 C 
ATOM     11  C   UNL     1       3.359   6.356  19.809  0.00  0.00    +0.000 C 
BRANCH   9  18
ATOM     12  C   UNL     1       1.159   7.383  21.270  0.00  0.00    +0.000 C 
ATOM     13  C   UNL     1       1.251   8.354  20.122  0.00  0.00    +0.000 A 
ATOM     14  C   UNL     1       0.764   9.654  20.415  0.00  0.00    +0.000 A 
ATOM     15  C   UNL     1       0.839  10.696  19.499  0.00  0.00    +0.000 A 
ATOM     16  C   UNL     1       1.384  10.449  18.255  0.00  0.00    +0.000 A 
ATOM     17  C   UNL     1       1.869   9.175  17.944  0.00  0.00    +0.000 A 
ATOM     18  C   UNL     1       1.849   8.084  18.857  0.00  0.00    +0.000 A 
ENDBRANCH   9  18
ENDBRANCH   8   9
ENDBRANCH   1   8
BRANCH   1  19
ATOM     19  C   UNL     1       3.749   3.776  18.681  0.00  0.00    +0.000 C 
BRANCH  19  20
ATOM     20  N   UNL     1       4.822   3.940  17.626  0.00  0.00    +0.000 N 
ATOM     21  C   UNL     1       4.604   3.701  16.276  0.00  0.00    +0.000 A 
ATOM     22  C   UNL     1       5.299   4.195  15.246  0.00  0.00    +0.000 A 
ATOM     23  C   UNL     1       6.396   5.138  15.518  0.00  0.00    +0.000 A 
ATOM     24  O   UNL     1       7.026   5.651  14.598  0.00  0.00    +0.000 OA
ATOM     25  C   UNL     1       6.693   5.416  16.943  0.00  0.00    +0.000 A 
ATOM     26  C   UNL     1       7.727   6.321  17.234  0.00  0.00    +0.000 A 
ATOM     27  C   UNL     1       8.066   6.587  18.553  0.00  0.00    +0.000 A 
ATOM     28  C   UNL     1       7.412   5.903  19.574  0.00  0.00    +0.000 A 
ATOM     29  C   UNL     1       6.374   5.001  19.284  0.00  0.00    +0.000 A 
ATOM     30  C   UNL     1       5.939   4.777  17.965  0.00  0.00    +0.000 A 
ENDBRANCH  19  20
ENDBRANCH   1  19
TORSDOF 7
ENDMDL
MODEL 9
REMARK VINA RESULT:      -6.8      1.381      2.159
REMARK  Name = 
REMARK  10 active torsions:
REMARK  status: ('A' for Active; 'I' for Inactive)
REMARK    1  A    between atoms: C_1  and  C_2
REMARK    2  A    between atoms: C_7  and  C_8
REMARK    3  A    between atoms: C_8  and  C_9
REMARK    4  A    between atoms: C_8  and  C_10
REMARK    5  A    between atoms: C_8  and  C_11
REMARK    6  A    between atoms: C_11  and  C_12
REMARK    7  A    between atoms: C_12  and  O_13
REMARK    8  A    between atoms: C_12  and  C_14
REMARK    9  A    between atoms: C_12  and  C_26
REMARK   10  A    between atoms: C_14  and  N_15
REMARK                            x       y       z     vdW  Elec       q    Type
REMARK                         _______ _______ _______ _____ _____    ______ ____
ROOT
ATOM      1  C   UNL     1       2.507   5.100  20.026  0.00  0.00    +0.000 C 
ENDROOT
BRANCH   1   2
ATOM      2  C   UNL     1       1.812   4.373  18.804  0.00  0.00    +0.000 C 
ATOM      3  F   UNL     1       2.426   3.217  18.472  0.00  0.00    +0.000 F 
ATOM      4  F   UNL     1       0.520   4.054  19.078  0.00  0.00    +0.000 F 
ATOM      5  F   UNL     1       1.808   5.127  17.683  0.00  0.00    +0.000 F 
ENDBRANCH   1   2
BRANCH   1   6
ATOM      6  O   UNL     1       2.839   4.190  21.095  0.00  0.00    +0.000 OA
ATOM      7  H   UNL     1       3.573   3.618  20.807  0.00  0.00    +0.000 HD
ENDBRANCH   1   6
BRANCH   1   8
ATOM      8  C   UNL     1       3.876   5.657  19.488  0.00  0.00    +0.000 C 
BRANCH   8   9
ATOM      9  C   UNL     1       5.025   4.829  18.786  0.00  0.00    +0.000 C 
ATOM     10  C   UNL     1       5.030   3.413  19.428  0.00  0.00    +0.000 C 
ATOM     11  C   UNL     1       6.368   5.472  19.280  0.00  0.00    +0.000 C 
BRANCH   9  18
ATOM     12  C   UNL     1       4.857   7.353  16.816  0.00  0.00    +0.000 C 
ATOM     13  C   UNL     1       5.122   5.938  16.375  0.00  0.00    +0.000 A 
ATOM     14  C   UNL     1       5.460   5.806  15.003  0.00  0.00    +0.000 A 
ATOM     15  C   UNL     1       5.808   4.584  14.441  0.00  0.00    +0.000 A 
ATOM     16  C   UNL     1       5.800   3.459  15.240  0.00  0.00    +0.000 A 
ATOM     17  C   UNL     1       5.470   3.565  16.595  0.00  0.00    +0.000 A 
ATOM     18  C   UNL     1       5.141   4.796  17.228  0.00  0.00    +0.000 A 
ENDBRANCH   9  18
ENDBRANCH   8   9
ENDBRANCH   1   8
BRANCH   1  19
ATOM     19  C   UNL     1       1.504   6.193  20.526  0.00  0.00    +0.000 C 
BRANCH  19  20
ATOM     20  N   UNL     1       1.716   7.623  20.078  0.00  0.00    +0.000 N 
ATOM     21  C   UNL     1       2.089   7.969  18.787  0.00  0.00    +0.000 A 
ATOM     22  C   UNL     1       1.898   9.144  18.178  0.00  0.00    +0.000 A 
ATOM     23  C   UNL     1       1.176  10.206  18.898  0.00  0.00    +0.000 A 
ATOM     24  O   UNL     1       0.939  11.281  18.356  0.00  0.00    +0.000 OA
ATOM     25  C   UNL     1       0.771   9.905  20.291  0.00  0.00    +0.000 A 
ATOM     26  C   UNL     1       0.070  10.895  20.998  0.00  0.00    +0.000 A 
ATOM     27  C   UNL     1      -0.301  10.674  22.318  0.00  0.00    +0.000 A 
ATOM     28  C   UNL     1       0.083   9.491  22.943  0.00  0.00    +0.000 A 
ATOM     29  C   UNL     1       0.781   8.499  22.234  0.00  0.00    +0.000 A 
ATOM     30  C   UNL     1       1.091   8.647  20.869  0.00  0.00    +0.000 A 
ENDBRANCH  19  20
ENDBRANCH   1  19
TORSDOF 7
ENDMDL
