MODEL 1
REMARK VINA RESULT:      -8.2      0.000      0.000
REMARK  Name = 
REMARK  6 active torsions:
REMARK  status: ('A' for Active; 'I' for Inactive)
REMARK    1  A    between atoms: C_1  and  O_2
REMARK    2  A    between atoms: O_2  and  C_3
REMARK    3  A    between atoms: C_8  and  O_9
REMARK    4  A    between atoms: O_9  and  C_10
REMARK    5  A    between atoms: C_11  and  C_12
REMARK    6  A    between atoms: C_15  and  C_16
REMARK                            x       y       z     vdW  Elec       q    Type
REMARK                         _______ _______ _______ _____ _____    ______ ____
ROOT
ATOM      1  C   UNL     1       6.644   6.277  17.030  0.00  0.00    +0.000 A 
ATOM      2  C   UNL     1       6.049   6.292  18.301  0.00  0.00    +0.000 A 
ATOM      3  C   UNL     1       4.849   5.617  18.556  0.00  0.00    +0.000 A 
ATOM      4  C   UNL     1       4.263   4.863  17.530  0.00  0.00    +0.000 A 
ATOM      5  C   UNL     1       4.836   4.854  16.260  0.00  0.00    +0.000 A 
ATOM      6  C   UNL     1       6.024   5.563  15.993  0.00  0.00    +0.000 A 
ATOM      7  C   UNL     1       3.020   4.119  17.841  0.00  0.00    +0.000 C 
ATOM      8  C   UNL     1       2.455   3.031  16.972  0.00  0.00    +0.000 C 
ATOM      9  N   UNL     1       2.352   4.418  18.939  0.00  0.00    +0.000 N 
ATOM     10  O   UNL     1       1.276   3.796  19.256  0.00  0.00    +0.000 OA
ATOM     11  C   UNL     1       2.831   5.542  19.836  0.00  0.00    +0.000 C 
ATOM     12  N   UNL     1       4.310   5.628  19.861  0.00  0.00    +0.000 N 
ATOM     13  H   UNL     1       4.650   6.405  20.417  0.00  0.00    +0.000 HD
ENDROOT
BRANCH  11  14
ATOM     14  C   UNL     1       2.232   6.912  19.480  0.00  0.00    +0.000 A 
ATOM     15  C   UNL     1       2.282   7.429  18.177  0.00  0.00    +0.000 A 
ATOM     16  C   UNL     1       1.790   8.712  17.893  0.00  0.00    +0.000 A 
ATOM     17  C   UNL     1       1.245   9.489  18.909  0.00  0.00    +0.000 A 
ATOM     18  C   UNL     1       1.164   8.983  20.202  0.00  0.00    +0.000 A 
ATOM     19  C   UNL     1       1.643   7.702  20.484  0.00  0.00    +0.000 A 
ENDBRANCH  11  14
BRANCH   1  21
ATOM     20  C   UNL     1       7.995   8.157  17.550  0.00  0.00    +0.000 C 
ATOM     21  O   UNL     1       7.796   6.975  16.777  0.00  0.00    +0.000 OA
ENDBRANCH   1  21
BRANCH   6  22
ATOM     22  O   UNL     1       6.427   5.387  14.698  0.00  0.00    +0.000 OA
ATOM     23  C   UNL     1       6.349   4.112  14.084  0.00  0.00    +0.000 C 
ENDBRANCH   6  22
TORSDOF 3
ENDMDL
MODEL 2
REMARK VINA RESULT:      -8.1      2.368      5.781
REMARK  Name = 
REMARK  6 active torsions:
REMARK  status: ('A' for Active; 'I' for Inactive)
REMARK    1  A    between atoms: C_1  and  O_2
REMARK    2  A    between atoms: O_2  and  C_3
REMARK    3  A    between atoms: C_8  and  O_9
REMARK    4  A    between atoms: O_9  and  C_10
REMARK    5  A    between atoms: C_11  and  C_12
REMARK    6  A    between atoms: C_15  and  C_16
REMARK                            x       y       z     vdW  Elec       q    Type
REMARK                         _______ _______ _______ _____ _____    ______ ____
ROOT
ATOM      1  C   UNL     1       1.658   8.820  19.107  0.00  0.00    +0.000 A 
ATOM      2  C   UNL     1       2.204   7.972  18.130  0.00  0.00    +0.000 A 
ATOM      3  C   UNL     1       2.614   6.670  18.437  0.00  0.00    +0.000 A 
ATOM      4  C   UNL     1       2.418   6.184  19.738  0.00  0.00    +0.000 A 
ATOM      5  C   UNL     1       1.892   7.022  20.720  0.00  0.00    +0.000 A 
ATOM      6  C   UNL     1       1.513   8.344  20.420  0.00  0.00    +0.000 A 
ATOM      7  C   UNL     1       2.816   4.786  20.023  0.00  0.00    +0.000 C 
ATOM      8  C   UNL     1       2.387   4.025  21.246  0.00  0.00    +0.000 C 
ATOM      9  N   UNL     1       3.597   4.155  19.167  0.00  0.00    +0.000 N 
ATOM     10  O   UNL     1       3.960   2.941  19.363  0.00  0.00    +0.000 OA
ATOM     11  C   UNL     1       4.114   4.876  17.938  0.00  0.00    +0.000 C 
ATOM     12  N   UNL     1       3.121   5.841  17.412  0.00  0.00    +0.000 N 
ATOM     13  H   UNL     1       3.467   6.369  16.619  0.00  0.00    +0.000 HD
ENDROOT
BRANCH  11  14
ATOM     14  C   UNL     1       5.462   5.580  18.160  0.00  0.00    +0.000 A 
ATOM     15  C   UNL     1       5.947   6.556  17.277  0.00  0.00    +0.000 A 
ATOM     16  C   UNL     1       7.212   7.132  17.465  0.00  0.00    +0.000 A 
ATOM     17  C   UNL     1       8.004   6.736  18.537  0.00  0.00    +0.000 A 
ATOM     18  C   UNL     1       7.530   5.788  19.438  0.00  0.00    +0.000 A 
ATOM     19  C   UNL     1       6.267   5.222  19.258  0.00  0.00    +0.000 A 
ENDBRANCH  11  14
BRANCH   1  21
ATOM     20  C   UNL     1      -0.057  10.305  18.413  0.00  0.00    +0.000 C 
ATOM     21  O   UNL     1       1.299  10.108  18.809  0.00  0.00    +0.000 OA
ENDBRANCH   1  21
BRANCH   6  22
ATOM     22  O   UNL     1       0.989   8.972  21.517  0.00  0.00    +0.000 OA
ATOM     23  C   UNL     1      -0.370   8.791  21.871  0.00  0.00    +0.000 C 
ENDBRANCH   6  22
TORSDOF 3
ENDMDL
MODEL 3
REMARK VINA RESULT:      -8.1      2.390      5.789
REMARK  Name = 
REMARK  6 active torsions:
REMARK  status: ('A' for Active; 'I' for Inactive)
REMARK    1  A    between atoms: C_1  and  O_2
REMARK    2  A    between atoms: O_2  and  C_3
REMARK    3  A    between atoms: C_8  and  O_9
REMARK    4  A    between atoms: O_9  and  C_10
REMARK    5  A    between atoms: C_11  and  C_12
REMARK    6  A    between atoms: C_15  and  C_16
REMARK                            x       y       z     vdW  Elec       q    Type
REMARK                         _______ _______ _______ _____ _____    ______ ____
ROOT
ATOM      1  C   UNL     1       1.744   8.638  19.136  0.00  0.00    +0.000 A 
ATOM      2  C   UNL     1       2.261   7.783  18.150  0.00  0.00    +0.000 A 
ATOM      3  C   UNL     1       2.639   6.469  18.445  0.00  0.00    +0.000 A 
ATOM      4  C   UNL     1       2.442   5.981  19.744  0.00  0.00    +0.000 A 
ATOM      5  C   UNL     1       1.945   6.825  20.735  0.00  0.00    +0.000 A 
ATOM      6  C   UNL     1       1.598   8.158  20.447  0.00  0.00    +0.000 A 
ATOM      7  C   UNL     1       2.806   4.571  20.017  0.00  0.00    +0.000 C 
ATOM      8  C   UNL     1       2.368   3.813  21.239  0.00  0.00    +0.000 C 
ATOM      9  N   UNL     1       3.564   3.925  19.151  0.00  0.00    +0.000 N 
ATOM     10  O   UNL     1       3.898   2.701  19.337  0.00  0.00    +0.000 OA
ATOM     11  C   UNL     1       4.089   4.641  17.922  0.00  0.00    +0.000 C 
ATOM     12  N   UNL     1       3.117   5.634  17.410  0.00  0.00    +0.000 N 
ATOM     13  H   UNL     1       3.469   6.159  16.617  0.00  0.00    +0.000 HD
ENDROOT
BRANCH  11  14
ATOM     14  C   UNL     1       5.457   5.309  18.137  0.00  0.00    +0.000 A 
ATOM     15  C   UNL     1       6.231   5.067  19.282  0.00  0.00    +0.000 A 
ATOM     16  C   UNL     1       7.443   5.744  19.487  0.00  0.00    +0.000 A 
ATOM     17  C   UNL     1       7.891   6.668  18.549  0.00  0.00    +0.000 A 
ATOM     18  C   UNL     1       7.150   6.902  17.396  0.00  0.00    +0.000 A 
ATOM     19  C   UNL     1       5.948   6.222  17.185  0.00  0.00    +0.000 A 
ENDBRANCH  11  14
BRANCH   1  21
ATOM     20  C   UNL     1       0.090  10.157  18.371  0.00  0.00    +0.000 C 
ATOM     21  O   UNL     1       1.415   9.937  18.849  0.00  0.00    +0.000 OA
ENDBRANCH   1  21
BRANCH   6  22
ATOM     22  O   UNL     1       1.099   8.792  21.552  0.00  0.00    +0.000 OA
ATOM     23  C   UNL     1      -0.290   8.774  21.829  0.00  0.00    +0.000 C 
ENDBRANCH   6  22
TORSDOF 3
ENDMDL
MODEL 4
REMARK VINA RESULT:      -8.0      0.106      1.033
REMARK  Name = 
REMARK  6 active torsions:
REMARK  status: ('A' for Active; 'I' for Inactive)
REMARK    1  A    between atoms: C_1  and  O_2
REMARK    2  A    between atoms: O_2  and  C_3
REMARK    3  A    between atoms: C_8  and  O_9
REMARK    4  A    between atoms: O_9  and  C_10
REMARK    5  A    between atoms: C_11  and  C_12
REMARK    6  A    between atoms: C_15  and  C_16
REMARK                            x       y       z     vdW  Elec       q    Type
REMARK                         _______ _______ _______ _____ _____    ______ ____
ROOT
ATOM      1  C   UNL     1       6.618   6.287  17.043  0.00  0.00    +0.000 A 
ATOM      2  C   UNL     1       6.033   6.296  18.319  0.00  0.00    +0.000 A 
ATOM      3  C   UNL     1       4.814   5.656  18.571  0.00  0.00    +0.000 A 
ATOM      4  C   UNL     1       4.195   4.942  17.535  0.00  0.00    +0.000 A 
ATOM      5  C   UNL     1       4.758   4.939  16.261  0.00  0.00    +0.000 A 
ATOM      6  C   UNL     1       5.966   5.613  15.998  0.00  0.00    +0.000 A 
ATOM      7  C   UNL     1       2.931   4.233  17.843  0.00  0.00    +0.000 C 
ATOM      8  C   UNL     1       2.323   3.182  16.957  0.00  0.00    +0.000 C 
ATOM      9  N   UNL     1       2.281   4.533  18.951  0.00  0.00    +0.000 N 
ATOM     10  O   UNL     1       1.188   3.941  19.266  0.00  0.00    +0.000 OA
ATOM     11  C   UNL     1       2.805   5.622  19.866  0.00  0.00    +0.000 C 
ATOM     12  N   UNL     1       4.286   5.660  19.881  0.00  0.00    +0.000 N 
ATOM     13  H   UNL     1       4.655   6.413  20.449  0.00  0.00    +0.000 HD
ENDROOT
BRANCH  11  14
ATOM     14  C   UNL     1       2.249   7.018  19.541  0.00  0.00    +0.000 A 
ATOM     15  C   UNL     1       1.647   7.826  20.518  0.00  0.00    +0.000 A 
ATOM     16  C   UNL     1       1.085   9.066  20.180  0.00  0.00    +0.000 A 
ATOM     17  C   UNL     1       1.118   9.509  18.862  0.00  0.00    +0.000 A 
ATOM     18  C   UNL     1       1.733   8.733  17.884  0.00  0.00    +0.000 A 
ATOM     19  C   UNL     1       2.303   7.504  18.221  0.00  0.00    +0.000 A 
ENDBRANCH  11  14
BRANCH   1  21
ATOM     20  C   UNL     1       8.005   8.145  17.544  0.00  0.00    +0.000 C 
ATOM     21  O   UNL     1       7.790   6.951  16.793  0.00  0.00    +0.000 OA
ENDBRANCH   1  21
BRANCH   6  22
ATOM     22  O   UNL     1       6.353   5.449  14.696  0.00  0.00    +0.000 OA
ATOM     23  C   UNL     1       6.420   4.157  14.120  0.00  0.00    +0.000 C 
ENDBRANCH   6  22
TORSDOF 3
ENDMDL
MODEL 5
REMARK VINA RESULT:      -7.6      1.977      5.550
REMARK  Name = 
REMARK  6 active torsions:
REMARK  status: ('A' for Active; 'I' for Inactive)
REMARK    1  A    between atoms: C_1  and  O_2
REMARK    2  A    between atoms: O_2  and  C_3
REMARK    3  A    between atoms: C_8  and  O_9
REMARK    4  A    between atoms: O_9  and  C_10
REMARK    5  A    between atoms: C_11  and  C_12
REMARK    6  A    between atoms: C_15  and  C_16
REMARK                            x       y       z     vdW  Elec       q    Type
REMARK                         _______ _______ _______ _____ _____    ______ ____
ROOT
ATOM      1  C   UNL     1       2.088   6.134  20.191  0.00  0.00    +0.000 A 
ATOM      2  C   UNL     1       2.658   6.621  19.003  0.00  0.00    +0.000 A 
ATOM      3  C   UNL     1       3.365   5.783  18.134  0.00  0.00    +0.000 A 
ATOM      4  C   UNL     1       3.455   4.416  18.431  0.00  0.00    +0.000 A 
ATOM      5  C   UNL     1       2.907   3.924  19.614  0.00  0.00    +0.000 A 
ATOM      6  C   UNL     1       2.226   4.774  20.507  0.00  0.00    +0.000 A 
ATOM      7  C   UNL     1       4.167   3.544  17.468  0.00  0.00    +0.000 C 
ATOM      8  C   UNL     1       4.077   2.043  17.471  0.00  0.00    +0.000 C 
ATOM      9  N   UNL     1       4.937   4.097  16.550  0.00  0.00    +0.000 N 
ATOM     10  O   UNL     1       5.566   3.385  15.688  0.00  0.00    +0.000 OA
ATOM     11  C   UNL     1       5.120   5.601  16.520  0.00  0.00    +0.000 C 
ATOM     12  N   UNL     1       3.886   6.311  16.932  0.00  0.00    +0.000 N 
ATOM     13  H   UNL     1       4.003   7.317  16.966  0.00  0.00    +0.000 HD
ENDROOT
BRANCH  11  14
ATOM     14  C   UNL     1       6.311   6.092  17.358  0.00  0.00    +0.000 A 
ATOM     15  C   UNL     1       6.882   5.307  18.371  0.00  0.00    +0.000 A 
ATOM     16  C   UNL     1       7.923   5.807  19.168  0.00  0.00    +0.000 A 
ATOM     17  C   UNL     1       8.403   7.095  18.958  0.00  0.00    +0.000 A 
ATOM     18  C   UNL     1       7.867   7.879  17.941  0.00  0.00    +0.000 A 
ATOM     19  C   UNL     1       6.838   7.379  17.141  0.00  0.00    +0.000 A 
ENDBRANCH  11  14
BRANCH   1  21
ATOM     20  C   UNL     1       1.446   8.355  20.725  0.00  0.00    +0.000 C 
ATOM     21  O   UNL     1       1.433   6.969  21.059  0.00  0.00    +0.000 OA
ENDBRANCH   1  21
BRANCH   6  22
ATOM     22  O   UNL     1       1.740   4.079  21.581  0.00  0.00    +0.000 OA
ATOM     23  C   UNL     1       1.603   2.670  21.526  0.00  0.00    +0.000 C 
ENDBRANCH   6  22
TORSDOF 3
ENDMDL
MODEL 6
REMARK VINA RESULT:      -7.4      1.960      5.507
REMARK  Name = 
REMARK  6 active torsions:
REMARK  status: ('A' for Active; 'I' for Inactive)
REMARK    1  A    between atoms: C_1  and  O_2
REMARK    2  A    between atoms: O_2  and  C_3
REMARK    3  A    between atoms: C_8  and  O_9
REMARK    4  A    between atoms: O_9  and  C_10
REMARK    5  A    between atoms: C_11  and  C_12
REMARK    6  A    between atoms: C_15  and  C_16
REMARK                            x       y       z     vdW  Elec       q    Type
REMARK                         _______ _______ _______ _____ _____    ______ ____
ROOT
ATOM      1  C   UNL     1       1.990   6.293  20.238  0.00  0.00    +0.000 A 
ATOM      2  C   UNL     1       2.554   6.852  19.080  0.00  0.00    +0.000 A 
ATOM      3  C   UNL     1       3.260   6.070  18.159  0.00  0.00    +0.000 A 
ATOM      4  C   UNL     1       3.353   4.688  18.371  0.00  0.00    +0.000 A 
ATOM      5  C   UNL     1       2.810   4.124  19.525  0.00  0.00    +0.000 A 
ATOM      6  C   UNL     1       2.132   4.916  20.470  0.00  0.00    +0.000 A 
ATOM      7  C   UNL     1       4.063   3.877  17.355  0.00  0.00    +0.000 C 
ATOM      8  C   UNL     1       3.975   2.379  17.267  0.00  0.00    +0.000 C 
ATOM      9  N   UNL     1       4.828   4.487  16.469  0.00  0.00    +0.000 N 
ATOM     10  O   UNL     1       5.455   3.830  15.563  0.00  0.00    +0.000 OA
ATOM     11  C   UNL     1       5.008   5.990  16.530  0.00  0.00    +0.000 C 
ATOM     12  N   UNL     1       3.775   6.671  16.989  0.00  0.00    +0.000 N 
ATOM     13  H   UNL     1       3.890   7.674  17.083  0.00  0.00    +0.000 HD
ENDROOT
BRANCH  11  14
ATOM     14  C   UNL     1       6.202   6.432  17.391  0.00  0.00    +0.000 A 
ATOM     15  C   UNL     1       6.833   7.672  17.210  0.00  0.00    +0.000 A 
ATOM     16  C   UNL     1       7.964   8.020  17.962  0.00  0.00    +0.000 A 
ATOM     17  C   UNL     1       8.476   7.132  18.902  0.00  0.00    +0.000 A 
ATOM     18  C   UNL     1       7.848   5.909  19.115  0.00  0.00    +0.000 A 
ATOM     19  C   UNL     1       6.716   5.565  18.374  0.00  0.00    +0.000 A 
ENDBRANCH  11  14
BRANCH   1  21
ATOM     20  C   UNL     1       1.269   8.466  20.863  0.00  0.00    +0.000 C 
ATOM     21  O   UNL     1       1.337   7.072  21.157  0.00  0.00    +0.000 OA
ENDBRANCH   1  21
BRANCH   6  22
ATOM     22  O   UNL     1       1.652   4.156  21.502  0.00  0.00    +0.000 OA
ATOM     23  C   UNL     1       1.951   2.774  21.580  0.00  0.00    +0.000 C 
ENDBRANCH   6  22
TORSDOF 3
ENDMDL
MODEL 7
REMARK VINA RESULT:      -7.4      1.053      1.064
REMARK  Name = 
REMARK  6 active torsions:
REMARK  status: ('A' for Active; 'I' for Inactive)
REMARK    1  A    between atoms: C_1  and  O_2
REMARK    2  A    between atoms: O_2  and  C_3
REMARK    3  A    between atoms: C_8  and  O_9
REMARK    4  A    between atoms: O_9  and  C_10
REMARK    5  A    between atoms: C_11  and  C_12
REMARK    6  A    between atoms: C_15  and  C_16
REMARK                            x       y       z     vdW  Elec       q    Type
REMARK                         _______ _______ _______ _____ _____    ______ ____
ROOT
ATOM      1  C   UNL     1       6.431   5.128  17.821  0.00  0.00    +0.000 A 
ATOM      2  C   UNL     1       5.750   5.415  19.015  0.00  0.00    +0.000 A 
ATOM      3  C   UNL     1       4.449   4.955  19.244  0.00  0.00    +0.000 A 
ATOM      4  C   UNL     1       3.836   4.141  18.282  0.00  0.00    +0.000 A 
ATOM      5  C   UNL     1       4.496   3.862  17.086  0.00  0.00    +0.000 A 
ATOM      6  C   UNL     1       5.792   4.355  16.839  0.00  0.00    +0.000 A 
ATOM      7  C   UNL     1       2.477   3.627  18.572  0.00  0.00    +0.000 C 
ATOM      8  C   UNL     1       1.824   2.507  17.812  0.00  0.00    +0.000 C 
ATOM      9  N   UNL     1       1.780   4.177  19.548  0.00  0.00    +0.000 N 
ATOM     10  O   UNL     1       0.603   3.762  19.844  0.00  0.00    +0.000 OA
ATOM     11  C   UNL     1       2.351   5.348  20.323  0.00  0.00    +0.000 C 
ATOM     12  N   UNL     1       3.820   5.237  20.478  0.00  0.00    +0.000 N 
ATOM     13  H   UNL     1       4.228   6.035  20.950  0.00  0.00    +0.000 HD
ENDROOT
BRANCH  11  14
ATOM     14  C   UNL     1       1.990   6.716  19.723  0.00  0.00    +0.000 A 
ATOM     15  C   UNL     1       2.246   7.032  18.380  0.00  0.00    +0.000 A 
ATOM     16  C   UNL     1       1.971   8.312  17.877  0.00  0.00    +0.000 A 
ATOM     17  C   UNL     1       1.437   9.288  18.711  0.00  0.00    +0.000 A 
ATOM     18  C   UNL     1       1.152   8.986  20.039  0.00  0.00    +0.000 A 
ATOM     19  C   UNL     1       1.416   7.710  20.539  0.00  0.00    +0.000 A 
ENDBRANCH  11  14
BRANCH   1  21
ATOM     20  C   UNL     1       8.126   6.665  18.448  0.00  0.00    +0.000 C 
ATOM     21  O   UNL     1       7.689   5.617  17.585  0.00  0.00    +0.000 OA
ENDBRANCH   1  21
BRANCH   6  22
ATOM     22  O   UNL     1       6.261   3.932  15.626  0.00  0.00    +0.000 OA
ATOM     23  C   UNL     1       5.794   4.522  14.426  0.00  0.00    +0.000 C 
ENDBRANCH   6  22
TORSDOF 3
ENDMDL
MODEL 8
REMARK VINA RESULT:      -7.3      1.971      5.515
REMARK  Name = 
REMARK  6 active torsions:
REMARK  status: ('A' for Active; 'I' for Inactive)
REMARK    1  A    between atoms: C_1  and  O_2
REMARK    2  A    between atoms: O_2  and  C_3
REMARK    3  A    between atoms: C_8  and  O_9
REMARK    4  A    between atoms: O_9  and  C_10
REMARK    5  A    between atoms: C_11  and  C_12
REMARK    6  A    between atoms: C_15  and  C_16
REMARK                            x       y       z     vdW  Elec       q    Type
REMARK                         _______ _______ _______ _____ _____    ______ ____
ROOT
ATOM      1  C   UNL     1       2.143   7.281  19.267  0.00  0.00    +0.000 A 
ATOM      2  C   UNL     1       2.944   7.584  18.154  0.00  0.00    +0.000 A 
ATOM      3  C   UNL     1       3.671   6.594  17.484  0.00  0.00    +0.000 A 
ATOM      4  C   UNL     1       3.548   5.261  17.900  0.00  0.00    +0.000 A 
ATOM      5  C   UNL     1       2.769   4.950  19.013  0.00  0.00    +0.000 A 
ATOM      6  C   UNL     1       2.066   5.951  19.710  0.00  0.00    +0.000 A 
ATOM      7  C   UNL     1       4.291   4.227  17.142  0.00  0.00    +0.000 C 
ATOM      8  C   UNL     1       4.021   2.753  17.250  0.00  0.00    +0.000 C 
ATOM      9  N   UNL     1       5.254   4.602  16.321  0.00  0.00    +0.000 N 
ATOM     10  O   UNL     1       5.918   3.747  15.635  0.00  0.00    +0.000 OA
ATOM     11  C   UNL     1       5.619   6.069  16.200  0.00  0.00    +0.000 C 
ATOM     12  N   UNL     1       4.431   6.942  16.345  0.00  0.00    +0.000 N 
ATOM     13  H   UNL     1       4.662   7.929  16.316  0.00  0.00    +0.000 HD
ENDROOT
BRANCH  11  14
ATOM     14  C   UNL     1       6.717   6.511  17.180  0.00  0.00    +0.000 A 
ATOM     15  C   UNL     1       7.219   5.655  18.172  0.00  0.00    +0.000 A 
ATOM     16  C   UNL     1       8.170   6.106  19.099  0.00  0.00    +0.000 A 
ATOM     17  C   UNL     1       8.629   7.418  19.042  0.00  0.00    +0.000 A 
ATOM     18  C   UNL     1       8.163   8.274  18.049  0.00  0.00    +0.000 A 
ATOM     19  C   UNL     1       7.223   7.823  17.120  0.00  0.00    +0.000 A 
ENDBRANCH  11  14
BRANCH   1  21
ATOM     20  C   UNL     1       1.141   9.430  19.195  0.00  0.00    +0.000 C 
ATOM     21  O   UNL     1       1.468   8.261  19.944  0.00  0.00    +0.000 OA
ENDBRANCH   1  21
BRANCH   6  22
ATOM     22  O   UNL     1       1.340   5.421  20.742  0.00  0.00    +0.000 OA
ATOM     23  C   UNL     1       1.112   4.025  20.821  0.00  0.00    +0.000 C 
ENDBRANCH   6  22
TORSDOF 3
ENDMDL
MODEL 9
REMARK VINA RESULT:      -6.8      3.689      6.167
REMARK  Name = 
REMARK  6 active torsions:
REMARK  status: ('A' for Active; 'I' for Inactive)
REMARK    1  A    between atoms: C_1  and  O_2
REMARK    2  A    between atoms: O_2  and  C_3
REMARK    3  A    between atoms: C_8  and  O_9
REMARK    4  A    between atoms: O_9  and  C_10
REMARK    5  A    between atoms: C_11  and  C_12
REMARK    6  A    between atoms: C_15  and  C_16
REMARK                            x       y       z     vdW  Elec       q    Type
REMARK                         _______ _______ _______ _____ _____    ______ ____
ROOT
ATOM      1  C   UNL     1       2.348   7.164  18.789  0.00  0.00    +0.000 A 
ATOM      2  C   UNL     1       2.152   8.513  18.453  0.00  0.00    +0.000 A 
ATOM      3  C   UNL     1       1.496   9.395  19.318  0.00  0.00    +0.000 A 
ATOM      4  C   UNL     1       1.078   8.931  20.574  0.00  0.00    +0.000 A 
ATOM      5  C   UNL     1       1.253   7.590  20.912  0.00  0.00    +0.000 A 
ATOM      6  C   UNL     1       1.881   6.693  20.026  0.00  0.00    +0.000 A 
ATOM      7  C   UNL     1       0.430   9.899  21.489  0.00  0.00    +0.000 C 
ATOM      8  C   UNL     1       0.221   9.653  22.957  0.00  0.00    +0.000 C 
ATOM      9  N   UNL     1      -0.001  11.048  21.006  0.00  0.00    +0.000 N 
ATOM     10  O   UNL     1      -0.560  11.922  21.760  0.00  0.00    +0.000 OA
ATOM     11  C   UNL     1       0.126  11.344  19.525  0.00  0.00    +0.000 C 
ATOM     12  N   UNL     1       1.357  10.752  18.952  0.00  0.00    +0.000 N 
ATOM     13  H   UNL     1       1.436  10.897  17.952  0.00  0.00    +0.000 HD
ENDROOT
BRANCH  11  14
ATOM     14  C   UNL     1      -1.097  10.904  18.703  0.00  0.00    +0.000 A 
ATOM     15  C   UNL     1      -0.992   9.994  17.640  0.00  0.00    +0.000 A 
ATOM     16  C   UNL     1      -2.111   9.664  16.862  0.00  0.00    +0.000 A 
ATOM     17  C   UNL     1      -3.346  10.240  17.140  0.00  0.00    +0.000 A 
ATOM     18  C   UNL     1      -3.476  11.124  18.207  0.00  0.00    +0.000 A 
ATOM     19  C   UNL     1      -2.364  11.446  18.988  0.00  0.00    +0.000 A 
ENDBRANCH  11  14
BRANCH   1  21
ATOM     20  C   UNL     1       4.314   6.578  17.596  0.00  0.00    +0.000 C 
ATOM     21  O   UNL     1       2.954   6.295  17.919  0.00  0.00    +0.000 OA
ENDBRANCH   1  21
BRANCH   6  22
ATOM     22  O   UNL     1       1.980   5.443  20.573  0.00  0.00    +0.000 OA
ATOM     23  C   UNL     1       1.050   4.430  20.232  0.00  0.00    +0.000 C 
ENDBRANCH   6  22
TORSDOF 3
ENDMDL
