MODEL 1
REMARK VINA RESULT:      -6.6      0.000      0.000
REMARK  Name = 
REMARK  3 active torsions:
REMARK  status: ('A' for Active; 'I' for Inactive)
REMARK    1  A    between atoms: C_1  and  C_2
REMARK    2  A    between atoms: C_5  and  N_6
REMARK    3  A    between atoms: C_10  and  C_11
REMARK                            x       y       z     vdW  Elec       q    Type
REMARK                         _______ _______ _______ _____ _____    ______ ____
ROOT
ATOM      1  N   UNL     1       5.860   5.117  17.246  0.00  0.00    +0.000 N 
ATOM      2  C   UNL     1       4.897   4.621  18.124  0.00  0.00    +0.000 C 
ATOM      3  O   UNL     1       4.675   5.023  19.260  0.00  0.00    +0.000 OA
ATOM      4  C   UNL     1       4.214   3.438  17.524  0.00  0.00    +0.000 C 
ATOM      5  C   UNL     1       3.201   2.722  18.034  0.00  0.00    +0.000 C 
ATOM      6  S   UNL     1       4.926   3.056  16.001  0.00  0.00    +0.000 S 
ATOM      7  C   UNL     1       6.024   4.435  16.050  0.00  0.00    +0.000 C 
ATOM      8  S   UNL     1       6.986   4.797  14.728  0.00  0.00    +0.000 S 
ENDROOT
BRANCH   1  13
ATOM      9  C   UNL     1       9.065   9.617  18.815  0.00  0.00    +0.000 C 
ATOM     10  C   UNL     1       8.221   8.450  18.400  0.00  0.00    +0.000 A 
ATOM     11  C   UNL     1       7.192   8.602  17.465  0.00  0.00    +0.000 A 
ATOM     12  C   UNL     1       6.402   7.510  17.095  0.00  0.00    +0.000 A 
ATOM     13  C   UNL     1       6.638   6.243  17.642  0.00  0.00    +0.000 A 
ATOM     14  C   UNL     1       7.688   6.088  18.556  0.00  0.00    +0.000 A 
ATOM     15  C   UNL     1       8.463   7.184  18.942  0.00  0.00    +0.000 A 
ENDBRANCH   1  13
BRANCH   5  16
ATOM     16  C   UNL     1       2.576   3.038  19.264  0.00  0.00    +0.000 A 
ATOM     17  C   UNL     1       1.476   3.844  19.518  0.00  0.00    +0.000 A 
ATOM     18  C   UNL     1       1.266   3.856  20.918  0.00  0.00    +0.000 A 
ATOM     19  C   UNL     1       2.245   3.057  21.451  0.00  0.00    +0.000 A 
ATOM     20  O   UNL     1       3.046   2.571  20.471  0.00  0.00    +0.000 OA
ENDBRANCH   5  16
TORSDOF 2
ENDMDL
MODEL 2
REMARK VINA RESULT:      -6.6      0.053      1.079
REMARK  Name = 
REMARK  3 active torsions:
REMARK  status: ('A' for Active; 'I' for Inactive)
REMARK    1  A    between atoms: C_1  and  C_2
REMARK    2  A    between atoms: C_5  and  N_6
REMARK    3  A    between atoms: C_10  and  C_11
REMARK                            x       y       z     vdW  Elec       q    Type
REMARK                         _______ _______ _______ _____ _____    ______ ____
ROOT
ATOM      1  N   UNL     1       5.890   5.116  17.217  0.00  0.00    +0.000 N 
ATOM      2  C   UNL     1       4.922   4.636  18.098  0.00  0.00    +0.000 C 
ATOM      3  O   UNL     1       4.717   5.036  19.238  0.00  0.00    +0.000 OA
ATOM      4  C   UNL     1       4.210   3.472  17.496  0.00  0.00    +0.000 C 
ATOM      5  C   UNL     1       3.185   2.776  18.009  0.00  0.00    +0.000 C 
ATOM      6  S   UNL     1       4.903   3.083  15.966  0.00  0.00    +0.000 S 
ATOM      7  C   UNL     1       6.031   4.437  16.016  0.00  0.00    +0.000 C 
ATOM      8  S   UNL     1       6.992   4.785  14.689  0.00  0.00    +0.000 S 
ENDROOT
BRANCH   1  13
ATOM      9  C   UNL     1       9.065   9.615  18.847  0.00  0.00    +0.000 C 
ATOM     10  C   UNL     1       8.244   8.434  18.427  0.00  0.00    +0.000 A 
ATOM     11  C   UNL     1       8.466   7.170  18.982  0.00  0.00    +0.000 A 
ATOM     12  C   UNL     1       7.703   6.072  18.575  0.00  0.00    +0.000 A 
ATOM     13  C   UNL     1       6.695   6.222  17.614  0.00  0.00    +0.000 A 
ATOM     14  C   UNL     1       6.456   7.495  17.082  0.00  0.00    +0.000 A 
ATOM     15  C   UNL     1       7.232   8.588  17.474  0.00  0.00    +0.000 A 
ENDBRANCH   1  13
BRANCH   5  16
ATOM     16  C   UNL     1       2.575   3.098  19.246  0.00  0.00    +0.000 A 
ATOM     17  C   UNL     1       1.495   3.927  19.512  0.00  0.00    +0.000 A 
ATOM     18  C   UNL     1       1.295   3.935  20.913  0.00  0.00    +0.000 A 
ATOM     19  C   UNL     1       2.259   3.111  21.435  0.00  0.00    +0.000 A 
ATOM     20  O   UNL     1       3.042   2.613  20.446  0.00  0.00    +0.000 OA
ENDBRANCH   5  16
TORSDOF 2
ENDMDL
MODEL 3
REMARK VINA RESULT:      -6.0      3.574      5.788
REMARK  Name = 
REMARK  3 active torsions:
REMARK  status: ('A' for Active; 'I' for Inactive)
REMARK    1  A    between atoms: C_1  and  C_2
REMARK    2  A    between atoms: C_5  and  N_6
REMARK    3  A    between atoms: C_10  and  C_11
REMARK                            x       y       z     vdW  Elec       q    Type
REMARK                         _______ _______ _______ _____ _____    ______ ____
ROOT
ATOM      1  N   UNL     1       2.680   5.390  18.582  0.00  0.00    +0.000 N 
ATOM      2  C   UNL     1       3.668   5.195  17.617  0.00  0.00    +0.000 C 
ATOM      3  O   UNL     1       4.197   6.063  16.934  0.00  0.00    +0.000 OA
ATOM      4  C   UNL     1       3.940   3.738  17.447  0.00  0.00    +0.000 C 
ATOM      5  C   UNL     1       4.853   3.155  16.657  0.00  0.00    +0.000 C 
ATOM      6  S   UNL     1       2.869   2.818  18.438  0.00  0.00    +0.000 S 
ATOM      7  C   UNL     1       2.133   4.252  19.154  0.00  0.00    +0.000 C 
ATOM      8  S   UNL     1       1.027   4.100  20.402  0.00  0.00    +0.000 S 
ENDROOT
BRANCH   1  13
ATOM      9  C   UNL     1       0.934  10.737  19.739  0.00  0.00    +0.000 C 
ATOM     10  C   UNL     1       1.391   9.340  19.449  0.00  0.00    +0.000 A 
ATOM     11  C   UNL     1       1.560   8.409  20.479  0.00  0.00    +0.000 A 
ATOM     12  C   UNL     1       1.999   7.113  20.199  0.00  0.00    +0.000 A 
ATOM     13  C   UNL     1       2.264   6.720  18.881  0.00  0.00    +0.000 A 
ATOM     14  C   UNL     1       2.065   7.645  17.848  0.00  0.00    +0.000 A 
ATOM     15  C   UNL     1       1.647   8.947  18.131  0.00  0.00    +0.000 A 
ENDBRANCH   1  13
BRANCH   5  16
ATOM     16  C   UNL     1       5.767   3.888  15.862  0.00  0.00    +0.000 A 
ATOM     17  C   UNL     1       5.724   4.183  14.507  0.00  0.00    +0.000 A 
ATOM     18  C   UNL     1       6.891   4.920  14.191  0.00  0.00    +0.000 A 
ATOM     19  C   UNL     1       7.588   5.040  15.366  0.00  0.00    +0.000 A 
ATOM     20  O   UNL     1       6.931   4.414  16.373  0.00  0.00    +0.000 OA
ENDBRANCH   5  16
TORSDOF 2
ENDMDL
MODEL 4
REMARK VINA RESULT:      -5.9      3.542      5.713
REMARK  Name = 
REMARK  3 active torsions:
REMARK  status: ('A' for Active; 'I' for Inactive)
REMARK    1  A    between atoms: C_1  and  C_2
REMARK    2  A    between atoms: C_5  and  N_6
REMARK    3  A    between atoms: C_10  and  C_11
REMARK                            x       y       z     vdW  Elec       q    Type
REMARK                         _______ _______ _______ _____ _____    ______ ____
ROOT
ATOM      1  N   UNL     1       2.708   5.310  18.639  0.00  0.00    +0.000 N 
ATOM      2  C   UNL     1       3.693   5.132  17.667  0.00  0.00    +0.000 C 
ATOM      3  O   UNL     1       4.183   6.005  16.962  0.00  0.00    +0.000 OA
ATOM      4  C   UNL     1       4.015   3.682  17.521  0.00  0.00    +0.000 C 
ATOM      5  C   UNL     1       4.941   3.118  16.732  0.00  0.00    +0.000 C 
ATOM      6  S   UNL     1       2.989   2.744  18.540  0.00  0.00    +0.000 S 
ATOM      7  C   UNL     1       2.209   4.163  19.238  0.00  0.00    +0.000 C 
ATOM      8  S   UNL     1       1.122   3.995  20.500  0.00  0.00    +0.000 S 
ENDROOT
BRANCH   1  13
ATOM      9  C   UNL     1       0.922  10.641  19.811  0.00  0.00    +0.000 C 
ATOM     10  C   UNL     1       1.386   9.251  19.493  0.00  0.00    +0.000 A 
ATOM     11  C   UNL     1       1.624   8.856  18.173  0.00  0.00    +0.000 A 
ATOM     12  C   UNL     1       2.045   7.555  17.887  0.00  0.00    +0.000 A 
ATOM     13  C   UNL     1       2.247   6.629  18.918  0.00  0.00    +0.000 A 
ATOM     14  C   UNL     1       2.037   7.036  20.241  0.00  0.00    +0.000 A 
ATOM     15  C   UNL     1       1.596   8.331  20.526  0.00  0.00    +0.000 A 
ENDBRANCH   1  13
BRANCH   5  16
ATOM     16  C   UNL     1       5.819   3.868  15.914  0.00  0.00    +0.000 A 
ATOM     17  C   UNL     1       5.754   4.133  14.554  0.00  0.00    +0.000 A 
ATOM     18  C   UNL     1       6.890   4.907  14.212  0.00  0.00    +0.000 A 
ATOM     19  C   UNL     1       7.591   5.078  15.378  0.00  0.00    +0.000 A 
ATOM     20  O   UNL     1       6.967   4.448  16.403  0.00  0.00    +0.000 OA
ENDBRANCH   5  16
TORSDOF 2
ENDMDL
MODEL 5
REMARK VINA RESULT:      -5.7      3.139      6.481
REMARK  Name = 
REMARK  3 active torsions:
REMARK  status: ('A' for Active; 'I' for Inactive)
REMARK    1  A    between atoms: C_1  and  C_2
REMARK    2  A    between atoms: C_5  and  N_6
REMARK    3  A    between atoms: C_10  and  C_11
REMARK                            x       y       z     vdW  Elec       q    Type
REMARK                         _______ _______ _______ _____ _____    ______ ____
ROOT
ATOM      1  N   UNL     1       5.264   4.355  17.128  0.00  0.00    +0.000 N 
ATOM      2  C   UNL     1       5.270   3.961  15.791  0.00  0.00    +0.000 C 
ATOM      3  O   UNL     1       4.402   3.311  15.222  0.00  0.00    +0.000 OA
ATOM      4  C   UNL     1       6.554   4.358  15.144  0.00  0.00    +0.000 C 
ATOM      5  C   UNL     1       6.915   4.203  13.862  0.00  0.00    +0.000 C 
ATOM      6  S   UNL     1       7.603   5.079  16.307  0.00  0.00    +0.000 S 
ATOM      7  C   UNL     1       6.407   4.983  17.599  0.00  0.00    +0.000 C 
ATOM      8  S   UNL     1       6.714   5.683  19.089  0.00  0.00    +0.000 S 
ENDROOT
BRANCH   1  13
ATOM      9  C   UNL     1       0.723   3.138  20.427  0.00  0.00    +0.000 C 
ATOM     10  C   UNL     1       1.902   3.464  19.561  0.00  0.00    +0.000 A 
ATOM     11  C   UNL     1       1.916   4.617  18.769  0.00  0.00    +0.000 A 
ATOM     12  C   UNL     1       3.014   4.905  17.955  0.00  0.00    +0.000 A 
ATOM     13  C   UNL     1       4.125   4.052  17.929  0.00  0.00    +0.000 A 
ATOM     14  C   UNL     1       4.120   2.914  18.745  0.00  0.00    +0.000 A 
ATOM     15  C   UNL     1       3.013   2.615  19.543  0.00  0.00    +0.000 A 
ENDBRANCH   1  13
BRANCH   5  16
ATOM     16  C   UNL     1       6.060   3.647  12.880  0.00  0.00    +0.000 A 
ATOM     17  C   UNL     1       4.877   4.144  12.353  0.00  0.00    +0.000 A 
ATOM     18  C   UNL     1       4.391   3.195  11.420  0.00  0.00    +0.000 A 
ATOM     19  C   UNL     1       5.299   2.168  11.422  0.00  0.00    +0.000 A 
ATOM     20  O   UNL     1       6.298   2.420  12.304  0.00  0.00    +0.000 OA
ENDBRANCH   5  16
TORSDOF 2
ENDMDL
MODEL 6
REMARK VINA RESULT:      -5.7      3.090      6.592
REMARK  Name = 
REMARK  3 active torsions:
REMARK  status: ('A' for Active; 'I' for Inactive)
REMARK    1  A    between atoms: C_1  and  C_2
REMARK    2  A    between atoms: C_5  and  N_6
REMARK    3  A    between atoms: C_10  and  C_11
REMARK                            x       y       z     vdW  Elec       q    Type
REMARK                         _______ _______ _______ _____ _____    ______ ____
ROOT
ATOM      1  N   UNL     1       5.283   4.388  17.085  0.00  0.00    +0.000 N 
ATOM      2  C   UNL     1       5.278   3.964  15.756  0.00  0.00    +0.000 C 
ATOM      3  O   UNL     1       4.407   3.297  15.211  0.00  0.00    +0.000 OA
ATOM      4  C   UNL     1       6.553   4.353  15.087  0.00  0.00    +0.000 C 
ATOM      5  C   UNL     1       6.902   4.171  13.805  0.00  0.00    +0.000 C 
ATOM      6  S   UNL     1       7.610   5.105  16.223  0.00  0.00    +0.000 S 
ATOM      7  C   UNL     1       6.428   5.031  17.529  0.00  0.00    +0.000 C 
ATOM      8  S   UNL     1       6.748   5.765  19.000  0.00  0.00    +0.000 S 
ENDROOT
BRANCH   1  13
ATOM      9  C   UNL     1       0.685   3.211  20.318  0.00  0.00    +0.000 C 
ATOM     10  C   UNL     1       1.891   3.510  19.480  0.00  0.00    +0.000 A 
ATOM     11  C   UNL     1       3.005   2.664  19.495  0.00  0.00    +0.000 A 
ATOM     12  C   UNL     1       4.129   2.958  18.719  0.00  0.00    +0.000 A 
ATOM     13  C   UNL     1       4.154   4.097  17.904  0.00  0.00    +0.000 A 
ATOM     14  C   UNL     1       3.026   4.926  17.869  0.00  0.00    +0.000 A 
ATOM     15  C   UNL     1       1.910   4.643  18.660  0.00  0.00    +0.000 A 
ENDBRANCH   1  13
BRANCH   5  16
ATOM     16  C   UNL     1       6.039   3.589  12.845  0.00  0.00    +0.000 A 
ATOM     17  C   UNL     1       6.208   2.445  12.079  0.00  0.00    +0.000 A 
ATOM     18  C   UNL     1       5.068   2.310  11.251  0.00  0.00    +0.000 A 
ATOM     19  C   UNL     1       4.257   3.374  11.552  0.00  0.00    +0.000 A 
ATOM     20  O   UNL     1       4.834   4.157  12.497  0.00  0.00    +0.000 OA
ENDBRANCH   5  16
TORSDOF 2
ENDMDL
MODEL 7
REMARK VINA RESULT:      -5.6      5.074      6.495
REMARK  Name = 
REMARK  3 active torsions:
REMARK  status: ('A' for Active; 'I' for Inactive)
REMARK    1  A    between atoms: C_1  and  C_2
REMARK    2  A    between atoms: C_5  and  N_6
REMARK    3  A    between atoms: C_10  and  C_11
REMARK                            x       y       z     vdW  Elec       q    Type
REMARK                         _______ _______ _______ _____ _____    ______ ____
ROOT
ATOM      1  N   UNL     1       1.560   8.415  19.697  0.00  0.00    +0.000 N 
ATOM      2  C   UNL     1       1.728   7.058  19.972  0.00  0.00    +0.000 C 
ATOM      3  O   UNL     1       1.323   6.463  20.962  0.00  0.00    +0.000 OA
ATOM      4  C   UNL     1       2.575   6.422  18.921  0.00  0.00    +0.000 C 
ATOM      5  C   UNL     1       2.916   5.131  18.806  0.00  0.00    +0.000 C 
ATOM      6  S   UNL     1       3.115   7.614  17.798  0.00  0.00    +0.000 S 
ATOM      7  C   UNL     1       2.205   8.909  18.574  0.00  0.00    +0.000 C 
ATOM      8  S   UNL     1       2.143  10.432  17.879  0.00  0.00    +0.000 S 
ENDROOT
BRANCH   1  13
ATOM      9  C   UNL     1      -1.613  11.576  23.293  0.00  0.00    +0.000 C 
ATOM     10  C   UNL     1      -0.778  10.748  22.363  0.00  0.00    +0.000 A 
ATOM     11  C   UNL     1       0.195   9.873  22.856  0.00  0.00    +0.000 A 
ATOM     12  C   UNL     1       0.977   9.115  21.981  0.00  0.00    +0.000 A 
ATOM     13  C   UNL     1       0.790   9.209  20.596  0.00  0.00    +0.000 A 
ATOM     14  C   UNL     1      -0.205  10.063  20.106  0.00  0.00    +0.000 A 
ATOM     15  C   UNL     1      -0.972  10.837  20.981  0.00  0.00    +0.000 A 
ENDBRANCH   1  13
BRANCH   5  16
ATOM     16  C   UNL     1       2.457   4.129  19.693  0.00  0.00    +0.000 A 
ATOM     17  C   UNL     1       1.289   3.381  19.657  0.00  0.00    +0.000 A 
ATOM     18  C   UNL     1       1.287   2.531  20.790  0.00  0.00    +0.000 A 
ATOM     19  C   UNL     1       2.452   2.799  21.461  0.00  0.00    +0.000 A 
ATOM     20  O   UNL     1       3.156   3.766  20.822  0.00  0.00    +0.000 OA
ENDBRANCH   5  16
TORSDOF 2
ENDMDL
MODEL 8
REMARK VINA RESULT:      -5.5      5.092      6.410
REMARK  Name = 
REMARK  3 active torsions:
REMARK  status: ('A' for Active; 'I' for Inactive)
REMARK    1  A    between atoms: C_1  and  C_2
REMARK    2  A    between atoms: C_5  and  N_6
REMARK    3  A    between atoms: C_10  and  C_11
REMARK                            x       y       z     vdW  Elec       q    Type
REMARK                         _______ _______ _______ _____ _____    ______ ____
ROOT
ATOM      1  N   UNL     1       1.539   8.422  19.671  0.00  0.00    +0.000 N 
ATOM      2  C   UNL     1       1.712   7.066  19.946  0.00  0.00    +0.000 C 
ATOM      3  O   UNL     1       1.292   6.465  20.927  0.00  0.00    +0.000 OA
ATOM      4  C   UNL     1       2.585   6.438  18.912  0.00  0.00    +0.000 C 
ATOM      5  C   UNL     1       2.937   5.150  18.800  0.00  0.00    +0.000 C 
ATOM      6  S   UNL     1       3.138   7.636  17.802  0.00  0.00    +0.000 S 
ATOM      7  C   UNL     1       2.203   8.923  18.562  0.00  0.00    +0.000 C 
ATOM      8  S   UNL     1       2.144  10.447  17.870  0.00  0.00    +0.000 S 
ENDROOT
BRANCH   1  13
ATOM      9  C   UNL     1      -1.586  11.629  23.268  0.00  0.00    +0.000 C 
ATOM     10  C   UNL     1      -0.777  10.794  22.321  0.00  0.00    +0.000 A 
ATOM     11  C   UNL     1      -0.983  10.871  20.940  0.00  0.00    +0.000 A 
ATOM     12  C   UNL     1      -0.233  10.080  20.065  0.00  0.00    +0.000 A 
ATOM     13  C   UNL     1       0.746   9.208  20.557  0.00  0.00    +0.000 A 
ATOM     14  C   UNL     1       0.971   9.155  21.938  0.00  0.00    +0.000 A 
ATOM     15  C   UNL     1       0.206   9.931  22.813  0.00  0.00    +0.000 A 
ENDBRANCH   1  13
BRANCH   5  16
ATOM     16  C   UNL     1       2.467   4.142  19.677  0.00  0.00    +0.000 A 
ATOM     17  C   UNL     1       1.334   3.348  19.586  0.00  0.00    +0.000 A 
ATOM     18  C   UNL     1       1.300   2.514  20.731  0.00  0.00    +0.000 A 
ATOM     19  C   UNL     1       2.414   2.838  21.463  0.00  0.00    +0.000 A 
ATOM     20  O   UNL     1       3.115   3.823  20.848  0.00  0.00    +0.000 OA
ENDBRANCH   5  16
TORSDOF 2
ENDMDL
MODEL 9
REMARK VINA RESULT:      -5.5     11.668     13.301
REMARK  Name = 
REMARK  3 active torsions:
REMARK  status: ('A' for Active; 'I' for Inactive)
REMARK    1  A    between atoms: C_1  and  C_2
REMARK    2  A    between atoms: C_5  and  N_6
REMARK    3  A    between atoms: C_10  and  C_11
REMARK                            x       y       z     vdW  Elec       q    Type
REMARK                         _______ _______ _______ _____ _____    ______ ____
ROOT
ATOM      1  N   UNL     1      -5.423  12.598  21.319  0.00  0.00    +0.000 N 
ATOM      2  C   UNL     1      -4.875  12.154  20.116  0.00  0.00    +0.000 C 
ATOM      3  O   UNL     1      -3.736  12.364  19.716  0.00  0.00    +0.000 OA
ATOM      4  C   UNL     1      -5.913  11.452  19.306  0.00  0.00    +0.000 C 
ATOM      5  C   UNL     1      -5.763  10.843  18.121  0.00  0.00    +0.000 C 
ATOM      6  S   UNL     1      -7.436  11.523  20.111  0.00  0.00    +0.000 S 
ATOM      7  C   UNL     1      -6.772  12.348  21.520  0.00  0.00    +0.000 C 
ATOM      8  S   UNL     1      -7.729  12.627  22.865  0.00  0.00    +0.000 S 
ENDROOT
BRANCH   1  13
ATOM      9  C   UNL     1      -2.145  15.505  25.033  0.00  0.00    +0.000 C 
ATOM     10  C   UNL     1      -2.995  14.737  24.066  0.00  0.00    +0.000 A 
ATOM     11  C   UNL     1      -2.995  13.338  24.063  0.00  0.00    +0.000 A 
ATOM     12  C   UNL     1      -3.781  12.631  23.150  0.00  0.00    +0.000 A 
ATOM     13  C   UNL     1      -4.592  13.310  22.232  0.00  0.00    +0.000 A 
ATOM     14  C   UNL     1      -4.613  14.710  22.258  0.00  0.00    +0.000 A 
ATOM     15  C   UNL     1      -3.811  15.417  23.157  0.00  0.00    +0.000 A 
ENDBRANCH   1  13
BRANCH   5  16
ATOM     16  C   UNL     1      -4.516  10.740  17.459  0.00  0.00    +0.000 A 
ATOM     17  C   UNL     1      -4.032  11.445  16.366  0.00  0.00    +0.000 A 
ATOM     18  C   UNL     1      -2.740  10.947  16.071  0.00  0.00    +0.000 A 
ATOM     19  C   UNL     1      -2.497   9.964  16.997  0.00  0.00    +0.000 A 
ATOM     20  O   UNL     1      -3.560   9.821  17.826  0.00  0.00    +0.000 OA
ENDBRANCH   5  16
TORSDOF 2
ENDMDL
