MODEL 1
REMARK VINA RESULT:      -8.7      0.000      0.000
REMARK  Name = 
REMARK  5 active torsions:
REMARK  status: ('A' for Active; 'I' for Inactive)
REMARK    1  A    between atoms: C_1  and  O_2
REMARK    2  A    between atoms: O_2  and  C_3
REMARK    3  A    between atoms: C_6  and  C_7
REMARK    4  A    between atoms: C_7  and  C_8
REMARK    5  A    between atoms: C_26  and  O_27
REMARK                            x       y       z     vdW  Elec       q    Type
REMARK                         _______ _______ _______ _____ _____    ______ ____
ROOT
ATOM      1  C   UNL     1       3.502   5.296  17.525  0.00  0.00    +0.000 C 
ATOM      2  C   UNL     1       3.201   4.024  18.294  0.00  0.00    +0.000 A 
ATOM      3  C   UNL     1       3.674   2.798  17.768  0.00  0.00    +0.000 A 
ATOM      4  C   UNL     1       3.562   1.613  18.486  0.00  0.00    +0.000 A 
ATOM      5  C   UNL     1       2.920   1.622  19.715  0.00  0.00    +0.000 A 
ATOM      6  C   UNL     1       2.388   2.811  20.235  0.00  0.00    +0.000 A 
ATOM      7 CL   UNL     1       1.580   2.622  21.756  0.00  0.00    +0.000 Cl
ATOM      8  C   UNL     1       2.539   4.032  19.537  0.00  0.00    +0.000 A 
ATOM      9  C   UNL     1       2.061   5.334  20.089  0.00  0.00    +0.000 C 
ATOM     10  O   UNL     1       1.514   5.358  21.186  0.00  0.00    +0.000 OA
ATOM     11  C   UNL     1       2.232   6.603  19.328  0.00  0.00    +0.000 A 
ATOM     12  C   UNL     1       1.770   7.849  19.814  0.00  0.00    +0.000 A 
ATOM     13 CL   UNL     1       0.955   8.094  21.323  0.00  0.00    +0.000 Cl
ATOM     14  C   UNL     1       1.955   9.019  19.064  0.00  0.00    +0.000 A 
ATOM     15  C   UNL     1       2.549   8.969  17.812  0.00  0.00    +0.000 A 
ATOM     16  C   UNL     1       2.982   7.747  17.314  0.00  0.00    +0.000 A 
ATOM     17  C   UNL     1       2.876   6.562  18.078  0.00  0.00    +0.000 A 
ENDROOT
BRANCH   1  18
ATOM     18  C   UNL     1       5.032   5.496  17.269  0.00  0.00    +0.000 C 
BRANCH  18  22
ATOM     19  C   UNL     1       6.610   4.299  13.394  0.00  0.00    +0.000 A 
ATOM     20  C   UNL     1       5.394   3.794  13.857  0.00  0.00    +0.000 A 
ATOM     21  C   UNL     1       4.885   4.165  15.102  0.00  0.00    +0.000 A 
ATOM     22  C   UNL     1       5.601   5.021  15.945  0.00  0.00    +0.000 A 
ATOM     23  C   UNL     1       6.833   5.513  15.491  0.00  0.00    +0.000 A 
ATOM     24  C   UNL     1       7.320   5.176  14.217  0.00  0.00    +0.000 A 
BRANCH  19  26
ATOM     25  C   UNL     1       6.236   2.716  11.646  0.00  0.00    +0.000 C 
ATOM     26  O   UNL     1       6.920   3.856  12.140  0.00  0.00    +0.000 OA
ENDBRANCH  19  26
BRANCH  24  27
ATOM     27  O   UNL     1       8.489   5.752  13.806  0.00  0.00    +0.000 OA
ATOM     28  H   UNL     1       8.469   6.698  14.021  0.00  0.00    +0.000 HD
ENDBRANCH  24  27
ENDBRANCH  18  22
ENDBRANCH   1  18
TORSDOF 4
ENDMDL
MODEL 2
REMARK VINA RESULT:      -7.7      3.001      7.662
REMARK  Name = 
REMARK  5 active torsions:
REMARK  status: ('A' for Active; 'I' for Inactive)
REMARK    1  A    between atoms: C_1  and  O_2
REMARK    2  A    between atoms: O_2  and  C_3
REMARK    3  A    between atoms: C_6  and  C_7
REMARK    4  A    between atoms: C_7  and  C_8
REMARK    5  A    between atoms: C_26  and  O_27
REMARK                            x       y       z     vdW  Elec       q    Type
REMARK                         _______ _______ _______ _____ _____    ______ ____
ROOT
ATOM      1  C   UNL     1       2.431   5.952  18.664  0.00  0.00    +0.000 C 
ATOM      2  C   UNL     1       3.449   6.036  17.542  0.00  0.00    +0.000 A 
ATOM      3  C   UNL     1       3.688   7.300  16.950  0.00  0.00    +0.000 A 
ATOM      4  C   UNL     1       4.705   7.481  16.021  0.00  0.00    +0.000 A 
ATOM      5  C   UNL     1       5.460   6.390  15.619  0.00  0.00    +0.000 A 
ATOM      6  C   UNL     1       5.208   5.113  16.144  0.00  0.00    +0.000 A 
ATOM      7 CL   UNL     1       6.216   3.865  15.491  0.00  0.00    +0.000 Cl
ATOM      8  C   UNL     1       4.209   4.925  17.128  0.00  0.00    +0.000 A 
ATOM      9  C   UNL     1       3.959   3.603  17.772  0.00  0.00    +0.000 C 
ATOM     10  O   UNL     1       4.638   2.635  17.443  0.00  0.00    +0.000 OA
ATOM     11  C   UNL     1       2.897   3.435  18.804  0.00  0.00    +0.000 A 
ATOM     12  C   UNL     1       2.622   2.191  19.417  0.00  0.00    +0.000 A 
ATOM     13 CL   UNL     1       3.446   0.705  19.078  0.00  0.00    +0.000 Cl
ATOM     14  C   UNL     1       1.613   2.081  20.385  0.00  0.00    +0.000 A 
ATOM     15  C   UNL     1       0.836   3.178  20.723  0.00  0.00    +0.000 A 
ATOM     16  C   UNL     1       1.081   4.398  20.107  0.00  0.00    +0.000 A 
ATOM     17  C   UNL     1       2.137   4.557  19.182  0.00  0.00    +0.000 A 
ENDROOT
BRANCH   1  18
ATOM     18  C   UNL     1       2.753   6.929  19.843  0.00  0.00    +0.000 C 
BRANCH  18  22
ATOM     19  C   UNL     1      -0.214  10.015  20.626  0.00  0.00    +0.000 A 
ATOM     20  C   UNL     1       0.524  10.018  19.441  0.00  0.00    +0.000 A 
ATOM     21  C   UNL     1       1.484   9.037  19.185  0.00  0.00    +0.000 A 
ATOM     22  C   UNL     1       1.769   8.047  20.131  0.00  0.00    +0.000 A 
ATOM     23  C   UNL     1       1.043   8.054  21.330  0.00  0.00    +0.000 A 
ATOM     24  C   UNL     1       0.044   9.013  21.564  0.00  0.00    +0.000 A 
BRANCH  19  26
ATOM     25  C   UNL     1      -1.571  11.588  19.451  0.00  0.00    +0.000 C 
ATOM     26  O   UNL     1      -1.132  11.024  20.675  0.00  0.00    +0.000 OA
ENDBRANCH  19  26
BRANCH  24  27
ATOM     27  O   UNL     1      -0.678   8.915  22.721  0.00  0.00    +0.000 OA
ATOM     28  H   UNL     1      -1.546   8.530  22.522  0.00  0.00    +0.000 HD
ENDBRANCH  24  27
ENDBRANCH  18  22
ENDBRANCH   1  18
TORSDOF 4
ENDMDL
MODEL 3
REMARK VINA RESULT:      -7.7      3.069      7.592
REMARK  Name = 
REMARK  5 active torsions:
REMARK  status: ('A' for Active; 'I' for Inactive)
REMARK    1  A    between atoms: C_1  and  O_2
REMARK    2  A    between atoms: O_2  and  C_3
REMARK    3  A    between atoms: C_6  and  C_7
REMARK    4  A    between atoms: C_7  and  C_8
REMARK    5  A    between atoms: C_26  and  O_27
REMARK                            x       y       z     vdW  Elec       q    Type
REMARK                         _______ _______ _______ _____ _____    ______ ____
ROOT
ATOM      1  C   UNL     1       2.470   5.941  18.554  0.00  0.00    +0.000 C 
ATOM      2  C   UNL     1       3.504   6.001  17.445  0.00  0.00    +0.000 A 
ATOM      3  C   UNL     1       3.755   7.252  16.833  0.00  0.00    +0.000 A 
ATOM      4  C   UNL     1       4.786   7.413  15.916  0.00  0.00    +0.000 A 
ATOM      5  C   UNL     1       5.544   6.313  15.545  0.00  0.00    +0.000 A 
ATOM      6  C   UNL     1       5.280   5.047  16.090  0.00  0.00    +0.000 A 
ATOM      7 CL   UNL     1       6.294   3.784  15.476  0.00  0.00    +0.000 Cl
ATOM      8  C   UNL     1       4.266   4.880  17.063  0.00  0.00    +0.000 A 
ATOM      9  C   UNL     1       4.003   3.570  17.728  0.00  0.00    +0.000 C 
ATOM     10  O   UNL     1       4.684   2.595  17.428  0.00  0.00    +0.000 OA
ATOM     11  C   UNL     1       2.926   3.426  18.747  0.00  0.00    +0.000 A 
ATOM     12  C   UNL     1       2.638   2.193  19.380  0.00  0.00    +0.000 A 
ATOM     13 CL   UNL     1       3.463   0.699  19.080  0.00  0.00    +0.000 Cl
ATOM     14  C   UNL     1       1.616   2.104  20.335  0.00  0.00    +0.000 A 
ATOM     15  C   UNL     1       0.837   3.209  20.641  0.00  0.00    +0.000 A 
ATOM     16  C   UNL     1       1.094   4.417  20.006  0.00  0.00    +0.000 A 
ATOM     17  C   UNL     1       2.164   4.556  19.093  0.00  0.00    +0.000 A 
ENDROOT
BRANCH   1  18
ATOM     18  C   UNL     1       2.778   6.938  19.719  0.00  0.00    +0.000 C 
BRANCH  18  22
ATOM     19  C   UNL     1       0.017  10.190  20.579  0.00  0.00    +0.000 A 
ATOM     20  C   UNL     1       0.280   9.206  21.533  0.00  0.00    +0.000 A 
ATOM     21  C   UNL     1       1.158   8.155  21.263  0.00  0.00    +0.000 A 
ATOM     22  C   UNL     1       1.764   8.030  20.009  0.00  0.00    +0.000 A 
ATOM     23  C   UNL     1       1.485   9.005  19.042  0.00  0.00    +0.000 A 
ATOM     24  C   UNL     1       0.639  10.089  19.333  0.00  0.00    +0.000 A 
BRANCH  19  26
ATOM     25  C   UNL     1      -0.874  11.394  22.438  0.00  0.00    +0.000 C 
ATOM     26  O   UNL     1      -0.830  11.157  21.041  0.00  0.00    +0.000 OA
ENDBRANCH  19  26
BRANCH  24  27
ATOM     27  O   UNL     1       0.471  11.045  18.370  0.00  0.00    +0.000 OA
ATOM     28  H   UNL     1       1.066  11.789  18.554  0.00  0.00    +0.000 HD
ENDBRANCH  24  27
ENDBRANCH  18  22
ENDBRANCH   1  18
TORSDOF 4
ENDMDL
MODEL 4
REMARK VINA RESULT:      -7.6      3.385      7.304
REMARK  Name = 
REMARK  5 active torsions:
REMARK  status: ('A' for Active; 'I' for Inactive)
REMARK    1  A    between atoms: C_1  and  O_2
REMARK    2  A    between atoms: O_2  and  C_3
REMARK    3  A    between atoms: C_6  and  C_7
REMARK    4  A    between atoms: C_7  and  C_8
REMARK    5  A    between atoms: C_26  and  O_27
REMARK                            x       y       z     vdW  Elec       q    Type
REMARK                         _______ _______ _______ _____ _____    ______ ____
ROOT
ATOM      1  C   UNL     1       2.621   6.084  19.038  0.00  0.00    +0.000 C 
ATOM      2  C   UNL     1       3.845   6.212  18.151  0.00  0.00    +0.000 A 
ATOM      3  C   UNL     1       3.961   7.362  17.334  0.00  0.00    +0.000 A 
ATOM      4  C   UNL     1       5.117   7.617  16.607  0.00  0.00    +0.000 A 
ATOM      5  C   UNL     1       6.154   6.697  16.634  0.00  0.00    +0.000 A 
ATOM      6  C   UNL     1       6.044   5.519  17.388  0.00  0.00    +0.000 A 
ATOM      7 CL   UNL     1       7.415   4.466  17.263  0.00  0.00    +0.000 Cl
ATOM      8  C   UNL     1       4.893   5.271  18.172  0.00  0.00    +0.000 A 
ATOM      9  C   UNL     1       4.766   4.072  19.051  0.00  0.00    +0.000 C 
ATOM     10  O   UNL     1       5.687   3.263  19.102  0.00  0.00    +0.000 OA
ATOM     11  C   UNL     1       3.539   3.837  19.863  0.00  0.00    +0.000 A 
ATOM     12  C   UNL     1       3.380   2.699  20.688  0.00  0.00    +0.000 A 
ATOM     13 CL   UNL     1       4.547   1.433  20.882  0.00  0.00    +0.000 Cl
ATOM     14  C   UNL     1       2.208   2.521  21.437  0.00  0.00    +0.000 A 
ATOM     15  C   UNL     1       1.165   3.430  21.344  0.00  0.00    +0.000 A 
ATOM     16  C   UNL     1       1.301   4.536  20.515  0.00  0.00    +0.000 A 
ATOM     17  C   UNL     1       2.498   4.781  19.805  0.00  0.00    +0.000 A 
ENDROOT
BRANCH   1  18
ATOM     18  C   UNL     1       2.436   7.312  19.990  0.00  0.00    +0.000 C 
BRANCH  18  22
ATOM     19  C   UNL     1      -0.333  10.417  18.713  0.00  0.00    +0.000 A 
ATOM     20  C   UNL     1       0.408   9.692  17.778  0.00  0.00    +0.000 A 
ATOM     21  C   UNL     1       1.305   8.701  18.179  0.00  0.00    +0.000 A 
ATOM     22  C   UNL     1       1.523   8.435  19.535  0.00  0.00    +0.000 A 
ATOM     23  C   UNL     1       0.796   9.176  20.476  0.00  0.00    +0.000 A 
ATOM     24  C   UNL     1      -0.141  10.140  20.069  0.00  0.00    +0.000 A 
BRANCH  19  26
ATOM     25  C   UNL     1      -2.242  10.801  17.333  0.00  0.00    +0.000 C 
ATOM     26  O   UNL     1      -1.186  11.310  18.130  0.00  0.00    +0.000 OA
ENDBRANCH  19  26
BRANCH  24  27
ATOM     27  O   UNL     1      -0.872  10.771  21.037  0.00  0.00    +0.000 OA
ATOM     28  H   UNL     1      -1.647  10.230  21.253  0.00  0.00    +0.000 HD
ENDBRANCH  24  27
ENDBRANCH  18  22
ENDBRANCH   1  18
TORSDOF 4
ENDMDL
MODEL 5
REMARK VINA RESULT:      -7.6      3.151      6.731
REMARK  Name = 
REMARK  5 active torsions:
REMARK  status: ('A' for Active; 'I' for Inactive)
REMARK    1  A    between atoms: C_1  and  O_2
REMARK    2  A    between atoms: O_2  and  C_3
REMARK    3  A    between atoms: C_6  and  C_7
REMARK    4  A    between atoms: C_7  and  C_8
REMARK    5  A    between atoms: C_26  and  O_27
REMARK                            x       y       z     vdW  Elec       q    Type
REMARK                         _______ _______ _______ _____ _____    ______ ____
ROOT
ATOM      1  C   UNL     1       2.967   6.359  18.560  0.00  0.00    +0.000 C 
ATOM      2  C   UNL     1       2.517   5.099  19.274  0.00  0.00    +0.000 A 
ATOM      3  C   UNL     1       1.603   5.231  20.348  0.00  0.00    +0.000 A 
ATOM      4  C   UNL     1       1.036   4.116  20.954  0.00  0.00    +0.000 A 
ATOM      5  C   UNL     1       1.419   2.849  20.540  0.00  0.00    +0.000 A 
ATOM      6  C   UNL     1       2.368   2.687  19.519  0.00  0.00    +0.000 A 
ATOM      7 CL   UNL     1       2.759   1.036  19.169  0.00  0.00    +0.000 Cl
ATOM      8  C   UNL     1       2.914   3.813  18.860  0.00  0.00    +0.000 A 
ATOM      9  C   UNL     1       3.865   3.688  17.716  0.00  0.00    +0.000 C 
ATOM     10  O   UNL     1       4.192   2.573  17.325  0.00  0.00    +0.000 OA
ATOM     11  C   UNL     1       4.426   4.894  17.044  0.00  0.00    +0.000 A 
ATOM     12  C   UNL     1       5.345   4.808  15.972  0.00  0.00    +0.000 A 
ATOM     13 CL   UNL     1       5.950   3.335  15.289  0.00  0.00    +0.000 Cl
ATOM     14  C   UNL     1       5.846   5.970  15.369  0.00  0.00    +0.000 A 
ATOM     15  C   UNL     1       5.489   7.223  15.843  0.00  0.00    +0.000 A 
ATOM     16  C   UNL     1       4.608   7.317  16.913  0.00  0.00    +0.000 A 
ATOM     17  C   UNL     1       4.030   6.166  17.494  0.00  0.00    +0.000 A 
ENDROOT
BRANCH   1  18
ATOM     18  C   UNL     1       1.769   7.200  18.008  0.00  0.00    +0.000 C 
BRANCH  18  22
ATOM     19  C   UNL     1       1.427  11.247  19.569  0.00  0.00    +0.000 A 
ATOM     20  C   UNL     1       0.981  10.154  20.314  0.00  0.00    +0.000 A 
ATOM     21  C   UNL     1       1.079   8.854  19.818  0.00  0.00    +0.000 A 
ATOM     22  C   UNL     1       1.584   8.610  18.537  0.00  0.00    +0.000 A 
ATOM     23  C   UNL     1       2.013   9.708  17.778  0.00  0.00    +0.000 A 
ATOM     24  C   UNL     1       1.958  11.011  18.300  0.00  0.00    +0.000 A 
BRANCH  19  26
ATOM     25  C   UNL     1       0.293  12.517  21.243  0.00  0.00    +0.000 C 
ATOM     26  O   UNL     1       1.288  12.430  20.237  0.00  0.00    +0.000 OA
ENDBRANCH  19  26
BRANCH  24  27
ATOM     27  O   UNL     1       2.465  12.026  17.537  0.00  0.00    +0.000 OA
ATOM     28  H   UNL     1       1.731  12.518  17.135  0.00  0.00    +0.000 HD
ENDBRANCH  24  27
ENDBRANCH  18  22
ENDBRANCH   1  18
TORSDOF 4
ENDMDL
MODEL 6
REMARK VINA RESULT:      -7.6      3.084      7.129
REMARK  Name = 
REMARK  5 active torsions:
REMARK  status: ('A' for Active; 'I' for Inactive)
REMARK    1  A    between atoms: C_1  and  O_2
REMARK    2  A    between atoms: O_2  and  C_3
REMARK    3  A    between atoms: C_6  and  C_7
REMARK    4  A    between atoms: C_7  and  C_8
REMARK    5  A    between atoms: C_26  and  O_27
REMARK                            x       y       z     vdW  Elec       q    Type
REMARK                         _______ _______ _______ _____ _____    ______ ____
ROOT
ATOM      1  C   UNL     1       3.240   6.392  18.834  0.00  0.00    +0.000 C 
ATOM      2  C   UNL     1       2.559   5.118  19.298  0.00  0.00    +0.000 A 
ATOM      3  C   UNL     1       1.525   5.224  20.259  0.00  0.00    +0.000 A 
ATOM      4  C   UNL     1       0.761   4.122  20.622  0.00  0.00    +0.000 A 
ATOM      5  C   UNL     1       1.057   2.881  20.079  0.00  0.00    +0.000 A 
ATOM      6  C   UNL     1       2.114   2.733  19.169  0.00  0.00    +0.000 A 
ATOM      7 CL   UNL     1       2.367   1.105  18.633  0.00  0.00    +0.000 Cl
ATOM      8  C   UNL     1       2.867   3.856  18.753  0.00  0.00    +0.000 A 
ATOM      9  C   UNL     1       3.947   3.760  17.728  0.00  0.00    +0.000 C 
ATOM     10  O   UNL     1       4.202   2.672  17.221  0.00  0.00    +0.000 OA
ATOM     11  C   UNL     1       4.725   4.961  17.312  0.00  0.00    +0.000 A 
ATOM     12  C   UNL     1       5.769   4.899  16.359  0.00  0.00    +0.000 A 
ATOM     13 CL   UNL     1       6.298   3.462  15.548  0.00  0.00    +0.000 Cl
ATOM     14  C   UNL     1       6.473   6.056  15.997  0.00  0.00    +0.000 A 
ATOM     15  C   UNL     1       6.193   7.272  16.601  0.00  0.00    +0.000 A 
ATOM     16  C   UNL     1       5.188   7.338  17.557  0.00  0.00    +0.000 A 
ATOM     17  C   UNL     1       4.412   6.205  17.890  0.00  0.00    +0.000 A 
ENDROOT
BRANCH   1  18
ATOM     18  C   UNL     1       2.229   7.443  18.268  0.00  0.00    +0.000 C 
BRANCH  18  22
ATOM     19  C   UNL     1       0.770  10.487  21.015  0.00  0.00    +0.000 A 
ATOM     20  C   UNL     1       1.122   9.218  21.477  0.00  0.00    +0.000 A 
ATOM     21  C   UNL     1       1.583   8.233  20.602  0.00  0.00    +0.000 A 
ATOM     22  C   UNL     1       1.661   8.473  19.227  0.00  0.00    +0.000 A 
ATOM     23  C   UNL     1       1.287   9.740  18.757  0.00  0.00    +0.000 A 
ATOM     24  C   UNL     1       0.871  10.746  19.646  0.00  0.00    +0.000 A 
BRANCH  19  26
ATOM     25  C   UNL     1      -0.764  10.981  22.776  0.00  0.00    +0.000 C 
ATOM     26  O   UNL     1       0.386  11.326  22.022  0.00  0.00    +0.000 OA
ENDBRANCH  19  26
BRANCH  24  27
ATOM     27  O   UNL     1       0.596  11.981  19.130  0.00  0.00    +0.000 OA
ATOM     28  H   UNL     1       1.197  12.157  18.389  0.00  0.00    +0.000 HD
ENDBRANCH  24  27
ENDBRANCH  18  22
ENDBRANCH   1  18
TORSDOF 4
ENDMDL
MODEL 7
REMARK VINA RESULT:      -7.6      5.178      8.627
REMARK  Name = 
REMARK  5 active torsions:
REMARK  status: ('A' for Active; 'I' for Inactive)
REMARK    1  A    between atoms: C_1  and  O_2
REMARK    2  A    between atoms: O_2  and  C_3
REMARK    3  A    between atoms: C_6  and  C_7
REMARK    4  A    between atoms: C_7  and  C_8
REMARK    5  A    between atoms: C_26  and  O_27
REMARK                            x       y       z     vdW  Elec       q    Type
REMARK                         _______ _______ _______ _____ _____    ______ ____
ROOT
ATOM      1  C   UNL     1      -1.294  10.421  19.367  0.00  0.00    +0.000 C 
ATOM      2  C   UNL     1      -1.612  11.228  20.612  0.00  0.00    +0.000 A 
ATOM      3  C   UNL     1      -0.764  11.085  21.736  0.00  0.00    +0.000 A 
ATOM      4  C   UNL     1      -0.907  11.895  22.856  0.00  0.00    +0.000 A 
ATOM      5  C   UNL     1      -1.939  12.820  22.898  0.00  0.00    +0.000 A 
ATOM      6  C   UNL     1      -2.833  12.943  21.824  0.00  0.00    +0.000 A 
ATOM      7 CL   UNL     1      -4.086  14.113  22.073  0.00  0.00    +0.000 Cl
ATOM      8  C   UNL     1      -2.668  12.160  20.658  0.00  0.00    +0.000 A 
ATOM      9  C   UNL     1      -3.544  12.313  19.459  0.00  0.00    +0.000 C 
ATOM     10  O   UNL     1      -4.445  13.145  19.475  0.00  0.00    +0.000 OA
ATOM     11  C   UNL     1      -3.347  11.470  18.247  0.00  0.00    +0.000 A 
ATOM     12  C   UNL     1      -4.174  11.576  17.104  0.00  0.00    +0.000 A 
ATOM     13 CL   UNL     1      -5.510  12.667  16.935  0.00  0.00    +0.000 Cl
ATOM     14  C   UNL     1      -3.950  10.763  15.984  0.00  0.00    +0.000 A 
ATOM     15  C   UNL     1      -2.946   9.807  15.994  0.00  0.00    +0.000 A 
ATOM     16  C   UNL     1      -2.145   9.677  17.122  0.00  0.00    +0.000 A 
ATOM     17  C   UNL     1      -2.300  10.531  18.237  0.00  0.00    +0.000 A 
ENDROOT
BRANCH   1  18
ATOM     18  C   UNL     1       0.161  10.667  18.846  0.00  0.00    +0.000 C 
BRANCH  18  22
ATOM     19  C   UNL     1       2.943   7.329  18.621  0.00  0.00    +0.000 A 
ATOM     20  C   UNL     1       2.820   8.229  17.561  0.00  0.00    +0.000 A 
ATOM     21  C   UNL     1       1.924   9.297  17.622  0.00  0.00    +0.000 A 
ATOM     22  C   UNL     1       1.087   9.471  18.728  0.00  0.00    +0.000 A 
ATOM     23  C   UNL     1       1.193   8.556  19.785  0.00  0.00    +0.000 A 
ATOM     24  C   UNL     1       2.130   7.510  19.742  0.00  0.00    +0.000 A 
BRANCH  19  26
ATOM     25  C   UNL     1       3.528   5.215  17.679  0.00  0.00    +0.000 C 
ATOM     26  O   UNL     1       3.899   6.380  18.397  0.00  0.00    +0.000 OA
ENDBRANCH  19  26
BRANCH  24  27
ATOM     27  O   UNL     1       2.235   6.701  20.839  0.00  0.00    +0.000 OA
ATOM     28  H   UNL     1       2.743   5.909  20.602  0.00  0.00    +0.000 HD
ENDBRANCH  24  27
ENDBRANCH  18  22
ENDBRANCH   1  18
TORSDOF 4
ENDMDL
MODEL 8
REMARK VINA RESULT:      -7.6      2.929      6.962
REMARK  Name = 
REMARK  5 active torsions:
REMARK  status: ('A' for Active; 'I' for Inactive)
REMARK    1  A    between atoms: C_1  and  O_2
REMARK    2  A    between atoms: O_2  and  C_3
REMARK    3  A    between atoms: C_6  and  C_7
REMARK    4  A    between atoms: C_7  and  C_8
REMARK    5  A    between atoms: C_26  and  O_27
REMARK                            x       y       z     vdW  Elec       q    Type
REMARK                         _______ _______ _______ _____ _____    ______ ____
ROOT
ATOM      1  C   UNL     1       3.065   6.186  18.819  0.00  0.00    +0.000 C 
ATOM      2  C   UNL     1       2.691   4.875  19.484  0.00  0.00    +0.000 A 
ATOM      3  C   UNL     1       1.856   4.920  20.626  0.00  0.00    +0.000 A 
ATOM      4  C   UNL     1       1.355   3.758  21.200  0.00  0.00    +0.000 A 
ATOM      5  C   UNL     1       1.730   2.527  20.682  0.00  0.00    +0.000 A 
ATOM      6  C   UNL     1       2.604   2.449  19.587  0.00  0.00    +0.000 A 
ATOM      7 CL   UNL     1       2.999   0.832  19.107  0.00  0.00    +0.000 Cl
ATOM      8  C   UNL     1       3.080   3.626  18.962  0.00  0.00    +0.000 A 
ATOM      9  C   UNL     1       3.947   3.592  17.747  0.00  0.00    +0.000 C 
ATOM     10  O   UNL     1       4.265   2.511  17.264  0.00  0.00    +0.000 OA
ATOM     11  C   UNL     1       4.435   4.849  17.114  0.00  0.00    +0.000 A 
ATOM     12  C   UNL     1       5.275   4.850  15.975  0.00  0.00    +0.000 A 
ATOM     13 CL   UNL     1       5.855   3.436  15.159  0.00  0.00    +0.000 Cl
ATOM     14  C   UNL     1       5.709   6.058  15.411  0.00  0.00    +0.000 A 
ATOM     15  C   UNL     1       5.364   7.271  15.987  0.00  0.00    +0.000 A 
ATOM     16  C   UNL     1       4.563   7.280  17.121  0.00  0.00    +0.000 A 
ATOM     17  C   UNL     1       4.050   6.083  17.669  0.00  0.00    +0.000 A 
ENDROOT
BRANCH   1  18
ATOM     18  C   UNL     1       1.814   7.031  18.408  0.00  0.00    +0.000 C 
BRANCH  18  22
ATOM     19  C   UNL     1       1.013  10.817  20.400  0.00  0.00    +0.000 A 
ATOM     20  C   UNL     1       1.175  10.759  19.015  0.00  0.00    +0.000 A 
ATOM     21  C   UNL     1       1.440   9.550  18.368  0.00  0.00    +0.000 A 
ATOM     22  C   UNL     1       1.600   8.366  19.096  0.00  0.00    +0.000 A 
ATOM     23  C   UNL     1       1.459   8.426  20.489  0.00  0.00    +0.000 A 
ATOM     24  C   UNL     1       1.144   9.635  21.132  0.00  0.00    +0.000 A 
BRANCH  19  26
ATOM     25  C   UNL     1       1.584  13.133  20.475  0.00  0.00    +0.000 C 
ATOM     26  O   UNL     1       0.716  12.074  20.842  0.00  0.00    +0.000 OA
ENDBRANCH  19  26
BRANCH  24  27
ATOM     27  O   UNL     1       0.945   9.606  22.485  0.00  0.00    +0.000 OA
ATOM     28  H   UNL     1       0.219   8.995  22.686  0.00  0.00    +0.000 HD
ENDBRANCH  24  27
ENDBRANCH  18  22
ENDBRANCH   1  18
TORSDOF 4
ENDMDL
MODEL 9
REMARK VINA RESULT:      -7.5      3.297      7.573
REMARK  Name = 
REMARK  5 active torsions:
REMARK  status: ('A' for Active; 'I' for Inactive)
REMARK    1  A    between atoms: C_1  and  O_2
REMARK    2  A    between atoms: O_2  and  C_3
REMARK    3  A    between atoms: C_6  and  C_7
REMARK    4  A    between atoms: C_7  and  C_8
REMARK    5  A    between atoms: C_26  and  O_27
REMARK                            x       y       z     vdW  Elec       q    Type
REMARK                         _______ _______ _______ _____ _____    ______ ____
ROOT
ATOM      1  C   UNL     1       2.600   6.002  19.230  0.00  0.00    +0.000 C 
ATOM      2  C   UNL     1       3.662   6.145  18.157  0.00  0.00    +0.000 A 
ATOM      3  C   UNL     1       3.667   7.325  17.375  0.00  0.00    +0.000 A 
ATOM      4  C   UNL     1       4.691   7.591  16.475  0.00  0.00    +0.000 A 
ATOM      5  C   UNL     1       5.697   6.654  16.294  0.00  0.00    +0.000 A 
ATOM      6  C   UNL     1       5.687   5.448  17.011  0.00  0.00    +0.000 A 
ATOM      7 CL   UNL     1       6.994   4.379  16.621  0.00  0.00    +0.000 Cl
ATOM      8  C   UNL     1       4.677   5.188  17.967  0.00  0.00    +0.000 A 
ATOM      9  C   UNL     1       4.671   3.956  18.810  0.00  0.00    +0.000 C 
ATOM     10  O   UNL     1       5.569   3.131  18.677  0.00  0.00    +0.000 OA
ATOM     11  C   UNL     1       3.591   3.709  19.806  0.00  0.00    +0.000 A 
ATOM     12  C   UNL     1       3.545   2.541  20.604  0.00  0.00    +0.000 A 
ATOM     13 CL   UNL     1       4.699   1.249  20.553  0.00  0.00    +0.000 Cl
ATOM     14  C   UNL     1       2.510   2.352  21.530  0.00  0.00    +0.000 A 
ATOM     15  C   UNL     1       1.487   3.281  21.647  0.00  0.00    +0.000 A 
ATOM     16  C   UNL     1       1.509   4.417  20.849  0.00  0.00    +0.000 A 
ATOM     17  C   UNL     1       2.576   4.671  19.958  0.00  0.00    +0.000 A 
ENDROOT
BRANCH   1  18
ATOM     18  C   UNL     1       2.604   7.193  20.244  0.00  0.00    +0.000 C 
BRANCH  18  22
ATOM     19  C   UNL     1      -0.495  10.240  20.032  0.00  0.00    +0.000 A 
ATOM     20  C   UNL     1      -0.371   9.425  21.158  0.00  0.00    +0.000 A 
ATOM     21  C   UNL     1       0.614   8.440  21.231  0.00  0.00    +0.000 A 
ATOM     22  C   UNL     1       1.479   8.207  20.157  0.00  0.00    +0.000 A 
ATOM     23  C   UNL     1       1.343   9.010  19.016  0.00  0.00    +0.000 A 
ATOM     24  C   UNL     1       0.381  10.034  18.964  0.00  0.00    +0.000 A 
BRANCH  19  26
ATOM     25  C   UNL     1      -1.189  12.367  20.865  0.00  0.00    +0.000 C 
ATOM     26  O   UNL     1      -1.486  11.171  20.163  0.00  0.00    +0.000 OA
ENDBRANCH  19  26
BRANCH  24  27
ATOM     27  O   UNL     1       0.354  10.830  17.853  0.00  0.00    +0.000 OA
ATOM     28  H   UNL     1      -0.523  11.236  17.775  0.00  0.00    +0.000 HD
ENDBRANCH  24  27
ENDBRANCH  18  22
ENDBRANCH   1  18
TORSDOF 4
ENDMDL
