MODEL 1
REMARK VINA RESULT:      -8.2      0.000      0.000
REMARK  Name = 
REMARK  5 active torsions:
REMARK  status: ('A' for Active; 'I' for Inactive)
REMARK    1  A    between atoms: C_1  and  C_2
REMARK    2  A    between atoms: C_3  and  C_4
REMARK    3  A    between atoms: C_4  and  C_5
REMARK    4  A    between atoms: C_5  and  N_6
REMARK    5  A    between atoms: N_9  and  C_10
REMARK                            x       y       z     vdW  Elec       q    Type
REMARK                         _______ _______ _______ _____ _____    ______ ____
ROOT
ATOM      1  C   UNL     1       1.230  11.183  19.218  0.00  0.00    +0.000 C 
ENDROOT
BRANCH   1   2
ATOM      2  N   UNL     1       0.527   9.897  19.034  0.00  0.00    +0.000 NA
ATOM      3  C   UNL     1       1.080   9.054  17.950  0.00  0.00    +0.000 C 
ATOM      4  C   UNL     1       2.411   8.358  18.294  0.00  0.00    +0.000 C 
ATOM      5  N   UNL     1       2.230   7.475  19.454  0.00  0.00    +0.000 N 
ATOM      6  C   UNL     1       1.685   8.155  20.641  0.00  0.00    +0.000 C 
ATOM      7  C   UNL     1       0.484   9.095  20.289  0.00  0.00    +0.000 C 
BRANCH   5   8
ATOM      8  C   UNL     1       2.237   6.096  19.335  0.00  0.00    +0.000 A 
ATOM      9  C   UNL     1       2.452   5.473  18.091  0.00  0.00    +0.000 A 
ATOM     10  C   UNL     1       2.387   4.079  17.941  0.00  0.00    +0.000 A 
ATOM     11  C   UNL     1       2.118   3.279  19.042  0.00  0.00    +0.000 A 
ATOM     12  F   UNL     1       2.050   1.949  18.879  0.00  0.00    +0.000 F 
ATOM     13  C   UNL     1       1.916   3.858  20.282  0.00  0.00    +0.000 A 
ATOM     14 CL   UNL     1       1.581   2.884  21.667  0.00  0.00    +0.000 Cl
ATOM     15  C   UNL     1       1.973   5.247  20.429  0.00  0.00    +0.000 A 
ENDBRANCH   5   8
ENDBRANCH   1   2
BRANCH   1  16
ATOM     16  C   UNL     1       0.440  12.440  18.772  0.00  0.00    +0.000 C 
BRANCH  16  19
ATOM     17  C   UNL     1      -0.892  13.238  21.702  0.00  0.00    +0.000 C 
ATOM     18  C   UNL     1      -1.538  12.743  20.457  0.00  0.00    +0.000 A 
ATOM     19  C   UNL     1      -1.004  12.381  19.215  0.00  0.00    +0.000 A 
ATOM     20  C   UNL     1      -2.100  11.930  18.396  0.00  0.00    +0.000 A 
ATOM     21  C   UNL     1      -2.246  11.420  17.092  0.00  0.00    +0.000 A 
ATOM     22  C   UNL     1      -3.532  11.090  16.627  0.00  0.00    +0.000 A 
ATOM     23  C   UNL     1      -4.664  11.266  17.429  0.00  0.00    +0.000 A 
ATOM     24  C   UNL     1      -4.543  11.781  18.720  0.00  0.00    +0.000 A 
ATOM     25  C   UNL     1      -3.248  12.075  19.149  0.00  0.00    +0.000 A 
ATOM     26  N   UNL     1      -2.896  12.563  20.379  0.00  0.00    +0.000 N 
ATOM     27  C   UNL     1      -3.929  12.792  21.382  0.00  0.00    +0.000 C 
ATOM     28  C   UNL     1      -5.306  13.048  20.733  0.00  0.00    +0.000 C 
ATOM     29  C   UNL     1      -5.683  11.987  19.676  0.00  0.00    +0.000 C 
ENDBRANCH  16  19
ENDBRANCH   1  16
TORSDOF 4
ENDMDL
MODEL 2
REMARK VINA RESULT:      -8.1      1.072      1.315
REMARK  Name = 
REMARK  5 active torsions:
REMARK  status: ('A' for Active; 'I' for Inactive)
REMARK    1  A    between atoms: C_1  and  C_2
REMARK    2  A    between atoms: C_3  and  C_4
REMARK    3  A    between atoms: C_4  and  C_5
REMARK    4  A    between atoms: C_5  and  N_6
REMARK    5  A    between atoms: N_9  and  C_10
REMARK                            x       y       z     vdW  Elec       q    Type
REMARK                         _______ _______ _______ _____ _____    ______ ____
ROOT
ATOM      1  C   UNL     1       0.045  11.427  20.690  0.00  0.00    +0.000 C 
ENDROOT
BRANCH   1   2
ATOM      2  N   UNL     1      -0.389  10.063  20.322  0.00  0.00    +0.000 NA
ATOM      3  C   UNL     1       0.206   9.557  19.065  0.00  0.00    +0.000 C 
ATOM      4  C   UNL     1       1.682   9.131  19.181  0.00  0.00    +0.000 C 
ATOM      5  N   UNL     1       1.818   8.052  20.168  0.00  0.00    +0.000 N 
ATOM      6  C   UNL     1       1.275   8.387  21.495  0.00  0.00    +0.000 C 
ATOM      7  C   UNL     1      -0.127   9.077  21.408  0.00  0.00    +0.000 C 
BRANCH   5   8
ATOM      8  C   UNL     1       2.100   6.748  19.797  0.00  0.00    +0.000 A 
ATOM      9  C   UNL     1       2.734   6.460  18.573  0.00  0.00    +0.000 A 
ATOM     10  C   UNL     1       2.958   5.141  18.149  0.00  0.00    +0.000 A 
ATOM     11  C   UNL     1       2.563   4.081  18.954  0.00  0.00    +0.000 A 
ATOM     12  F   UNL     1       2.776   2.827  18.529  0.00  0.00    +0.000 F 
ATOM     13  C   UNL     1       1.950   4.330  20.168  0.00  0.00    +0.000 A 
ATOM     14 CL   UNL     1       1.451   3.029  21.188  0.00  0.00    +0.000 Cl
ATOM     15  C   UNL     1       1.720   5.644  20.587  0.00  0.00    +0.000 A 
ENDBRANCH   5   8
ENDBRANCH   1   2
BRANCH   1  16
ATOM     16  C   UNL     1      -0.586  12.571  19.857  0.00  0.00    +0.000 C 
BRANCH  16  19
ATOM     17  C   UNL     1      -3.119  13.089  21.934  0.00  0.00    +0.000 C 
ATOM     18  C   UNL     1      -3.114  12.599  20.529  0.00  0.00    +0.000 A 
ATOM     19  C   UNL     1      -2.065  12.354  19.635  0.00  0.00    +0.000 A 
ATOM     20  C   UNL     1      -2.651  11.844  18.422  0.00  0.00    +0.000 A 
ATOM     21  C   UNL     1      -2.171  11.389  17.179  0.00  0.00    +0.000 A 
ATOM     22  C   UNL     1      -3.092  10.965  16.204  0.00  0.00    +0.000 A 
ATOM     23  C   UNL     1      -4.470  10.992  16.443  0.00  0.00    +0.000 A 
ATOM     24  C   UNL     1      -4.968  11.449  17.664  0.00  0.00    +0.000 A 
ATOM     25  C   UNL     1      -4.020  11.841  18.609  0.00  0.00    +0.000 A 
ATOM     26  N   UNL     1      -4.281  12.296  19.874  0.00  0.00    +0.000 N 
ATOM     27  C   UNL     1      -5.661  12.376  20.336  0.00  0.00    +0.000 C 
ATOM     28  C   UNL     1      -6.648  12.534  19.160  0.00  0.00    +0.000 C 
ATOM     29  C   UNL     1      -6.421  11.497  18.038  0.00  0.00    +0.000 C 
ENDBRANCH  16  19
ENDBRANCH   1  16
TORSDOF 4
ENDMDL
MODEL 3
REMARK VINA RESULT:      -7.9      0.969      1.303
REMARK  Name = 
REMARK  5 active torsions:
REMARK  status: ('A' for Active; 'I' for Inactive)
REMARK    1  A    between atoms: C_1  and  C_2
REMARK    2  A    between atoms: C_3  and  C_4
REMARK    3  A    between atoms: C_4  and  C_5
REMARK    4  A    between atoms: C_5  and  N_6
REMARK    5  A    between atoms: N_9  and  C_10
REMARK                            x       y       z     vdW  Elec       q    Type
REMARK                         _______ _______ _______ _____ _____    ______ ____
ROOT
ATOM      1  C   UNL     1       1.206  11.270  19.113  0.00  0.00    +0.000 C 
ENDROOT
BRANCH   1   2
ATOM      2  N   UNL     1       0.510   9.973  18.986  0.00  0.00    +0.000 NA
ATOM      3  C   UNL     1       1.097   9.068  17.974  0.00  0.00    +0.000 C 
ATOM      4  C   UNL     1       2.417   8.397  18.402  0.00  0.00    +0.000 C 
ATOM      5  N   UNL     1       2.202   7.587  19.607  0.00  0.00    +0.000 N 
ATOM      6  C   UNL     1       1.618   8.336  20.732  0.00  0.00    +0.000 C 
ATOM      7  C   UNL     1       0.428   9.249  20.286  0.00  0.00    +0.000 C 
BRANCH   5   8
ATOM      8  C   UNL     1       2.213   6.202  19.573  0.00  0.00    +0.000 A 
ATOM      9  C   UNL     1       1.682   5.443  20.633  0.00  0.00    +0.000 A 
ATOM     10  C   UNL     1       1.753   4.042  20.647  0.00  0.00    +0.000 A 
ATOM     11  C   UNL     1       2.347   3.371  19.587  0.00  0.00    +0.000 A 
ATOM     12  F   UNL     1       2.416   2.032  19.622  0.00  0.00    +0.000 F 
ATOM     13  C   UNL     1       2.866   4.086  18.523  0.00  0.00    +0.000 A 
ATOM     14 CL   UNL     1       3.608   3.274  17.192  0.00  0.00    +0.000 Cl
ATOM     15  C   UNL     1       2.801   5.482  18.513  0.00  0.00    +0.000 A 
ENDBRANCH   5   8
ENDBRANCH   1   2
BRANCH   1  16
ATOM     16  C   UNL     1       0.398  12.505  18.639  0.00  0.00    +0.000 C 
BRANCH  16  19
ATOM     17  C   UNL     1      -0.978  13.414  21.515  0.00  0.00    +0.000 C 
ATOM     18  C   UNL     1      -1.601  12.841  20.292  0.00  0.00    +0.000 A 
ATOM     19  C   UNL     1      -1.047  12.431  19.074  0.00  0.00    +0.000 A 
ATOM     20  C   UNL     1      -2.125  11.911  18.272  0.00  0.00    +0.000 A 
ATOM     21  C   UNL     1      -2.247  11.332  16.994  0.00  0.00    +0.000 A 
ATOM     22  C   UNL     1      -3.521  10.946  16.537  0.00  0.00    +0.000 A 
ATOM     23  C   UNL     1      -4.663  11.133  17.322  0.00  0.00    +0.000 A 
ATOM     24  C   UNL     1      -4.566  11.715  18.586  0.00  0.00    +0.000 A 
ATOM     25  C   UNL     1      -3.282  12.064  19.009  0.00  0.00    +0.000 A 
ATOM     26  N   UNL     1      -2.953  12.621  20.215  0.00  0.00    +0.000 N 
ATOM     27  C   UNL     1      -3.999  12.874  21.197  0.00  0.00    +0.000 C 
ATOM     28  C   UNL     1      -5.377  13.061  20.527  0.00  0.00    +0.000 C 
ATOM     29  C   UNL     1      -5.718  11.939  19.523  0.00  0.00    +0.000 C 
ENDBRANCH  16  19
ENDBRANCH   1  16
TORSDOF 4
ENDMDL
MODEL 4
REMARK VINA RESULT:      -7.8      1.593      2.917
REMARK  Name = 
REMARK  5 active torsions:
REMARK  status: ('A' for Active; 'I' for Inactive)
REMARK    1  A    between atoms: C_1  and  C_2
REMARK    2  A    between atoms: C_3  and  C_4
REMARK    3  A    between atoms: C_4  and  C_5
REMARK    4  A    between atoms: C_5  and  N_6
REMARK    5  A    between atoms: N_9  and  C_10
REMARK                            x       y       z     vdW  Elec       q    Type
REMARK                         _______ _______ _______ _____ _____    ______ ____
ROOT
ATOM      1  C   UNL     1      -0.036  11.550  19.651  0.00  0.00    +0.000 C 
ENDROOT
BRANCH   1   2
ATOM      2  N   UNL     1      -0.401  10.132  19.454  0.00  0.00    +0.000 NA
ATOM      3  C   UNL     1       0.287   9.482  18.316  0.00  0.00    +0.000 C 
ATOM      4  C   UNL     1       1.767   9.138  18.574  0.00  0.00    +0.000 C 
ATOM      5  N   UNL     1       1.878   8.213  19.708  0.00  0.00    +0.000 N 
ATOM      6  C   UNL     1       1.244   8.705  20.943  0.00  0.00    +0.000 C 
ATOM      7  C   UNL     1      -0.172   9.317  20.681  0.00  0.00    +0.000 C 
BRANCH   5   8
ATOM      8  C   UNL     1       2.226   6.883  19.540  0.00  0.00    +0.000 A 
ATOM      9  C   UNL     1       1.906   5.918  20.514  0.00  0.00    +0.000 A 
ATOM     10  C   UNL     1       2.316   4.582  20.394  0.00  0.00    +0.000 A 
ATOM     11  C   UNL     1       3.045   4.181  19.282  0.00  0.00    +0.000 A 
ATOM     12  F   UNL     1       3.438   2.902  19.188  0.00  0.00    +0.000 F 
ATOM     13  C   UNL     1       3.363   5.101  18.300  0.00  0.00    +0.000 A 
ATOM     14 CL   UNL     1       4.268   4.628  16.908  0.00  0.00    +0.000 Cl
ATOM     15  C   UNL     1       2.961   6.434  18.424  0.00  0.00    +0.000 A 
ENDBRANCH   5   8
ENDBRANCH   1   2
BRANCH   1  16
ATOM     16  C   UNL     1      -0.855  12.568  18.817  0.00  0.00    +0.000 C 
BRANCH  16  19
ATOM     17  C   UNL     1      -2.785  11.110  16.549  0.00  0.00    +0.000 C 
ATOM     18  C   UNL     1      -3.121  11.637  17.899  0.00  0.00    +0.000 A 
ATOM     19  C   UNL     1      -2.336  12.271  18.869  0.00  0.00    +0.000 A 
ATOM     20  C   UNL     1      -3.206  12.604  19.967  0.00  0.00    +0.000 A 
ATOM     21  C   UNL     1      -3.067  13.255  21.208  0.00  0.00    +0.000 A 
ATOM     22  C   UNL     1      -4.191  13.381  22.045  0.00  0.00    +0.000 A 
ATOM     23  C   UNL     1      -5.438  12.868  21.672  0.00  0.00    +0.000 A 
ATOM     24  C   UNL     1      -5.596  12.210  20.452  0.00  0.00    +0.000 A 
ATOM     25  C   UNL     1      -4.461  12.125  19.644  0.00  0.00    +0.000 A 
ATOM     26  N   UNL     1      -4.393  11.549  18.404  0.00  0.00    +0.000 N 
ATOM     27  C   UNL     1      -5.596  10.975  17.814  0.00  0.00    +0.000 C 
ATOM     28  C   UNL     1      -6.611  10.542  18.894  0.00  0.00    +0.000 C 
ATOM     29  C   UNL     1      -6.889  11.645  19.939  0.00  0.00    +0.000 C 
ENDBRANCH  16  19
ENDBRANCH   1  16
TORSDOF 4
ENDMDL
MODEL 5
REMARK VINA RESULT:      -7.8      1.693      2.585
REMARK  Name = 
REMARK  5 active torsions:
REMARK  status: ('A' for Active; 'I' for Inactive)
REMARK    1  A    between atoms: C_1  and  C_2
REMARK    2  A    between atoms: C_3  and  C_4
REMARK    3  A    between atoms: C_4  and  C_5
REMARK    4  A    between atoms: C_5  and  N_6
REMARK    5  A    between atoms: N_9  and  C_10
REMARK                            x       y       z     vdW  Elec       q    Type
REMARK                         _______ _______ _______ _____ _____    ______ ____
ROOT
ATOM      1  C   UNL     1      -0.718  11.655  21.828  0.00  0.00    +0.000 C 
ENDROOT
BRANCH   1   2
ATOM      2  N   UNL     1       0.679  11.209  21.649  0.00  0.00    +0.000 NA
ATOM      3  C   UNL     1       0.915   9.794  22.014  0.00  0.00    +0.000 C 
ATOM      4  C   UNL     1       0.385   8.771  20.990  0.00  0.00    +0.000 C 
ATOM      5  N   UNL     1       1.035   8.978  19.690  0.00  0.00    +0.000 N 
ATOM      6  C   UNL     1       0.897  10.347  19.166  0.00  0.00    +0.000 C 
ATOM      7  C   UNL     1       1.167  11.433  20.259  0.00  0.00    +0.000 C 
BRANCH   5   8
ATOM      8  C   UNL     1       1.969   8.090  19.187  0.00  0.00    +0.000 A 
ATOM      9  C   UNL     1       2.679   8.371  18.004  0.00  0.00    +0.000 A 
ATOM     10  C   UNL     1       3.574   7.448  17.441  0.00  0.00    +0.000 A 
ATOM     11  C   UNL     1       3.788   6.227  18.064  0.00  0.00    +0.000 A 
ATOM     12  F   UNL     1       4.639   5.352  17.507  0.00  0.00    +0.000 F 
ATOM     13  C   UNL     1       3.118   5.925  19.236  0.00  0.00    +0.000 A 
ATOM     14 CL   UNL     1       3.367   4.413  20.031  0.00  0.00    +0.000 Cl
ATOM     15  C   UNL     1       2.220   6.841  19.792  0.00  0.00    +0.000 A 
ENDBRANCH   5   8
ENDBRANCH   1   2
BRANCH   1  16
ATOM     16  C   UNL     1      -1.198  12.747  20.838  0.00  0.00    +0.000 C 
BRANCH  16  19
ATOM     17  C   UNL     1      -4.072  13.130  22.446  0.00  0.00    +0.000 C 
ATOM     18  C   UNL     1      -3.804  12.676  21.055  0.00  0.00    +0.000 A 
ATOM     19  C   UNL     1      -2.606  12.487  20.355  0.00  0.00    +0.000 A 
ATOM     20  C   UNL     1      -2.952  11.988  19.049  0.00  0.00    +0.000 A 
ATOM     21  C   UNL     1      -2.245  11.579  17.902  0.00  0.00    +0.000 A 
ATOM     22  C   UNL     1      -2.965  11.149  16.772  0.00  0.00    +0.000 A 
ATOM     23  C   UNL     1      -4.363  11.125  16.765  0.00  0.00    +0.000 A 
ATOM     24  C   UNL     1      -5.083  11.535  17.888  0.00  0.00    +0.000 A 
ATOM     25  C   UNL     1      -4.331  11.935  18.993  0.00  0.00    +0.000 A 
ATOM     26  N   UNL     1      -4.826  12.350  20.199  0.00  0.00    +0.000 N 
ATOM     27  C   UNL     1      -6.267  12.373  20.413  0.00  0.00    +0.000 C 
ATOM     28  C   UNL     1      -7.038  12.528  19.084  0.00  0.00    +0.000 C 
ATOM     29  C   UNL     1      -6.581  11.527  18.001  0.00  0.00    +0.000 C 
ENDBRANCH  16  19
ENDBRANCH   1  16
TORSDOF 4
ENDMDL
MODEL 6
REMARK VINA RESULT:      -7.8      1.637      2.067
REMARK  Name = 
REMARK  5 active torsions:
REMARK  status: ('A' for Active; 'I' for Inactive)
REMARK    1  A    between atoms: C_1  and  C_2
REMARK    2  A    between atoms: C_3  and  C_4
REMARK    3  A    between atoms: C_4  and  C_5
REMARK    4  A    between atoms: C_5  and  N_6
REMARK    5  A    between atoms: N_9  and  C_10
REMARK                            x       y       z     vdW  Elec       q    Type
REMARK                         _______ _______ _______ _____ _____    ______ ____
ROOT
ATOM      1  C   UNL     1      -0.208  11.339  20.963  0.00  0.00    +0.000 C 
ENDROOT
BRANCH   1   2
ATOM      2  N   UNL     1      -0.540   9.973  20.509  0.00  0.00    +0.000 NA
ATOM      3  C   UNL     1       0.088   9.592  19.224  0.00  0.00    +0.000 C 
ATOM      4  C   UNL     1       1.593   9.271  19.317  0.00  0.00    +0.000 C 
ATOM      5  N   UNL     1       1.811   8.146  20.235  0.00  0.00    +0.000 N 
ATOM      6  C   UNL     1       1.248   8.356  21.579  0.00  0.00    +0.000 C 
ATOM      7  C   UNL     1      -0.201   8.944  21.532  0.00  0.00    +0.000 C 
BRANCH   5   8
ATOM      8  C   UNL     1       2.189   6.893  19.783  0.00  0.00    +0.000 A 
ATOM      9  C   UNL     1       1.823   5.727  20.482  0.00  0.00    +0.000 A 
ATOM     10  C   UNL     1       2.260   4.455  20.079  0.00  0.00    +0.000 A 
ATOM     11  C   UNL     1       3.064   4.327  18.955  0.00  0.00    +0.000 A 
ATOM     12  F   UNL     1       3.481   3.105  18.589  0.00  0.00    +0.000 F 
ATOM     13  C   UNL     1       3.429   5.451  18.238  0.00  0.00    +0.000 A 
ATOM     14 CL   UNL     1       4.427   5.317  16.835  0.00  0.00    +0.000 Cl
ATOM     15  C   UNL     1       3.000   6.718  18.644  0.00  0.00    +0.000 A 
ENDBRANCH   5   8
ENDBRANCH   1   2
BRANCH   1  16
ATOM     16  C   UNL     1      -0.765  12.485  20.080  0.00  0.00    +0.000 C 
BRANCH  16  19
ATOM     17  C   UNL     1      -3.378  12.998  22.056  0.00  0.00    +0.000 C 
ATOM     18  C   UNL     1      -3.320  12.545  20.641  0.00  0.00    +0.000 A 
ATOM     19  C   UNL     1      -2.237  12.302  19.788  0.00  0.00    +0.000 A 
ATOM     20  C   UNL     1      -2.778  11.835  18.537  0.00  0.00    +0.000 A 
ATOM     21  C   UNL     1      -2.251  11.403  17.305  0.00  0.00    +0.000 A 
ATOM     22  C   UNL     1      -3.136  11.022  16.279  0.00  0.00    +0.000 A 
ATOM     23  C   UNL     1      -4.522  11.070  16.458  0.00  0.00    +0.000 A 
ATOM     24  C   UNL     1      -5.065  11.505  17.667  0.00  0.00    +0.000 A 
ATOM     25  C   UNL     1      -4.153  11.854  18.664  0.00  0.00    +0.000 A 
ATOM     26  N   UNL     1      -4.462  12.282  19.927  0.00  0.00    +0.000 N 
ATOM     27  C   UNL     1      -5.859  12.376  20.330  0.00  0.00    +0.000 C 
ATOM     28  C   UNL     1      -6.790  12.584  19.116  0.00  0.00    +0.000 C 
ATOM     29  C   UNL     1      -6.533  11.572  17.978  0.00  0.00    +0.000 C 
ENDBRANCH  16  19
ENDBRANCH   1  16
TORSDOF 4
ENDMDL
MODEL 7
REMARK VINA RESULT:      -7.8      4.624      9.579
REMARK  Name = 
REMARK  5 active torsions:
REMARK  status: ('A' for Active; 'I' for Inactive)
REMARK    1  A    between atoms: C_1  and  C_2
REMARK    2  A    between atoms: C_3  and  C_4
REMARK    3  A    between atoms: C_4  and  C_5
REMARK    4  A    between atoms: C_5  and  N_6
REMARK    5  A    between atoms: N_9  and  C_10
REMARK                            x       y       z     vdW  Elec       q    Type
REMARK                         _______ _______ _______ _____ _____    ______ ____
ROOT
ATOM      1  C   UNL     1       1.062   8.791  20.283  0.00  0.00    +0.000 C 
ENDROOT
BRANCH   1   2
ATOM      2  N   UNL     1       1.244   9.972  21.153  0.00  0.00    +0.000 NA
ATOM      3  C   UNL     1       0.565  11.193  20.665  0.00  0.00    +0.000 C 
ATOM      4  C   UNL     1      -0.964  11.199  20.859  0.00  0.00    +0.000 C 
ATOM      5  N   UNL     1      -1.289  11.085  22.286  0.00  0.00    +0.000 N 
ATOM      6  C   UNL     1      -0.693   9.910  22.942  0.00  0.00    +0.000 C 
ATOM      7  C   UNL     1       0.810   9.710  22.554  0.00  0.00    +0.000 C 
BRANCH   5   8
ATOM      8  C   UNL     1      -1.801  12.150  23.009  0.00  0.00    +0.000 A 
ATOM      9  C   UNL     1      -3.087  12.093  23.578  0.00  0.00    +0.000 A 
ATOM     10  C   UNL     1      -3.649  13.189  24.249  0.00  0.00    +0.000 A 
ATOM     11  C   UNL     1      -2.922  14.365  24.377  0.00  0.00    +0.000 A 
ATOM     12  F   UNL     1      -3.478  15.408  25.013  0.00  0.00    +0.000 F 
ATOM     13  C   UNL     1      -1.650  14.449  23.842  0.00  0.00    +0.000 A 
ATOM     14 CL   UNL     1      -0.725  15.900  23.990  0.00  0.00    +0.000 Cl
ATOM     15  C   UNL     1      -1.094  13.359  23.168  0.00  0.00    +0.000 A 
ENDBRANCH   5   8
ENDBRANCH   1   2
BRANCH   1  16
ATOM     16  C   UNL     1       1.383   7.426  20.942  0.00  0.00    +0.000 C 
BRANCH  16  19
ATOM     17  C   UNL     1       3.074   8.055  18.160  0.00  0.00    +0.000 C 
ATOM     18  C   UNL     1       2.724   6.757  18.798  0.00  0.00    +0.000 A 
ATOM     19  C   UNL     1       1.999   6.459  19.958  0.00  0.00    +0.000 A 
ATOM     20  C   UNL     1       1.938   5.024  20.062  0.00  0.00    +0.000 A 
ATOM     21  C   UNL     1       1.357   4.097  20.949  0.00  0.00    +0.000 A 
ATOM     22  C   UNL     1       1.535   2.721  20.715  0.00  0.00    +0.000 A 
ATOM     23  C   UNL     1       2.282   2.259  19.626  0.00  0.00    +0.000 A 
ATOM     24  C   UNL     1       2.876   3.160  18.742  0.00  0.00    +0.000 A 
ATOM     25  C   UNL     1       2.657   4.514  18.999  0.00  0.00    +0.000 A 
ATOM     26  N   UNL     1       3.121   5.563  18.252  0.00  0.00    +0.000 N 
ATOM     27  C   UNL     1       3.903   5.297  17.051  0.00  0.00    +0.000 C 
ATOM     28  C   UNL     1       4.619   3.932  17.127  0.00  0.00    +0.000 C 
ATOM     29  C   UNL     1       3.675   2.777  17.529  0.00  0.00    +0.000 C 
ENDBRANCH  16  19
ENDBRANCH   1  16
TORSDOF 4
ENDMDL
MODEL 8
REMARK VINA RESULT:      -7.8      4.356      9.397
REMARK  Name = 
REMARK  5 active torsions:
REMARK  status: ('A' for Active; 'I' for Inactive)
REMARK    1  A    between atoms: C_1  and  C_2
REMARK    2  A    between atoms: C_3  and  C_4
REMARK    3  A    between atoms: C_4  and  C_5
REMARK    4  A    between atoms: C_5  and  N_6
REMARK    5  A    between atoms: N_9  and  C_10
REMARK                            x       y       z     vdW  Elec       q    Type
REMARK                         _______ _______ _______ _____ _____    ______ ____
ROOT
ATOM      1  C   UNL     1       1.325   8.986  19.805  0.00  0.00    +0.000 C 
ENDROOT
BRANCH   1   2
ATOM      2  N   UNL     1      -0.049   9.486  20.016  0.00  0.00    +0.000 NA
ATOM      3  C   UNL     1      -0.528   9.373  21.412  0.00  0.00    +0.000 C 
ATOM      4  C   UNL     1       0.073  10.409  22.382  0.00  0.00    +0.000 C 
ATOM      5  N   UNL     1      -0.263  11.767  21.937  0.00  0.00    +0.000 N 
ATOM      6  C   UNL     1       0.147  12.061  20.554  0.00  0.00    +0.000 C 
ATOM      7  C   UNL     1      -0.208  10.899  19.568  0.00  0.00    +0.000 C 
BRANCH   5   8
ATOM      8  C   UNL     1      -1.176  12.557  22.616  0.00  0.00    +0.000 A 
ATOM      9  C   UNL     1      -0.948  13.933  22.807  0.00  0.00    +0.000 A 
ATOM     10  C   UNL     1      -1.826  14.730  23.557  0.00  0.00    +0.000 A 
ATOM     11  C   UNL     1      -2.963  14.165  24.119  0.00  0.00    +0.000 A 
ATOM     12  F   UNL     1      -3.786  14.940  24.841  0.00  0.00    +0.000 F 
ATOM     13  C   UNL     1      -3.223  12.819  23.938  0.00  0.00    +0.000 A 
ATOM     14 CL   UNL     1      -4.630  12.092  24.626  0.00  0.00    +0.000 Cl
ATOM     15  C   UNL     1      -2.344  12.023  23.198  0.00  0.00    +0.000 A 
ENDBRANCH   5   8
ENDBRANCH   1   2
BRANCH   1  16
ATOM     16  C   UNL     1       1.709   7.733  20.632  0.00  0.00    +0.000 C 
BRANCH  16  19
ATOM     17  C   UNL     1       3.418   7.863  17.793  0.00  0.00    +0.000 C 
ATOM     18  C   UNL     1       2.921   6.690  18.561  0.00  0.00    +0.000 A 
ATOM     19  C   UNL     1       2.184   6.602  19.748  0.00  0.00    +0.000 A 
ATOM     20  C   UNL     1       1.948   5.204  19.999  0.00  0.00    +0.000 A 
ATOM     21  C   UNL     1       1.271   4.451  20.978  0.00  0.00    +0.000 A 
ATOM     22  C   UNL     1       1.275   3.047  20.884  0.00  0.00    +0.000 A 
ATOM     23  C   UNL     1       1.940   2.388  19.846  0.00  0.00    +0.000 A 
ATOM     24  C   UNL     1       2.626   3.114  18.872  0.00  0.00    +0.000 A 
ATOM     25  C   UNL     1       2.581   4.504  18.991  0.00  0.00    +0.000 A 
ATOM     26  N   UNL     1       3.158   5.406  18.139  0.00  0.00    +0.000 N 
ATOM     27  C   UNL     1       3.881   4.926  16.968  0.00  0.00    +0.000 C 
ATOM     28  C   UNL     1       4.423   3.496  17.180  0.00  0.00    +0.000 C 
ATOM     29  C   UNL     1       3.351   2.514  17.701  0.00  0.00    +0.000 C 
ENDBRANCH  16  19
ENDBRANCH   1  16
TORSDOF 4
ENDMDL
MODEL 9
REMARK VINA RESULT:      -7.7      1.441      2.768
REMARK  Name = 
REMARK  5 active torsions:
REMARK  status: ('A' for Active; 'I' for Inactive)
REMARK    1  A    between atoms: C_1  and  C_2
REMARK    2  A    between atoms: C_3  and  C_4
REMARK    3  A    between atoms: C_4  and  C_5
REMARK    4  A    between atoms: C_5  and  N_6
REMARK    5  A    between atoms: N_9  and  C_10
REMARK                            x       y       z     vdW  Elec       q    Type
REMARK                         _______ _______ _______ _____ _____    ______ ____
ROOT
ATOM      1  C   UNL     1       0.062  11.259  19.740  0.00  0.00    +0.000 C 
ENDROOT
BRANCH   1   2
ATOM      2  N   UNL     1      -0.195   9.865  19.323  0.00  0.00    +0.000 NA
ATOM      3  C   UNL     1       0.370   9.515  18.001  0.00  0.00    +0.000 C 
ATOM      4  C   UNL     1       1.898   9.310  17.990  0.00  0.00    +0.000 C 
ATOM      5  N   UNL     1       2.265   8.218  18.900  0.00  0.00    +0.000 N 
ATOM      6  C   UNL     1       1.781   8.403  20.279  0.00  0.00    +0.000 C 
ATOM      7  C   UNL     1       0.291   8.879  20.328  0.00  0.00    +0.000 C 
BRANCH   5   8
ATOM      8  C   UNL     1       2.704   6.991  18.435  0.00  0.00    +0.000 A 
ATOM      9  C   UNL     1       3.878   6.882  17.666  0.00  0.00    +0.000 A 
ATOM     10  C   UNL     1       4.297   5.657  17.124  0.00  0.00    +0.000 A 
ATOM     11  C   UNL     1       3.551   4.509  17.356  0.00  0.00    +0.000 A 
ATOM     12  F   UNL     1       3.959   3.349  16.822  0.00  0.00    +0.000 F 
ATOM     13  C   UNL     1       2.400   4.580  18.119  0.00  0.00    +0.000 A 
ATOM     14 CL   UNL     1       1.455   3.167  18.423  0.00  0.00    +0.000 Cl
ATOM     15  C   UNL     1       1.980   5.801  18.653  0.00  0.00    +0.000 A 
ENDBRANCH   5   8
ENDBRANCH   1   2
BRANCH   1  16
ATOM     16  C   UNL     1      -0.635  12.348  18.884  0.00  0.00    +0.000 C 
BRANCH  16  19
ATOM     17  C   UNL     1      -2.566  11.147  16.471  0.00  0.00    +0.000 C 
ATOM     18  C   UNL     1      -2.921  11.639  17.829  0.00  0.00    +0.000 A 
ATOM     19  C   UNL     1      -2.135  12.167  18.860  0.00  0.00    +0.000 A 
ATOM     20  C   UNL     1      -3.026  12.519  19.935  0.00  0.00    +0.000 A 
ATOM     21  C   UNL     1      -2.893  13.102  21.210  0.00  0.00    +0.000 A 
ATOM     22  C   UNL     1      -4.041  13.279  22.004  0.00  0.00    +0.000 A 
ATOM     23  C   UNL     1      -5.305  12.883  21.555  0.00  0.00    +0.000 A 
ATOM     24  C   UNL     1      -5.458  12.294  20.300  0.00  0.00    +0.000 A 
ATOM     25  C   UNL     1      -4.297  12.155  19.538  0.00  0.00    +0.000 A 
ATOM     26  N   UNL     1      -4.218  11.629  18.276  0.00  0.00    +0.000 N 
ATOM     27  C   UNL     1      -5.434  11.179  17.609  0.00  0.00    +0.000 C 
ATOM     28  C   UNL     1      -6.526  10.780  18.625  0.00  0.00    +0.000 C 
ATOM     29  C   UNL     1      -6.766  11.855  19.708  0.00  0.00    +0.000 C 
ENDBRANCH  16  19
ENDBRANCH   1  16
TORSDOF 4
ENDMDL
