MODEL 1
REMARK VINA RESULT:      -6.7      0.000      0.000
REMARK  Name = 
REMARK  3 active torsions:
REMARK  status: ('A' for Active; 'I' for Inactive)
REMARK    1  A    between atoms: C_2  and  C_3
REMARK    2  A    between atoms: N_9  and  C_10
REMARK    3  A    between atoms: C_10  and  C_11
REMARK                            x       y       z     vdW  Elec       q    Type
REMARK                         _______ _______ _______ _____ _____    ______ ____
ROOT
ATOM      1  C   UNL     1      -2.284  11.387  18.821  0.00  0.00    +0.000 C 
ATOM      2  C   UNL     1      -1.122  12.340  18.605  0.00  0.00    +0.000 C 
ATOM      3  C   UNL     1       0.045  11.615  19.223  0.00  0.00    +0.000 C 
ATOM      4  C   UNL     1      -0.294  10.133  19.038  0.00  0.00    +0.000 C 
ATOM      5  C   UNL     1       0.020   9.323  20.304  0.00  0.00    +0.000 C 
ATOM      6  C   UNL     1       1.529   9.155  20.496  0.00  0.00    +0.000 C 
ATOM      7  N   UNL     1       2.202   8.497  19.361  0.00  0.00    +0.000 NA
ATOM      8  C   UNL     1       1.910   9.231  18.116  0.00  0.00    +0.000 C 
ATOM      9  C   UNL     1       0.421   9.478  17.844  0.00  0.00    +0.000 C 
ATOM     10  O   UNL     1      -1.716  10.065  18.802  0.00  0.00    +0.000 OA
ENDROOT
BRANCH   1  12
ATOM     11  O   UNL     1      -3.160  11.377  16.546  0.00  0.00    +0.000 OA
ATOM     12  C   UNL     1      -3.379  11.549  17.748  0.00  0.00    +0.000 C 
ATOM     13  N   UNL     1      -4.636  11.845  18.228  0.00  0.00    +0.000 N 
ATOM     14  C   UNL     1      -5.784  12.104  17.374  0.00  0.00    +0.000 C 
ATOM     15  C   UNL     1      -7.042  11.663  18.117  0.00  0.00    +0.000 C 
ATOM     16  C   UNL     1      -7.088  12.297  19.510  0.00  0.00    +0.000 C 
ATOM     17  C   UNL     1      -5.749  12.121  20.230  0.00  0.00    +0.000 C 
ATOM     18  O   UNL     1      -4.690  12.630  19.408  0.00  0.00    +0.000 OA
ENDBRANCH   1  12
BRANCH   7  19
ATOM     19  C   UNL     1       1.902   7.050  19.321  0.00  0.00    +0.000 C 
BRANCH  19  20
ATOM     20  C   UNL     1       2.529   6.259  18.145  0.00  0.00    +0.000 C 
ATOM     21  C   UNL     1       4.064   6.189  18.195  0.00  0.00    +0.000 C 
ATOM     22  C   UNL     1       4.580   5.109  19.138  0.00  0.00    +0.000 C 
ATOM     23  O   UNL     1       4.010   3.842  18.811  0.00  0.00    +0.000 OA
ATOM     24  C   UNL     1       2.597   3.840  18.987  0.00  0.00    +0.000 C 
ATOM     25  C   UNL     1       1.934   4.840  18.050  0.00  0.00    +0.000 C 
ENDBRANCH  19  20
ENDBRANCH   7  19
TORSDOF 3
ENDMDL
MODEL 2
REMARK VINA RESULT:      -6.6      1.082      1.477
REMARK  Name = 
REMARK  3 active torsions:
REMARK  status: ('A' for Active; 'I' for Inactive)
REMARK    1  A    between atoms: C_2  and  C_3
REMARK    2  A    between atoms: N_9  and  C_10
REMARK    3  A    between atoms: C_10  and  C_11
REMARK                            x       y       z     vdW  Elec       q    Type
REMARK                         _______ _______ _______ _____ _____    ______ ____
ROOT
ATOM      1  C   UNL     1      -1.910  11.385  18.893  0.00  0.00    +0.000 C 
ATOM      2  C   UNL     1      -0.599  12.091  18.597  0.00  0.00    +0.000 C 
ATOM      3  C   UNL     1       0.410  11.303  19.391  0.00  0.00    +0.000 C 
ATOM      4  C   UNL     1      -0.165   9.884  19.425  0.00  0.00    +0.000 C 
ATOM      5  C   UNL     1      -0.031   9.258  20.821  0.00  0.00    +0.000 C 
ATOM      6  C   UNL     1       1.422   8.886  21.126  0.00  0.00    +0.000 C 
ATOM      7  N   UNL     1       2.011   7.949  20.152  0.00  0.00    +0.000 NA
ATOM      8  C   UNL     1       1.886   8.501  18.791  0.00  0.00    +0.000 C 
ATOM      9  C   UNL     1       0.468   8.933  18.396  0.00  0.00    +0.000 C 
ATOM     10  O   UNL     1      -1.570  10.005  19.120  0.00  0.00    +0.000 OA
ENDROOT
BRANCH   1  12
ATOM     11  O   UNL     1      -2.614  11.404  16.560  0.00  0.00    +0.000 OA
ATOM     12  C   UNL     1      -2.928  11.538  17.746  0.00  0.00    +0.000 C 
ATOM     13  N   UNL     1      -4.227  11.779  18.138  0.00  0.00    +0.000 N 
ATOM     14  C   UNL     1      -5.317  12.020  17.207  0.00  0.00    +0.000 C 
ATOM     15  C   UNL     1      -6.609  11.518  17.843  0.00  0.00    +0.000 C 
ATOM     16  C   UNL     1      -6.781  12.114  19.243  0.00  0.00    +0.000 C 
ATOM     17  C   UNL     1      -5.493  11.964  20.057  0.00  0.00    +0.000 C 
ATOM     18  O   UNL     1      -4.395  12.531  19.328  0.00  0.00    +0.000 OA
ENDBRANCH   1  12
BRANCH   7  19
ATOM     19  C   UNL     1       1.475   6.582  20.327  0.00  0.00    +0.000 C 
BRANCH  19  20
ATOM     20  C   UNL     1       2.486   5.425  20.121  0.00  0.00    +0.000 C 
ATOM     21  C   UNL     1       2.209   4.197  21.005  0.00  0.00    +0.000 C 
ATOM     22  C   UNL     1       1.123   3.290  20.439  0.00  0.00    +0.000 C 
ATOM     23  O   UNL     1       1.433   2.910  19.099  0.00  0.00    +0.000 OA
ATOM     24  C   UNL     1       1.464   4.034  18.227  0.00  0.00    +0.000 C 
ATOM     25  C   UNL     1       2.558   5.009  18.638  0.00  0.00    +0.000 C 
ENDBRANCH  19  20
ENDBRANCH   7  19
TORSDOF 3
ENDMDL
MODEL 3
REMARK VINA RESULT:      -6.4      3.480      5.965
REMARK  Name = 
REMARK  3 active torsions:
REMARK  status: ('A' for Active; 'I' for Inactive)
REMARK    1  A    between atoms: C_2  and  C_3
REMARK    2  A    between atoms: N_9  and  C_10
REMARK    3  A    between atoms: C_10  and  C_11
REMARK                            x       y       z     vdW  Elec       q    Type
REMARK                         _______ _______ _______ _____ _____    ______ ____
ROOT
ATOM      1  C   UNL     1       1.080   7.458  20.367  0.00  0.00    +0.000 C 
ATOM      2  C   UNL     1       1.270   6.321  21.355  0.00  0.00    +0.000 C 
ATOM      3  C   UNL     1       1.641   5.153  20.479  0.00  0.00    +0.000 C 
ATOM      4  C   UNL     1       2.362   5.793  19.288  0.00  0.00    +0.000 C 
ATOM      5  C   UNL     1       1.921   5.162  17.960  0.00  0.00    +0.000 C 
ATOM      6  C   UNL     1       2.491   3.751  17.798  0.00  0.00    +0.000 C 
ATOM      7  N   UNL     1       3.963   3.696  17.857  0.00  0.00    +0.000 NA
ATOM      8  C   UNL     1       4.435   4.311  19.110  0.00  0.00    +0.000 C 
ATOM      9  C   UNL     1       3.896   5.721  19.382  0.00  0.00    +0.000 C 
ATOM     10  O   UNL     1       1.978   7.183  19.276  0.00  0.00    +0.000 OA
ENDROOT
BRANCH   1  12
ATOM     11  O   UNL     1       2.056   8.970  22.010  0.00  0.00    +0.000 OA
ATOM     12  C   UNL     1       1.360   8.835  21.000  0.00  0.00    +0.000 C 
ATOM     13  N   UNL     1       0.827   9.913  20.327  0.00  0.00    +0.000 N 
ATOM     14  C   UNL     1       0.923  11.284  20.800  0.00  0.00    +0.000 C 
ATOM     15  C   UNL     1       0.935  12.209  19.587  0.00  0.00    +0.000 C 
ATOM     16  C   UNL     1      -0.252  11.899  18.670  0.00  0.00    +0.000 C 
ATOM     17  C   UNL     1      -0.353  10.395  18.405  0.00  0.00    +0.000 C 
ATOM     18  O   UNL     1      -0.400   9.690  19.653  0.00  0.00    +0.000 OA
ENDBRANCH   1  12
BRANCH   7  19
ATOM     19  C   UNL     1       4.572   4.238  16.623  0.00  0.00    +0.000 C 
BRANCH  19  20
ATOM     20  C   UNL     1       6.008   3.749  16.304  0.00  0.00    +0.000 C 
ATOM     21  C   UNL     1       6.325   3.699  14.800  0.00  0.00    +0.000 C 
ATOM     22  C   UNL     1       6.708   5.058  14.228  0.00  0.00    +0.000 C 
ATOM     23  O   UNL     1       7.785   5.632  14.969  0.00  0.00    +0.000 OA
ATOM     24  C   UNL     1       7.414   5.892  16.318  0.00  0.00    +0.000 C 
ATOM     25  C   UNL     1       7.061   4.600  17.042  0.00  0.00    +0.000 C 
ENDBRANCH  19  20
ENDBRANCH   7  19
TORSDOF 3
ENDMDL
MODEL 4
REMARK VINA RESULT:      -6.2      3.084      5.067
REMARK  Name = 
REMARK  3 active torsions:
REMARK  status: ('A' for Active; 'I' for Inactive)
REMARK    1  A    between atoms: C_2  and  C_3
REMARK    2  A    between atoms: N_9  and  C_10
REMARK    3  A    between atoms: C_10  and  C_11
REMARK                            x       y       z     vdW  Elec       q    Type
REMARK                         _______ _______ _______ _____ _____    ______ ____
ROOT
ATOM      1  C   UNL     1       1.297   8.993  18.730  0.00  0.00    +0.000 C 
ATOM      2  C   UNL     1       1.762   8.561  20.109  0.00  0.00    +0.000 C 
ATOM      3  C   UNL     1       2.078   7.098  19.930  0.00  0.00    +0.000 C 
ATOM      4  C   UNL     1       2.516   6.986  18.466  0.00  0.00    +0.000 C 
ATOM      5  C   UNL     1       1.906   5.749  17.791  0.00  0.00    +0.000 C 
ATOM      6  C   UNL     1       2.565   4.462  18.291  0.00  0.00    +0.000 C 
ATOM      7  N   UNL     1       4.023   4.420  18.076  0.00  0.00    +0.000 NA
ATOM      8  C   UNL     1       4.651   5.603  18.692  0.00  0.00    +0.000 C 
ATOM      9  C   UNL     1       4.041   6.949  18.277  0.00  0.00    +0.000 C 
ATOM     10  O   UNL     1       2.009   8.159  17.797  0.00  0.00    +0.000 OA
ENDROOT
BRANCH   1  12
ATOM     11  O   UNL     1       2.573  10.894  17.896  0.00  0.00    +0.000 OA
ATOM     12  C   UNL     1       1.558  10.489  18.469  0.00  0.00    +0.000 C 
ATOM     13  N   UNL     1       0.552  11.342  18.867  0.00  0.00    +0.000 N 
ATOM     14  C   UNL     1       0.638  12.790  18.770  0.00  0.00    +0.000 C 
ATOM     15  C   UNL     1      -0.771  13.340  18.570  0.00  0.00    +0.000 C 
ATOM     16  C   UNL     1      -1.713  12.797  19.648  0.00  0.00    +0.000 C 
ATOM     17  C   UNL     1      -1.565  11.279  19.783  0.00  0.00    +0.000 C 
ATOM     18  O   UNL     1      -0.188  10.950  20.012  0.00  0.00    +0.000 OA
ENDBRANCH   1  12
BRANCH   7  19
ATOM     19  C   UNL     1       4.352   4.205  16.651  0.00  0.00    +0.000 C 
BRANCH  19  20
ATOM     20  C   UNL     1       5.776   3.668  16.357  0.00  0.00    +0.000 C 
ATOM     21  C   UNL     1       6.117   3.607  14.858  0.00  0.00    +0.000 C 
ATOM     22  C   UNL     1       6.556   4.952  14.293  0.00  0.00    +0.000 C 
ATOM     23  O   UNL     1       7.638   5.489  15.054  0.00  0.00    +0.000 OA
ATOM     24  C   UNL     1       7.253   5.762  16.397  0.00  0.00    +0.000 C 
ATOM     25  C   UNL     1       6.843   4.482  17.113  0.00  0.00    +0.000 C 
ENDBRANCH  19  20
ENDBRANCH   7  19
TORSDOF 3
ENDMDL
MODEL 5
REMARK VINA RESULT:      -6.0      7.214     10.568
REMARK  Name = 
REMARK  3 active torsions:
REMARK  status: ('A' for Active; 'I' for Inactive)
REMARK    1  A    between atoms: C_2  and  C_3
REMARK    2  A    between atoms: N_9  and  C_10
REMARK    3  A    between atoms: C_10  and  C_11
REMARK                            x       y       z     vdW  Elec       q    Type
REMARK                         _______ _______ _______ _____ _____    ______ ____
ROOT
ATOM      1  C   UNL     1       5.648   5.146  14.455  0.00  0.00    +0.000 C 
ATOM      2  C   UNL     1       5.803   6.493  15.138  0.00  0.00    +0.000 C 
ATOM      3  C   UNL     1       4.951   6.360  16.373  0.00  0.00    +0.000 C 
ATOM      4  C   UNL     1       5.016   4.868  16.714  0.00  0.00    +0.000 C 
ATOM      5  C   UNL     1       3.636   4.322  17.110  0.00  0.00    +0.000 C 
ATOM      6  C   UNL     1       3.217   4.820  18.494  0.00  0.00    +0.000 C 
ATOM      7  N   UNL     1       4.167   4.465  19.565  0.00  0.00    +0.000 NA
ATOM      8  C   UNL     1       5.513   4.953  19.218  0.00  0.00    +0.000 C 
ATOM      9  C   UNL     1       6.017   4.531  17.832  0.00  0.00    +0.000 C 
ATOM     10  O   UNL     1       5.440   4.192  15.513  0.00  0.00    +0.000 OA
ENDROOT
BRANCH   1  12
ATOM     11  O   UNL     1       7.987   5.282  13.785  0.00  0.00    +0.000 OA
ATOM     12  C   UNL     1       6.875   4.783  13.596  0.00  0.00    +0.000 C 
ATOM     13  N   UNL     1       6.659   3.817  12.637  0.00  0.00    +0.000 N 
ATOM     14  C   UNL     1       7.669   3.388  11.684  0.00  0.00    +0.000 C 
ATOM     15  C   UNL     1       7.403   1.929  11.329  0.00  0.00    +0.000 C 
ATOM     16  C   UNL     1       5.948   1.745  10.889  0.00  0.00    +0.000 C 
ATOM     17  C   UNL     1       4.993   2.411  11.882  0.00  0.00    +0.000 C 
ATOM     18  O   UNL     1       5.365   3.785  12.058  0.00  0.00    +0.000 OA
ENDBRANCH   1  12
BRANCH   7  19
ATOM     19  C   UNL     1       4.087   3.028  19.900  0.00  0.00    +0.000 C 
BRANCH  19  20
ATOM     20  C   UNL     1       2.907   2.609  20.816  0.00  0.00    +0.000 C 
ATOM     21  C   UNL     1       2.245   3.787  21.550  0.00  0.00    +0.000 C 
ATOM     22  C   UNL     1       1.246   4.542  20.682  0.00  0.00    +0.000 C 
ATOM     23  O   UNL     1       0.272   3.649  20.143  0.00  0.00    +0.000 OA
ATOM     24  C   UNL     1       0.862   2.689  19.274  0.00  0.00    +0.000 C 
ATOM     25  C   UNL     1       1.850   1.810  20.028  0.00  0.00    +0.000 C 
ENDBRANCH  19  20
ENDBRANCH   7  19
TORSDOF 3
ENDMDL
MODEL 6
REMARK VINA RESULT:      -5.9      2.007      2.427
REMARK  Name = 
REMARK  3 active torsions:
REMARK  status: ('A' for Active; 'I' for Inactive)
REMARK    1  A    between atoms: C_2  and  C_3
REMARK    2  A    between atoms: N_9  and  C_10
REMARK    3  A    between atoms: C_10  and  C_11
REMARK                            x       y       z     vdW  Elec       q    Type
REMARK                         _______ _______ _______ _____ _____    ______ ____
ROOT
ATOM      1  C   UNL     1      -0.820  11.216  20.494  0.00  0.00    +0.000 C 
ATOM      2  C   UNL     1       0.517  11.904  20.287  0.00  0.00    +0.000 C 
ATOM      3  C   UNL     1       1.497  10.760  20.246  0.00  0.00    +0.000 C 
ATOM      4  C   UNL     1       0.687   9.594  19.671  0.00  0.00    +0.000 C 
ATOM      5  C   UNL     1       0.968   8.288  20.430  0.00  0.00    +0.000 C 
ATOM      6  C   UNL     1       2.358   7.742  20.100  0.00  0.00    +0.000 C 
ATOM      7  N   UNL     1       2.569   7.483  18.663  0.00  0.00    +0.000 NA
ATOM      8  C   UNL     1       2.290   8.707  17.891  0.00  0.00    +0.000 C 
ATOM      9  C   UNL     1       0.927   9.353  18.172  0.00  0.00    +0.000 C 
ATOM     10  O   UNL     1      -0.703   9.931  19.856  0.00  0.00    +0.000 OA
ENDROOT
BRANCH   1  12
ATOM     11  O   UNL     1      -2.145  12.204  18.703  0.00  0.00    +0.000 OA
ATOM     12  C   UNL     1      -1.992  12.033  19.915  0.00  0.00    +0.000 C 
ATOM     13  N   UNL     1      -2.892  12.512  20.842  0.00  0.00    +0.000 N 
ATOM     14  C   UNL     1      -4.024  13.359  20.503  0.00  0.00    +0.000 C 
ATOM     15  C   UNL     1      -5.140  13.091  21.507  0.00  0.00    +0.000 C 
ATOM     16  C   UNL     1      -4.612  13.222  22.938  0.00  0.00    +0.000 C 
ATOM     17  C   UNL     1      -3.310  12.436  23.110  0.00  0.00    +0.000 C 
ATOM     18  O   UNL     1      -2.364  12.850  22.114  0.00  0.00    +0.000 OA
ENDBRANCH   1  12
BRANCH   7  19
ATOM     19  C   UNL     1       1.833   6.280  18.220  0.00  0.00    +0.000 C 
BRANCH  19  20
ATOM     20  C   UNL     1       2.700   5.037  17.894  0.00  0.00    +0.000 C 
ATOM     21  C   UNL     1       3.653   4.631  19.031  0.00  0.00    +0.000 C 
ATOM     22  C   UNL     1       2.967   3.813  20.118  0.00  0.00    +0.000 C 
ATOM     23  O   UNL     1       2.312   2.676  19.555  0.00  0.00    +0.000 OA
ATOM     24  C   UNL     1       1.268   3.057  18.667  0.00  0.00    +0.000 C 
ATOM     25  C   UNL     1       1.821   3.839  17.483  0.00  0.00    +0.000 C 
ENDBRANCH  19  20
ENDBRANCH   7  19
TORSDOF 3
ENDMDL
MODEL 7
REMARK VINA RESULT:      -5.9      3.862      5.461
REMARK  Name = 
REMARK  3 active torsions:
REMARK  status: ('A' for Active; 'I' for Inactive)
REMARK    1  A    between atoms: C_2  and  C_3
REMARK    2  A    between atoms: N_9  and  C_10
REMARK    3  A    between atoms: C_10  and  C_11
REMARK                            x       y       z     vdW  Elec       q    Type
REMARK                         _______ _______ _______ _____ _____    ______ ____
ROOT
ATOM      1  C   UNL     1       1.252   8.621  19.151  0.00  0.00    +0.000 C 
ATOM      2  C   UNL     1       1.743   8.068  20.476  0.00  0.00    +0.000 C 
ATOM      3  C   UNL     1       2.099   6.640  20.149  0.00  0.00    +0.000 C 
ATOM      4  C   UNL     1       2.524   6.688  18.679  0.00  0.00    +0.000 C 
ATOM      5  C   UNL     1       1.943   5.506  17.888  0.00  0.00    +0.000 C 
ATOM      6  C   UNL     1       2.644   4.196  18.252  0.00  0.00    +0.000 C 
ATOM      7  N   UNL     1       4.101   4.219  18.023  0.00  0.00    +0.000 NA
ATOM      8  C   UNL     1       4.700   5.353  18.749  0.00  0.00    +0.000 C 
ATOM      9  C   UNL     1       4.048   6.714  18.475  0.00  0.00    +0.000 C 
ATOM     10  O   UNL     1       1.977   7.906  18.134  0.00  0.00    +0.000 OA
ENDROOT
BRANCH   1  12
ATOM     11  O   UNL     1       2.098  10.656  18.110  0.00  0.00    +0.000 OA
ATOM     12  C   UNL     1       1.466  10.143  19.038  0.00  0.00    +0.000 C 
ATOM     13  N   UNL     1       0.856  10.899  20.015  0.00  0.00    +0.000 N 
ATOM     14  C   UNL     1       0.996  12.342  20.122  0.00  0.00    +0.000 C 
ATOM     15  C   UNL     1      -0.281  12.902  20.740  0.00  0.00    +0.000 C 
ATOM     16  C   UNL     1      -0.612  12.164  22.041  0.00  0.00    +0.000 C 
ATOM     17  C   UNL     1      -0.536  10.649  21.838  0.00  0.00    +0.000 C 
ATOM     18  O   UNL     1       0.746  10.301  21.296  0.00  0.00    +0.000 OA
ENDBRANCH   1  12
BRANCH   7  19
ATOM     19  C   UNL     1       4.420   4.156  16.581  0.00  0.00    +0.000 C 
BRANCH  19  20
ATOM     20  C   UNL     1       5.838   3.642  16.222  0.00  0.00    +0.000 C 
ATOM     21  C   UNL     1       6.134   3.646  14.713  0.00  0.00    +0.000 C 
ATOM     22  C   UNL     1       6.548   5.016  14.192  0.00  0.00    +0.000 C 
ATOM     23  O   UNL     1       7.650   5.528  14.942  0.00  0.00    +0.000 OA
ATOM     24  C   UNL     1       7.304   5.742  16.305  0.00  0.00    +0.000 C 
ATOM     25  C   UNL     1       6.923   4.431  16.980  0.00  0.00    +0.000 C 
ENDBRANCH  19  20
ENDBRANCH   7  19
TORSDOF 3
ENDMDL
MODEL 8
REMARK VINA RESULT:      -5.8      1.686      2.258
REMARK  Name = 
REMARK  3 active torsions:
REMARK  status: ('A' for Active; 'I' for Inactive)
REMARK    1  A    between atoms: C_2  and  C_3
REMARK    2  A    between atoms: N_9  and  C_10
REMARK    3  A    between atoms: C_10  and  C_11
REMARK                            x       y       z     vdW  Elec       q    Type
REMARK                         _______ _______ _______ _____ _____    ______ ____
ROOT
ATOM      1  C   UNL     1      -1.094  11.339  20.065  0.00  0.00    +0.000 C 
ATOM      2  C   UNL     1       0.174  12.058  19.642  0.00  0.00    +0.000 C 
ATOM      3  C   UNL     1       1.241  11.005  19.792  0.00  0.00    +0.000 C 
ATOM      4  C   UNL     1       0.506   9.687  19.527  0.00  0.00    +0.000 C 
ATOM      5  C   UNL     1       0.921   8.602  20.531  0.00  0.00    +0.000 C 
ATOM      6  C   UNL     1       2.337   8.096  20.249  0.00  0.00    +0.000 C 
ATOM      7  N   UNL     1       2.511   7.546  18.892  0.00  0.00    +0.000 NA
ATOM      8  C   UNL     1       2.104   8.549  17.892  0.00  0.00    +0.000 C 
ATOM      9  C   UNL     1       0.706   9.143  18.103  0.00  0.00    +0.000 C 
ATOM     10  O   UNL     1      -0.898   9.958  19.712  0.00  0.00    +0.000 OA
ENDROOT
BRANCH   1  12
ATOM     11  O   UNL     1      -2.507  11.923  18.167  0.00  0.00    +0.000 OA
ATOM     12  C   UNL     1      -2.350  11.926  19.391  0.00  0.00    +0.000 C 
ATOM     13  N   UNL     1      -3.314  12.403  20.253  0.00  0.00    +0.000 N 
ATOM     14  C   UNL     1      -4.536  13.055  19.812  0.00  0.00    +0.000 C 
ATOM     15  C   UNL     1      -5.625  12.779  20.845  0.00  0.00    +0.000 C 
ATOM     16  C   UNL     1      -5.135  13.153  22.247  0.00  0.00    +0.000 C 
ATOM     17  C   UNL     1      -3.749  12.561  22.512  0.00  0.00    +0.000 C 
ATOM     18  O   UNL     1      -2.848  12.961  21.470  0.00  0.00    +0.000 OA
ENDBRANCH   1  12
BRANCH   7  19
ATOM     19  C   UNL     1       1.858   6.226  18.758  0.00  0.00    +0.000 C 
BRANCH  19  20
ATOM     20  C   UNL     1       2.143   5.210  19.894  0.00  0.00    +0.000 C 
ATOM     21  C   UNL     1       1.014   4.187  20.106  0.00  0.00    +0.000 C 
ATOM     22  C   UNL     1       1.069   3.029  19.118  0.00  0.00    +0.000 C 
ATOM     23  O   UNL     1       2.352   2.404  19.144  0.00  0.00    +0.000 OA
ATOM     24  C   UNL     1       3.379   3.295  18.723  0.00  0.00    +0.000 C 
ATOM     25  C   UNL     1       3.484   4.485  19.667  0.00  0.00    +0.000 C 
ENDBRANCH  19  20
ENDBRANCH   7  19
TORSDOF 3
ENDMDL
MODEL 9
REMARK VINA RESULT:      -5.8      2.187      8.305
REMARK  Name = 
REMARK  3 active torsions:
REMARK  status: ('A' for Active; 'I' for Inactive)
REMARK    1  A    between atoms: C_2  and  C_3
REMARK    2  A    between atoms: N_9  and  C_10
REMARK    3  A    between atoms: C_10  and  C_11
REMARK                            x       y       z     vdW  Elec       q    Type
REMARK                         _______ _______ _______ _____ _____    ______ ____
ROOT
ATOM      1  C   UNL     1       2.179   7.606  20.107  0.00  0.00    +0.000 C 
ATOM      2  C   UNL     1       2.003   8.209  21.489  0.00  0.00    +0.000 C 
ATOM      3  C   UNL     1       1.533   9.612  21.202  0.00  0.00    +0.000 C 
ATOM      4  C   UNL     1       0.769   9.487  19.880  0.00  0.00    +0.000 C 
ATOM      5  C   UNL     1       1.105  10.643  18.927  0.00  0.00    +0.000 C 
ATOM      6  C   UNL     1       0.471  11.954  19.397  0.00  0.00    +0.000 C 
ATOM      7  N   UNL     1      -0.996  11.889  19.528  0.00  0.00    +0.000 NA
ATOM      8  C   UNL     1      -1.368  10.777  20.421  0.00  0.00    +0.000 C 
ATOM      9  C   UNL     1      -0.757   9.419  20.052  0.00  0.00    +0.000 C 
ATOM     10  O   UNL     1       1.208   8.257  19.268  0.00  0.00    +0.000 OA
ENDROOT
BRANCH   1  12
ATOM     11  O   UNL     1       1.219   5.505  20.885  0.00  0.00    +0.000 OA
ATOM     12  C   UNL     1       1.992   6.075  20.111  0.00  0.00    +0.000 C 
ATOM     13  N   UNL     1       2.704   5.392  19.149  0.00  0.00    +0.000 N 
ATOM     14  C   UNL     1       2.715   3.943  19.034  0.00  0.00    +0.000 C 
ATOM     15  C   UNL     1       2.926   3.582  17.567  0.00  0.00    +0.000 C 
ATOM     16  C   UNL     1       4.155   4.306  17.011  0.00  0.00    +0.000 C 
ATOM     17  C   UNL     1       4.115   5.794  17.369  0.00  0.00    +0.000 C 
ATOM     18  O   UNL     1       3.960   5.943  18.787  0.00  0.00    +0.000 OA
ENDBRANCH   1  12
BRANCH   7  19
ATOM     19  C   UNL     1      -1.655  11.878  18.204  0.00  0.00    +0.000 C 
BRANCH  19  20
ATOM     20  C   UNL     1      -2.568  10.660  17.910  0.00  0.00    +0.000 C 
ATOM     21  C   UNL     1      -4.069  10.991  17.933  0.00  0.00    +0.000 C 
ATOM     22  C   UNL     1      -4.560  11.615  16.632  0.00  0.00    +0.000 C 
ATOM     23  O   UNL     1      -4.224  10.787  15.519  0.00  0.00    +0.000 OA
ATOM     24  C   UNL     1      -2.815  10.665  15.360  0.00  0.00    +0.000 C 
ATOM     25  C   UNL     1      -2.189   9.992  16.574  0.00  0.00    +0.000 C 
ENDBRANCH  19  20
ENDBRANCH   7  19
TORSDOF 3
ENDMDL
