MODEL 1
REMARK VINA RESULT:      -7.2      0.000      0.000
REMARK  Name = 
REMARK  14 active torsions:
REMARK  status: ('A' for Active; 'I' for Inactive)
REMARK    1  A    between atoms: C_1  and  C_2
REMARK    2  A    between atoms: C_2  and  C_3
REMARK    3  A    between atoms: C_4  and  C_5
REMARK    4  A    between atoms: C_5  and  O_6
REMARK    5  A    between atoms: C_5  and  C_7
REMARK    6  A    between atoms: C_7  and  O_8
REMARK    7  A    between atoms: C_7  and  C_9
REMARK    8  A    between atoms: C_10  and  C_11
REMARK    9  A    between atoms: N_18  and  C_19
REMARK   10  A    between atoms: C_20  and  O_21
REMARK   11  A    between atoms: C_20  and  C_23
REMARK   12  A    between atoms: O_21  and  C_22
REMARK   13  A    between atoms: C_23  and  C_25
REMARK   14  A    between atoms: C_31  and  O_32
REMARK                            x       y       z     vdW  Elec       q    Type
REMARK                         _______ _______ _______ _____ _____    ______ ____
ROOT
ATOM      1  C   UNL     1       6.280   4.747  13.363  0.00  0.00    +0.000 C 
ATOM      2  C   UNL     1       7.399   5.251  13.884  0.00  0.00    +0.000 C 
ATOM      3  C   UNL     1       8.820   5.271  13.483  0.00  0.00    +0.000 C 
ATOM      4  C   UNL     1       6.939   5.730  15.183  0.00  0.00    +0.000 C 
ATOM      5  O   UNL     1       7.668   6.311  15.973  0.00  0.00    +0.000 OA
ATOM      6  C   UNL     1       5.551   5.244  15.443  0.00  0.00    +0.000 C 
ATOM      7  O   UNL     1       5.108   4.876  14.127  0.00  0.00    +0.000 OA
ATOM      8  C   UNL     1       4.716   6.286  16.163  0.00  0.00    +0.000 C 
ATOM      9  O   UNL     1       4.282   7.313  15.659  0.00  0.00    +0.000 OA
ATOM     10  N   UNL     1       4.593   5.917  17.492  0.00  0.00    +0.000 N 
ATOM     11  C   UNL     1       3.883   6.711  18.481  0.00  0.00    +0.000 C 
ATOM     12  C   UNL     1       4.945   4.519  17.719  0.00  0.00    +0.000 C 
ATOM     13  C   UNL     1       5.562   4.015  16.378  0.00  0.00    +0.000 C 
ENDROOT
BRANCH  12  14
ATOM     14  O   UNL     1       5.764   4.418  18.876  0.00  0.00    +0.000 OA
ATOM     15  C   UNL     1       6.730   5.433  19.112  0.00  0.00    +0.000 C 
ENDBRANCH  12  14
BRANCH  12  16
ATOM     16  C   UNL     1       3.605   3.701  17.845  0.00  0.00    +0.000 C 
ATOM     17  O   UNL     1       3.161   3.050  16.891  0.00  0.00    +0.000 OA
BRANCH  16  18
ATOM     18  C   UNL     1       2.895   3.543  19.158  0.00  0.00    +0.000 A 
ATOM     19  C   UNL     1       1.710   4.201  19.499  0.00  0.00    +0.000 A 
ATOM     20  C   UNL     1       1.108   3.970  20.743  0.00  0.00    +0.000 A 
ATOM     21  C   UNL     1       1.689   3.096  21.660  0.00  0.00    +0.000 A 
ATOM     22  C   UNL     1       2.883   2.456  21.342  0.00  0.00    +0.000 A 
ATOM     23  C   UNL     1       3.480   2.677  20.102  0.00  0.00    +0.000 A 
ENDBRANCH  16  18
ENDBRANCH  12  16
BRANCH  13  24
ATOM     24  O   UNL     1       6.809   3.314  16.508  0.00  0.00    +0.000 OA
ATOM     25  H   UNL     1       7.357   3.713  17.206  0.00  0.00    +0.000 HD
ENDBRANCH  13  24
BRANCH   1  26
ATOM     26  C   UNL     1       6.158   3.995  12.068  0.00  0.00    +0.000 C 
BRANCH  26  27
ATOM     27  O   UNL     1       7.489   3.595  11.701  0.00  0.00    +0.000 OA
ATOM     28  H   UNL     1       8.096   4.259  12.078  0.00  0.00    +0.000 HD
ENDBRANCH  26  27
BRANCH  26  29
ATOM     29  C   UNL     1       5.195   2.775  12.102  0.00  0.00    +0.000 C 
BRANCH  29  31
ATOM     30  C   UNL     1       3.677   3.991  10.449  0.00  0.00    +0.000 C 
ATOM     31  C   UNL     1       4.033   2.900  11.145  0.00  0.00    +0.000 C 
BRANCH  30  33
ATOM     32  C   UNL     1       2.600   5.178   8.514  0.00  0.00    +0.000 C 
ATOM     33  C   UNL     1       2.473   4.074   9.555  0.00  0.00    +0.000 C 
ENDBRANCH  30  33
ENDBRANCH  29  31
BRANCH  29  34
ATOM     34  O   UNL     1       5.965   1.601  11.811  0.00  0.00    +0.000 OA
ATOM     35  H   UNL     1       6.707   1.583  12.440  0.00  0.00    +0.000 HD
ENDBRANCH  29  34
ENDBRANCH  26  29
ENDBRANCH   1  26
TORSDOF 10
ENDMDL
MODEL 2
REMARK VINA RESULT:      -7.0      7.711     11.136
REMARK  Name = 
REMARK  14 active torsions:
REMARK  status: ('A' for Active; 'I' for Inactive)
REMARK    1  A    between atoms: C_1  and  C_2
REMARK    2  A    between atoms: C_2  and  C_3
REMARK    3  A    between atoms: C_4  and  C_5
REMARK    4  A    between atoms: C_5  and  O_6
REMARK    5  A    between atoms: C_5  and  C_7
REMARK    6  A    between atoms: C_7  and  O_8
REMARK    7  A    between atoms: C_7  and  C_9
REMARK    8  A    between atoms: C_10  and  C_11
REMARK    9  A    between atoms: N_18  and  C_19
REMARK   10  A    between atoms: C_20  and  O_21
REMARK   11  A    between atoms: C_20  and  C_23
REMARK   12  A    between atoms: O_21  and  C_22
REMARK   13  A    between atoms: C_23  and  C_25
REMARK   14  A    between atoms: C_31  and  O_32
REMARK                            x       y       z     vdW  Elec       q    Type
REMARK                         _______ _______ _______ _____ _____    ______ ____
ROOT
ATOM      1  C   UNL     1       0.166  10.375  18.691  0.00  0.00    +0.000 C 
ATOM      2  C   UNL     1      -1.157  10.481  18.561  0.00  0.00    +0.000 C 
ATOM      3  C   UNL     1      -2.161   9.925  17.631  0.00  0.00    +0.000 C 
ATOM      4  C   UNL     1      -1.478  11.503  19.550  0.00  0.00    +0.000 C 
ATOM      5  O   UNL     1      -2.621  11.869  19.781  0.00  0.00    +0.000 OA
ATOM      6  C   UNL     1      -0.222  12.126  20.067  0.00  0.00    +0.000 C 
ATOM      7  O   UNL     1       0.772  11.160  19.686  0.00  0.00    +0.000 OA
ATOM      8  C   UNL     1      -0.317  12.439  21.547  0.00  0.00    +0.000 C 
ATOM      9  O   UNL     1      -0.298  11.610  22.447  0.00  0.00    +0.000 OA
ATOM     10  N   UNL     1      -0.502  13.804  21.702  0.00  0.00    +0.000 N 
ATOM     11  C   UNL     1      -0.671  14.447  22.994  0.00  0.00    +0.000 C 
ATOM     12  C   UNL     1      -0.178  14.552  20.492  0.00  0.00    +0.000 C 
ATOM     13  C   UNL     1       0.045  13.483  19.380  0.00  0.00    +0.000 C 
ENDROOT
BRANCH  12  14
ATOM     14  O   UNL     1      -1.186  15.523  20.251  0.00  0.00    +0.000 OA
ATOM     15  C   UNL     1      -0.883  16.890  20.494  0.00  0.00    +0.000 C 
ENDBRANCH  12  14
BRANCH  12  16
ATOM     16  C   UNL     1       1.250  15.189  20.690  0.00  0.00    +0.000 C 
ATOM     17  O   UNL     1       1.686  15.442  21.820  0.00  0.00    +0.000 OA
BRANCH  16  18
ATOM     18  C   UNL     1       2.201  15.367  19.544  0.00  0.00    +0.000 A 
ATOM     19  C   UNL     1       2.073  16.347  18.556  0.00  0.00    +0.000 A 
ATOM     20  C   UNL     1       3.028  16.450  17.535  0.00  0.00    +0.000 A 
ATOM     21  C   UNL     1       4.108  15.570  17.485  0.00  0.00    +0.000 A 
ATOM     22  C   UNL     1       4.232  14.574  18.448  0.00  0.00    +0.000 A 
ATOM     23  C   UNL     1       3.288  14.474  19.468  0.00  0.00    +0.000 A 
ENDBRANCH  16  18
ENDBRANCH  12  16
BRANCH  13  24
ATOM     24  O   UNL     1      -0.653  13.731  18.148  0.00  0.00    +0.000 OA
ATOM     25  H   UNL     1      -0.697  12.923  17.608  0.00  0.00    +0.000 HD
ENDBRANCH  13  24
BRANCH   1  26
ATOM     26  C   UNL     1       1.084   9.550  17.835  0.00  0.00    +0.000 C 
BRANCH  26  27
ATOM     27  O   UNL     1       2.135  10.428  17.398  0.00  0.00    +0.000 OA
ATOM     28  H   UNL     1       1.766  10.971  16.676  0.00  0.00    +0.000 HD
ENDBRANCH  26  27
BRANCH  26  29
ATOM     29  C   UNL     1       1.663   8.280  18.521  0.00  0.00    +0.000 C 
BRANCH  29  31
ATOM     30  C   UNL     1       3.538   6.744  17.721  0.00  0.00    +0.000 C 
ATOM     31  C   UNL     1       3.070   7.949  18.085  0.00  0.00    +0.000 C 
BRANCH  30  33
ATOM     32  C   UNL     1       5.169   6.379  15.846  0.00  0.00    +0.000 C 
ATOM     33  C   UNL     1       4.966   6.462  17.352  0.00  0.00    +0.000 C 
ENDBRANCH  30  33
ENDBRANCH  29  31
BRANCH  29  34
ATOM     34  O   UNL     1       1.608   8.486  19.939  0.00  0.00    +0.000 OA
ATOM     35  H   UNL     1       1.115   7.737  20.317  0.00  0.00    +0.000 HD
ENDBRANCH  29  34
ENDBRANCH  26  29
ENDBRANCH   1  26
TORSDOF 10
ENDMDL
MODEL 3
REMARK VINA RESULT:      -7.0      3.157      6.287
REMARK  Name = 
REMARK  14 active torsions:
REMARK  status: ('A' for Active; 'I' for Inactive)
REMARK    1  A    between atoms: C_1  and  C_2
REMARK    2  A    between atoms: C_2  and  C_3
REMARK    3  A    between atoms: C_4  and  C_5
REMARK    4  A    between atoms: C_5  and  O_6
REMARK    5  A    between atoms: C_5  and  C_7
REMARK    6  A    between atoms: C_7  and  O_8
REMARK    7  A    between atoms: C_7  and  C_9
REMARK    8  A    between atoms: C_10  and  C_11
REMARK    9  A    between atoms: N_18  and  C_19
REMARK   10  A    between atoms: C_20  and  O_21
REMARK   11  A    between atoms: C_20  and  C_23
REMARK   12  A    between atoms: O_21  and  C_22
REMARK   13  A    between atoms: C_23  and  C_25
REMARK   14  A    between atoms: C_31  and  O_32
REMARK                            x       y       z     vdW  Elec       q    Type
REMARK                         _______ _______ _______ _____ _____    ______ ____
ROOT
ATOM      1  C   UNL     1       6.274   4.773  17.512  0.00  0.00    +0.000 C 
ATOM      2  C   UNL     1       5.749   3.922  16.630  0.00  0.00    +0.000 C 
ATOM      3  C   UNL     1       5.936   3.669  15.187  0.00  0.00    +0.000 C 
ATOM      4  C   UNL     1       4.700   3.281  17.415  0.00  0.00    +0.000 C 
ATOM      5  O   UNL     1       3.994   2.386  16.975  0.00  0.00    +0.000 OA
ATOM      6  C   UNL     1       4.522   4.001  18.712  0.00  0.00    +0.000 C 
ATOM      7  O   UNL     1       5.745   4.748  18.813  0.00  0.00    +0.000 OA
ATOM      8  C   UNL     1       4.226   3.043  19.850  0.00  0.00    +0.000 C 
ATOM      9  O   UNL     1       5.038   2.283  20.362  0.00  0.00    +0.000 OA
ATOM     10  N   UNL     1       2.878   3.121  20.159  0.00  0.00    +0.000 N 
ATOM     11  C   UNL     1       2.243   2.309  21.182  0.00  0.00    +0.000 C 
ATOM     12  C   UNL     1       2.245   4.313  19.602  0.00  0.00    +0.000 C 
ATOM     13  C   UNL     1       3.306   4.951  18.654  0.00  0.00    +0.000 C 
ENDROOT
BRANCH  12  14
ATOM     14  O   UNL     1       0.999   3.960  19.021  0.00  0.00    +0.000 OA
ATOM     15  C   UNL     1       0.839   2.644  18.508  0.00  0.00    +0.000 C 
ENDBRANCH  12  14
BRANCH  12  16
ATOM     16  C   UNL     1       2.102   5.367  20.765  0.00  0.00    +0.000 C 
ATOM     17  O   UNL     1       2.449   5.094  21.921  0.00  0.00    +0.000 OA
BRANCH  16  18
ATOM     18  C   UNL     1       1.694   6.786  20.500  0.00  0.00    +0.000 A 
ATOM     19  C   UNL     1       2.132   7.543  19.411  0.00  0.00    +0.000 A 
ATOM     20  C   UNL     1       1.675   8.857  19.235  0.00  0.00    +0.000 A 
ATOM     21  C   UNL     1       0.792   9.428  20.149  0.00  0.00    +0.000 A 
ATOM     22  C   UNL     1       0.369   8.693  21.252  0.00  0.00    +0.000 A 
ATOM     23  C   UNL     1       0.816   7.384  21.426  0.00  0.00    +0.000 A 
ENDBRANCH  16  18
ENDBRANCH  12  16
BRANCH  13  24
ATOM     24  O   UNL     1       2.821   5.300  17.347  0.00  0.00    +0.000 OA
ATOM     25  H   UNL     1       1.848   5.323  17.335  0.00  0.00    +0.000 HD
ENDBRANCH  13  24
BRANCH   1  26
ATOM     26  C   UNL     1       7.330   5.806  17.237  0.00  0.00    +0.000 C 
BRANCH  26  27
ATOM     27  O   UNL     1       7.662   5.690  15.843  0.00  0.00    +0.000 OA
ATOM     28  H   UNL     1       7.640   4.739  15.627  0.00  0.00    +0.000 HD
ENDBRANCH  26  27
BRANCH  26  29
ATOM     29  C   UNL     1       6.937   7.265  17.601  0.00  0.00    +0.000 C 
BRANCH  29  31
ATOM     30  C   UNL     1       8.094   9.492  18.071  0.00  0.00    +0.000 C 
ATOM     31  C   UNL     1       8.123   8.188  17.750  0.00  0.00    +0.000 C 
BRANCH  30  33
ATOM     32  C   UNL     1       8.958  11.849  17.977  0.00  0.00    +0.000 C 
ATOM     33  C   UNL     1       9.305  10.377  18.147  0.00  0.00    +0.000 C 
ENDBRANCH  30  33
ENDBRANCH  29  31
BRANCH  29  34
ATOM     34  O   UNL     1       6.048   7.745  16.584  0.00  0.00    +0.000 OA
ATOM     35  H   UNL     1       5.720   8.613  16.878  0.00  0.00    +0.000 HD
ENDBRANCH  29  34
ENDBRANCH  26  29
ENDBRANCH   1  26
TORSDOF 10
ENDMDL
MODEL 4
REMARK VINA RESULT:      -6.9      3.847      8.236
REMARK  Name = 
REMARK  14 active torsions:
REMARK  status: ('A' for Active; 'I' for Inactive)
REMARK    1  A    between atoms: C_1  and  C_2
REMARK    2  A    between atoms: C_2  and  C_3
REMARK    3  A    between atoms: C_4  and  C_5
REMARK    4  A    between atoms: C_5  and  O_6
REMARK    5  A    between atoms: C_5  and  C_7
REMARK    6  A    between atoms: C_7  and  O_8
REMARK    7  A    between atoms: C_7  and  C_9
REMARK    8  A    between atoms: C_10  and  C_11
REMARK    9  A    between atoms: N_18  and  C_19
REMARK   10  A    between atoms: C_20  and  O_21
REMARK   11  A    between atoms: C_20  and  C_23
REMARK   12  A    between atoms: O_21  and  C_22
REMARK   13  A    between atoms: C_23  and  C_25
REMARK   14  A    between atoms: C_31  and  O_32
REMARK                            x       y       z     vdW  Elec       q    Type
REMARK                         _______ _______ _______ _____ _____    ______ ____
ROOT
ATOM      1  C   UNL     1       1.682   7.706  19.158  0.00  0.00    +0.000 C 
ATOM      2  C   UNL     1       1.222   7.087  20.246  0.00  0.00    +0.000 C 
ATOM      3  C   UNL     1       0.671   7.529  21.543  0.00  0.00    +0.000 C 
ATOM      4  C   UNL     1       1.532   5.692  19.955  0.00  0.00    +0.000 C 
ATOM      5  O   UNL     1       1.228   4.774  20.702  0.00  0.00    +0.000 OA
ATOM      6  C   UNL     1       2.406   5.605  18.746  0.00  0.00    +0.000 C 
ATOM      7  O   UNL     1       2.215   6.895  18.143  0.00  0.00    +0.000 OA
ATOM      8  C   UNL     1       2.060   4.406  17.886  0.00  0.00    +0.000 C 
ATOM      9  O   UNL     1       1.057   4.302  17.192  0.00  0.00    +0.000 OA
ATOM     10  N   UNL     1       3.023   3.429  18.076  0.00  0.00    +0.000 N 
ATOM     11  C   UNL     1       2.981   2.127  17.431  0.00  0.00    +0.000 C 
ATOM     12  C   UNL     1       4.231   3.950  18.707  0.00  0.00    +0.000 C 
ATOM     13  C   UNL     1       3.884   5.405  19.146  0.00  0.00    +0.000 C 
ENDROOT
BRANCH  12  14
ATOM     14  O   UNL     1       4.655   3.059  19.728  0.00  0.00    +0.000 OA
ATOM     15  C   UNL     1       3.672   2.489  20.581  0.00  0.00    +0.000 C 
ENDBRANCH  12  14
BRANCH  12  16
ATOM     16  C   UNL     1       5.313   4.148  17.579  0.00  0.00    +0.000 C 
ATOM     17  O   UNL     1       5.341   3.414  16.583  0.00  0.00    +0.000 OA
BRANCH  16  18
ATOM     18  C   UNL     1       6.249   5.321  17.579  0.00  0.00    +0.000 A 
ATOM     19  C   UNL     1       6.250   6.331  16.612  0.00  0.00    +0.000 A 
ATOM     20  C   UNL     1       7.150   7.401  16.711  0.00  0.00    +0.000 A 
ATOM     21  C   UNL     1       8.062   7.465  17.763  0.00  0.00    +0.000 A 
ATOM     22  C   UNL     1       8.088   6.453  18.716  0.00  0.00    +0.000 A 
ATOM     23  C   UNL     1       7.190   5.391  18.625  0.00  0.00    +0.000 A 
ENDBRANCH  16  18
ENDBRANCH  12  16
BRANCH  13  24
ATOM     24  O   UNL     1       4.236   5.732  20.501  0.00  0.00    +0.000 OA
ATOM     25  H   UNL     1       4.602   6.632  20.554  0.00  0.00    +0.000 HD
ENDBRANCH  13  24
BRANCH   1  26
ATOM     26  C   UNL     1       1.749   9.190  18.937  0.00  0.00    +0.000 C 
BRANCH  26  27
ATOM     27  O   UNL     1       2.344   9.384  17.644  0.00  0.00    +0.000 OA
ATOM     28  H   UNL     1       1.774  10.013  17.162  0.00  0.00    +0.000 HD
ENDBRANCH  26  27
BRANCH  26  29
ATOM     29  C   UNL     1       0.389   9.936  19.047  0.00  0.00    +0.000 C 
BRANCH  29  31
ATOM     30  C   UNL     1      -0.729  10.990  21.085  0.00  0.00    +0.000 C 
ATOM     31  C   UNL     1       0.304  10.861  20.238  0.00  0.00    +0.000 C 
BRANCH  30  33
ATOM     32  C   UNL     1      -1.948  11.708  23.162  0.00  0.00    +0.000 C 
ATOM     33  C   UNL     1      -0.781  11.971  22.221  0.00  0.00    +0.000 C 
ENDBRANCH  30  33
ENDBRANCH  29  31
BRANCH  29  34
ATOM     34  O   UNL     1       0.189  10.664  17.827  0.00  0.00    +0.000 OA
ATOM     35  H   UNL     1       0.844  11.383  17.813  0.00  0.00    +0.000 HD
ENDBRANCH  29  34
ENDBRANCH  26  29
ENDBRANCH   1  26
TORSDOF 10
ENDMDL
MODEL 5
REMARK VINA RESULT:      -6.9     11.144     14.293
REMARK  Name = 
REMARK  14 active torsions:
REMARK  status: ('A' for Active; 'I' for Inactive)
REMARK    1  A    between atoms: C_1  and  C_2
REMARK    2  A    between atoms: C_2  and  C_3
REMARK    3  A    between atoms: C_4  and  C_5
REMARK    4  A    between atoms: C_5  and  O_6
REMARK    5  A    between atoms: C_5  and  C_7
REMARK    6  A    between atoms: C_7  and  O_8
REMARK    7  A    between atoms: C_7  and  C_9
REMARK    8  A    between atoms: C_10  and  C_11
REMARK    9  A    between atoms: N_18  and  C_19
REMARK   10  A    between atoms: C_20  and  O_21
REMARK   11  A    between atoms: C_20  and  C_23
REMARK   12  A    between atoms: O_21  and  C_22
REMARK   13  A    between atoms: C_23  and  C_25
REMARK   14  A    between atoms: C_31  and  O_32
REMARK                            x       y       z     vdW  Elec       q    Type
REMARK                         _______ _______ _______ _____ _____    ______ ____
ROOT
ATOM      1  C   UNL     1      -4.774  12.095  18.799  0.00  0.00    +0.000 C 
ATOM      2  C   UNL     1      -5.852  12.685  18.283  0.00  0.00    +0.000 C 
ATOM      3  C   UNL     1      -6.318  12.993  16.916  0.00  0.00    +0.000 C 
ATOM      4  C   UNL     1      -6.530  13.175  19.477  0.00  0.00    +0.000 C 
ATOM      5  O   UNL     1      -7.607  13.752  19.440  0.00  0.00    +0.000 OA
ATOM      6  C   UNL     1      -5.639  13.028  20.667  0.00  0.00    +0.000 C 
ATOM      7  O   UNL     1      -4.668  12.078  20.200  0.00  0.00    +0.000 OA
ATOM      8  C   UNL     1      -6.417  12.635  21.908  0.00  0.00    +0.000 C 
ATOM      9  O   UNL     1      -6.906  11.532  22.114  0.00  0.00    +0.000 OA
ATOM     10  N   UNL     1      -6.543  13.747  22.725  0.00  0.00    +0.000 N 
ATOM     11  C   UNL     1      -7.266  13.735  23.985  0.00  0.00    +0.000 C 
ATOM     12  C   UNL     1      -5.611  14.811  22.368  0.00  0.00    +0.000 C 
ATOM     13  C   UNL     1      -4.962  14.371  21.020  0.00  0.00    +0.000 C 
ENDROOT
BRANCH  12  14
ATOM     14  O   UNL     1      -6.292  16.058  22.371  0.00  0.00    +0.000 OA
ATOM     15  C   UNL     1      -5.520  17.251  22.408  0.00  0.00    +0.000 C 
ENDBRANCH  12  14
BRANCH  12  16
ATOM     16  C   UNL     1      -4.414  14.764  23.391  0.00  0.00    +0.000 C 
ATOM     17  O   UNL     1      -4.476  15.359  24.475  0.00  0.00    +0.000 OA
BRANCH  16  18
ATOM     18  C   UNL     1      -3.223  13.878  23.175  0.00  0.00    +0.000 A 
ATOM     19  C   UNL     1      -3.208  12.502  23.416  0.00  0.00    +0.000 A 
ATOM     20  C   UNL     1      -2.051  11.753  23.160  0.00  0.00    +0.000 A 
ATOM     21  C   UNL     1      -0.900  12.371  22.677  0.00  0.00    +0.000 A 
ATOM     22  C   UNL     1      -0.894  13.745  22.458  0.00  0.00    +0.000 A 
ATOM     23  C   UNL     1      -2.045  14.492  22.704  0.00  0.00    +0.000 A 
ENDBRANCH  16  18
ENDBRANCH  12  16
BRANCH  13  24
ATOM     24  O   UNL     1      -4.950  15.377  19.993  0.00  0.00    +0.000 OA
ATOM     25  H   UNL     1      -4.466  16.167  20.292  0.00  0.00    +0.000 HD
ENDBRANCH  13  24
BRANCH   1  26
ATOM     26  C   UNL     1      -3.625  11.504  18.032  0.00  0.00    +0.000 C 
BRANCH  26  27
ATOM     27  O   UNL     1      -3.847  11.829  16.650  0.00  0.00    +0.000 OA
ATOM     28  H   UNL     1      -4.486  12.566  16.633  0.00  0.00    +0.000 HD
ENDBRANCH  26  27
BRANCH  26  29
ATOM     29  C   UNL     1      -2.214  11.963  18.497  0.00  0.00    +0.000 C 
BRANCH  29  31
ATOM     30  C   UNL     1      -0.116  10.759  19.312  0.00  0.00    +0.000 C 
ATOM     31  C   UNL     1      -1.450  10.895  19.244  0.00  0.00    +0.000 C 
BRANCH  30  33
ATOM     32  C   UNL     1      -0.226   9.087  21.183  0.00  0.00    +0.000 C 
ATOM     33  C   UNL     1       0.589   9.640  20.023  0.00  0.00    +0.000 C 
ENDBRANCH  30  33
ENDBRANCH  29  31
BRANCH  29  34
ATOM     34  O   UNL     1      -1.487  12.387  17.336  0.00  0.00    +0.000 OA
ATOM     35  H   UNL     1      -1.690  11.754  16.626  0.00  0.00    +0.000 HD
ENDBRANCH  29  34
ENDBRANCH  26  29
ENDBRANCH   1  26
TORSDOF 10
ENDMDL
MODEL 6
REMARK VINA RESULT:      -6.9      9.309     12.153
REMARK  Name = 
REMARK  14 active torsions:
REMARK  status: ('A' for Active; 'I' for Inactive)
REMARK    1  A    between atoms: C_1  and  C_2
REMARK    2  A    between atoms: C_2  and  C_3
REMARK    3  A    between atoms: C_4  and  C_5
REMARK    4  A    between atoms: C_5  and  O_6
REMARK    5  A    between atoms: C_5  and  C_7
REMARK    6  A    between atoms: C_7  and  O_8
REMARK    7  A    between atoms: C_7  and  C_9
REMARK    8  A    between atoms: C_10  and  C_11
REMARK    9  A    between atoms: N_18  and  C_19
REMARK   10  A    between atoms: C_20  and  O_21
REMARK   11  A    between atoms: C_20  and  C_23
REMARK   12  A    between atoms: O_21  and  C_22
REMARK   13  A    between atoms: C_23  and  C_25
REMARK   14  A    between atoms: C_31  and  O_32
REMARK                            x       y       z     vdW  Elec       q    Type
REMARK                         _______ _______ _______ _____ _____    ______ ____
ROOT
ATOM      1  C   UNL     1       3.516  14.978  18.979  0.00  0.00    +0.000 C 
ATOM      2  C   UNL     1       3.728  16.127  18.337  0.00  0.00    +0.000 C 
ATOM      3  C   UNL     1       3.076  16.829  17.212  0.00  0.00    +0.000 C 
ATOM      4  C   UNL     1       4.983  16.578  18.926  0.00  0.00    +0.000 C 
ATOM      5  O   UNL     1       5.512  17.640  18.633  0.00  0.00    +0.000 OA
ATOM      6  C   UNL     1       5.574  15.489  19.761  0.00  0.00    +0.000 C 
ATOM      7  O   UNL     1       4.446  14.623  19.970  0.00  0.00    +0.000 OA
ATOM      8  C   UNL     1       6.238  16.035  21.011  0.00  0.00    +0.000 C 
ATOM      9  O   UNL     1       5.648  16.486  21.983  0.00  0.00    +0.000 OA
ATOM     10  N   UNL     1       7.612  16.005  20.833  0.00  0.00    +0.000 N 
ATOM     11  C   UNL     1       8.557  16.491  21.824  0.00  0.00    +0.000 C 
ATOM     12  C   UNL     1       8.014  15.145  19.725  0.00  0.00    +0.000 C 
ATOM     13  C   UNL     1       6.693  14.751  18.995  0.00  0.00    +0.000 C 
ENDROOT
BRANCH  12  14
ATOM     14  O   UNL     1       9.001  15.806  18.946  0.00  0.00    +0.000 OA
ATOM     15  C   UNL     1       8.785  17.165  18.590  0.00  0.00    +0.000 C 
ENDBRANCH  12  14
BRANCH  12  16
ATOM     16  C   UNL     1       8.524  13.785  20.334  0.00  0.00    +0.000 C 
ATOM     17  O   UNL     1       7.963  13.271  21.310  0.00  0.00    +0.000 OA
BRANCH  16  18
ATOM     18  C   UNL     1       9.600  12.976  19.671  0.00  0.00    +0.000 A 
ATOM     19  C   UNL     1       9.480  12.382  18.412  0.00  0.00    +0.000 A 
ATOM     20  C   UNL     1      10.552  11.664  17.865  0.00  0.00    +0.000 A 
ATOM     21  C   UNL     1      11.744  11.521  18.574  0.00  0.00    +0.000 A 
ATOM     22  C   UNL     1      11.866  12.085  19.840  0.00  0.00    +0.000 A 
ATOM     23  C   UNL     1      10.804  12.806  20.383  0.00  0.00    +0.000 A 
ENDBRANCH  16  18
ENDBRANCH  12  16
BRANCH  13  24
ATOM     24  O   UNL     1       6.715  14.915  17.567  0.00  0.00    +0.000 OA
ATOM     25  H   UNL     1       7.046  15.799  17.328  0.00  0.00    +0.000 HD
ENDBRANCH  13  24
BRANCH   1  26
ATOM     26  C   UNL     1       2.419  13.990  18.702  0.00  0.00    +0.000 C 
BRANCH  26  27
ATOM     27  O   UNL     1       3.047  12.833  18.124  0.00  0.00    +0.000 OA
ATOM     28  H   UNL     1       3.404  12.307  18.864  0.00  0.00    +0.000 HD
ENDBRANCH  26  27
BRANCH  26  29
ATOM     29  C   UNL     1       1.554  13.602  19.934  0.00  0.00    +0.000 C 
BRANCH  29  31
ATOM     30  C   UNL     1      -0.465  12.688  18.667  0.00  0.00    +0.000 C 
ATOM     31  C   UNL     1       0.477  12.591  19.620  0.00  0.00    +0.000 C 
BRANCH  30  33
ATOM     32  C   UNL     1      -1.006  10.353  17.916  0.00  0.00    +0.000 C 
ATOM     33  C   UNL     1      -1.550  11.676  18.437  0.00  0.00    +0.000 C 
ENDBRANCH  30  33
ENDBRANCH  29  31
BRANCH  29  34
ATOM     34  O   UNL     1       2.436  13.101  20.948  0.00  0.00    +0.000 OA
ATOM     35  H   UNL     1       2.417  13.739  21.683  0.00  0.00    +0.000 HD
ENDBRANCH  29  34
ENDBRANCH  26  29
ENDBRANCH   1  26
TORSDOF 10
ENDMDL
MODEL 7
REMARK VINA RESULT:      -6.8      9.782     13.603
REMARK  Name = 
REMARK  14 active torsions:
REMARK  status: ('A' for Active; 'I' for Inactive)
REMARK    1  A    between atoms: C_1  and  C_2
REMARK    2  A    between atoms: C_2  and  C_3
REMARK    3  A    between atoms: C_4  and  C_5
REMARK    4  A    between atoms: C_5  and  O_6
REMARK    5  A    between atoms: C_5  and  C_7
REMARK    6  A    between atoms: C_7  and  O_8
REMARK    7  A    between atoms: C_7  and  C_9
REMARK    8  A    between atoms: C_10  and  C_11
REMARK    9  A    between atoms: N_18  and  C_19
REMARK   10  A    between atoms: C_20  and  O_21
REMARK   11  A    between atoms: C_20  and  C_23
REMARK   12  A    between atoms: O_21  and  C_22
REMARK   13  A    between atoms: C_23  and  C_25
REMARK   14  A    between atoms: C_31  and  O_32
REMARK                            x       y       z     vdW  Elec       q    Type
REMARK                         _______ _______ _______ _____ _____    ______ ____
ROOT
ATOM      1  C   UNL     1      -2.854  12.893  23.436  0.00  0.00    +0.000 C 
ATOM      2  C   UNL     1      -2.213  14.052  23.286  0.00  0.00    +0.000 C 
ATOM      3  C   UNL     1      -2.428  15.432  23.769  0.00  0.00    +0.000 C 
ATOM      4  C   UNL     1      -1.191  13.710  22.305  0.00  0.00    +0.000 C 
ATOM      5  O   UNL     1      -0.348  14.506  21.918  0.00  0.00    +0.000 OA
ATOM      6  C   UNL     1      -1.458  12.352  21.743  0.00  0.00    +0.000 C 
ATOM      7  O   UNL     1      -2.355  11.794  22.716  0.00  0.00    +0.000 OA
ATOM      8  C   UNL     1      -0.174  11.582  21.497  0.00  0.00    +0.000 C 
ATOM      9  O   UNL     1       0.538  11.102  22.369  0.00  0.00    +0.000 OA
ATOM     10  N   UNL     1       0.090  11.580  20.137  0.00  0.00    +0.000 N 
ATOM     11  C   UNL     1       1.267  10.960  19.552  0.00  0.00    +0.000 C 
ATOM     12  C   UNL     1      -1.074  11.954  19.341  0.00  0.00    +0.000 C 
ATOM     13  C   UNL     1      -2.144  12.449  20.363  0.00  0.00    +0.000 C 
ENDROOT
BRANCH  12  14
ATOM     14  O   UNL     1      -0.682  12.874  18.332  0.00  0.00    +0.000 OA
ATOM     15  C   UNL     1       0.078  14.013  18.711  0.00  0.00    +0.000 C 
ENDBRANCH  12  14
BRANCH  12  16
ATOM     16  C   UNL     1      -1.700  10.632  18.756  0.00  0.00    +0.000 C 
ATOM     17  O   UNL     1      -1.680   9.576  19.399  0.00  0.00    +0.000 OA
BRANCH  16  18
ATOM     18  C   UNL     1      -2.483  10.628  17.475  0.00  0.00    +0.000 A 
ATOM     19  C   UNL     1      -2.105   9.939  16.321  0.00  0.00    +0.000 A 
ATOM     20  C   UNL     1      -2.916   9.976  15.178  0.00  0.00    +0.000 A 
ATOM     21  C   UNL     1      -4.100  10.712  15.175  0.00  0.00    +0.000 A 
ATOM     22  C   UNL     1      -4.474  11.424  16.309  0.00  0.00    +0.000 A 
ATOM     23  C   UNL     1      -3.673  11.383  17.450  0.00  0.00    +0.000 A 
ENDBRANCH  16  18
ENDBRANCH  12  16
BRANCH  13  24
ATOM     24  O   UNL     1      -2.761  13.705  20.036  0.00  0.00    +0.000 OA
ATOM     25  H   UNL     1      -3.535  13.866  20.604  0.00  0.00    +0.000 HD
ENDBRANCH  13  24
BRANCH   1  26
ATOM     26  C   UNL     1      -4.097  12.657  24.245  0.00  0.00    +0.000 C 
BRANCH  26  27
ATOM     27  O   UNL     1      -3.853  13.221  25.544  0.00  0.00    +0.000 OA
ATOM     28  H   UNL     1      -2.885  13.287  25.645  0.00  0.00    +0.000 HD
ENDBRANCH  26  27
BRANCH  26  29
ATOM     29  C   UNL     1      -5.406  13.222  23.624  0.00  0.00    +0.000 C 
BRANCH  29  31
ATOM     30  C   UNL     1      -6.750  12.932  21.473  0.00  0.00    +0.000 C 
ATOM     31  C   UNL     1      -5.621  12.804  22.189  0.00  0.00    +0.000 C 
BRANCH  30  33
ATOM     32  C   UNL     1      -7.200  10.947  20.000  0.00  0.00    +0.000 C 
ATOM     33  C   UNL     1      -6.924  12.443  20.065  0.00  0.00    +0.000 C 
ENDBRANCH  30  33
ENDBRANCH  29  31
BRANCH  29  34
ATOM     34  O   UNL     1      -6.501  12.793  24.445  0.00  0.00    +0.000 OA
ATOM     35  H   UNL     1      -7.150  12.371  23.857  0.00  0.00    +0.000 HD
ENDBRANCH  29  34
ENDBRANCH  26  29
ENDBRANCH   1  26
TORSDOF 10
ENDMDL
MODEL 8
REMARK VINA RESULT:      -6.7     10.933     13.947
REMARK  Name = 
REMARK  14 active torsions:
REMARK  status: ('A' for Active; 'I' for Inactive)
REMARK    1  A    between atoms: C_1  and  C_2
REMARK    2  A    between atoms: C_2  and  C_3
REMARK    3  A    between atoms: C_4  and  C_5
REMARK    4  A    between atoms: C_5  and  O_6
REMARK    5  A    between atoms: C_5  and  C_7
REMARK    6  A    between atoms: C_7  and  O_8
REMARK    7  A    between atoms: C_7  and  C_9
REMARK    8  A    between atoms: C_10  and  C_11
REMARK    9  A    between atoms: N_18  and  C_19
REMARK   10  A    between atoms: C_20  and  O_21
REMARK   11  A    between atoms: C_20  and  C_23
REMARK   12  A    between atoms: O_21  and  C_22
REMARK   13  A    between atoms: C_23  and  C_25
REMARK   14  A    between atoms: C_31  and  O_32
REMARK                            x       y       z     vdW  Elec       q    Type
REMARK                         _______ _______ _______ _____ _____    ______ ____
ROOT
ATOM      1  C   UNL     1      -5.779  12.273  20.275  0.00  0.00    +0.000 C 
ATOM      2  C   UNL     1      -6.614  13.219  20.707  0.00  0.00    +0.000 C 
ATOM      3  C   UNL     1      -7.914  13.750  20.251  0.00  0.00    +0.000 C 
ATOM      4  C   UNL     1      -5.847  13.830  21.786  0.00  0.00    +0.000 C 
ATOM      5  O   UNL     1      -6.284  14.733  22.484  0.00  0.00    +0.000 OA
ATOM      6  C   UNL     1      -4.442  13.321  21.765  0.00  0.00    +0.000 C 
ATOM      7  O   UNL     1      -4.564  12.134  20.965  0.00  0.00    +0.000 OA
ATOM      8  C   UNL     1      -3.892  13.131  23.166  0.00  0.00    +0.000 C 
ATOM      9  O   UNL     1      -4.223  12.242  23.939  0.00  0.00    +0.000 OA
ATOM     10  N   UNL     1      -3.016  14.167  23.444  0.00  0.00    +0.000 N 
ATOM     11  C   UNL     1      -2.333  14.317  24.718  0.00  0.00    +0.000 C 
ATOM     12  C   UNL     1      -2.597  14.883  22.244  0.00  0.00    +0.000 C 
ATOM     13  C   UNL     1      -3.495  14.338  21.091  0.00  0.00    +0.000 C 
ENDROOT
BRANCH  12  14
ATOM     14  O   UNL     1      -2.646  16.282  22.484  0.00  0.00    +0.000 OA
ATOM     15  C   UNL     1      -3.743  16.804  23.221  0.00  0.00    +0.000 C 
ENDBRANCH  12  14
BRANCH  12  16
ATOM     16  C   UNL     1      -1.154  14.377  21.863  0.00  0.00    +0.000 C 
ATOM     17  O   UNL     1      -0.145  15.008  22.203  0.00  0.00    +0.000 OA
BRANCH  16  18
ATOM     18  C   UNL     1      -0.929  13.041  21.219  0.00  0.00    +0.000 A 
ATOM     19  C   UNL     1      -0.751  11.846  21.920  0.00  0.00    +0.000 A 
ATOM     20  C   UNL     1      -0.571  10.641  21.227  0.00  0.00    +0.000 A 
ATOM     21  C   UNL     1      -0.552  10.621  19.833  0.00  0.00    +0.000 A 
ATOM     22  C   UNL     1      -0.701  11.809  19.124  0.00  0.00    +0.000 A 
ATOM     23  C   UNL     1      -0.889  13.008  19.810  0.00  0.00    +0.000 A 
ENDBRANCH  16  18
ENDBRANCH  12  16
BRANCH  13  24
ATOM     24  O   UNL     1      -4.109  15.345  20.270  0.00  0.00    +0.000 OA
ATOM     25  H   UNL     1      -3.694  15.373  19.390  0.00  0.00    +0.000 HD
ENDBRANCH  13  24
BRANCH   1  26
ATOM     26  C   UNL     1      -5.978  11.385  19.080  0.00  0.00    +0.000 C 
BRANCH  26  27
ATOM     27  O   UNL     1      -7.332  10.906  19.147  0.00  0.00    +0.000 OA
ATOM     28  H   UNL     1      -7.887  11.565  18.689  0.00  0.00    +0.000 HD
ENDBRANCH  26  27
BRANCH  26  29
ATOM     29  C   UNL     1      -5.686  12.051  17.705  0.00  0.00    +0.000 C 
BRANCH  29  31
ATOM     30  C   UNL     1      -3.579  10.661  17.321  0.00  0.00    +0.000 C 
ATOM     31  C   UNL     1      -4.675  11.297  16.874  0.00  0.00    +0.000 C 
BRANCH  30  33
ATOM     32  C   UNL     1      -2.997   9.971  14.976  0.00  0.00    +0.000 C 
ATOM     33  C   UNL     1      -2.576   9.975  16.439  0.00  0.00    +0.000 C 
ENDBRANCH  30  33
ENDBRANCH  29  31
BRANCH  29  34
ATOM     34  O   UNL     1      -6.930  12.169  17.003  0.00  0.00    +0.000 OA
ATOM     35  H   UNL     1      -7.098  13.119  16.878  0.00  0.00    +0.000 HD
ENDBRANCH  29  34
ENDBRANCH  26  29
ENDBRANCH   1  26
TORSDOF 10
ENDMDL
MODEL 9
REMARK VINA RESULT:      -6.7      9.335     12.047
REMARK  Name = 
REMARK  14 active torsions:
REMARK  status: ('A' for Active; 'I' for Inactive)
REMARK    1  A    between atoms: C_1  and  C_2
REMARK    2  A    between atoms: C_2  and  C_3
REMARK    3  A    between atoms: C_4  and  C_5
REMARK    4  A    between atoms: C_5  and  O_6
REMARK    5  A    between atoms: C_5  and  C_7
REMARK    6  A    between atoms: C_7  and  O_8
REMARK    7  A    between atoms: C_7  and  C_9
REMARK    8  A    between atoms: C_10  and  C_11
REMARK    9  A    between atoms: N_18  and  C_19
REMARK   10  A    between atoms: C_20  and  O_21
REMARK   11  A    between atoms: C_20  and  C_23
REMARK   12  A    between atoms: O_21  and  C_22
REMARK   13  A    between atoms: C_23  and  C_25
REMARK   14  A    between atoms: C_31  and  O_32
REMARK                            x       y       z     vdW  Elec       q    Type
REMARK                         _______ _______ _______ _____ _____    ______ ____
ROOT
ATOM      1  C   UNL     1       3.537  14.858  18.659  0.00  0.00    +0.000 C 
ATOM      2  C   UNL     1       3.750  16.058  18.120  0.00  0.00    +0.000 C 
ATOM      3  C   UNL     1       3.170  16.812  16.991  0.00  0.00    +0.000 C 
ATOM      4  C   UNL     1       4.925  16.515  18.853  0.00  0.00    +0.000 C 
ATOM      5  O   UNL     1       5.427  17.617  18.684  0.00  0.00    +0.000 OA
ATOM      6  C   UNL     1       5.489  15.394  19.663  0.00  0.00    +0.000 C 
ATOM      7  O   UNL     1       4.390  14.470  19.705  0.00  0.00    +0.000 OA
ATOM      8  C   UNL     1       6.012  15.874  21.003  0.00  0.00    +0.000 C 
ATOM      9  O   UNL     1       5.317  16.229  21.945  0.00  0.00    +0.000 OA
ATOM     10  N   UNL     1       7.396  15.913  20.952  0.00  0.00    +0.000 N 
ATOM     11  C   UNL     1       8.225  16.364  22.057  0.00  0.00    +0.000 C 
ATOM     12  C   UNL     1       7.936  15.153  19.829  0.00  0.00    +0.000 C 
ATOM     13  C   UNL     1       6.707  14.760  18.955  0.00  0.00    +0.000 C 
ENDROOT
BRANCH  12  14
ATOM     14  O   UNL     1       8.957  15.908  19.193  0.00  0.00    +0.000 OA
ATOM     15  C   UNL     1       8.684  17.260  18.847  0.00  0.00    +0.000 C 
ENDBRANCH  12  14
BRANCH  12  16
ATOM     16  C   UNL     1       8.454  13.774  20.388  0.00  0.00    +0.000 C 
ATOM     17  O   UNL     1       7.836  13.171  21.275  0.00  0.00    +0.000 OA
BRANCH  16  18
ATOM     18  C   UNL     1       9.617  13.056  19.769  0.00  0.00    +0.000 A 
ATOM     19  C   UNL     1      10.873  12.924  20.367  0.00  0.00    +0.000 A 
ATOM     20  C   UNL     1      11.892  12.214  19.719  0.00  0.00    +0.000 A 
ATOM     21  C   UNL     1      11.672  11.644  18.466  0.00  0.00    +0.000 A 
ATOM     22  C   UNL     1      10.434  11.791  17.849  0.00  0.00    +0.000 A 
ATOM     23  C   UNL     1       9.416  12.491  18.494  0.00  0.00    +0.000 A 
ENDBRANCH  16  18
ENDBRANCH  12  16
BRANCH  13  24
ATOM     24  O   UNL     1       6.848  15.028  17.550  0.00  0.00    +0.000 OA
ATOM     25  H   UNL     1       7.461  15.770  17.401  0.00  0.00    +0.000 HD
ENDBRANCH  13  24
BRANCH   1  26
ATOM     26  C   UNL     1       2.517  13.848  18.215  0.00  0.00    +0.000 C 
BRANCH  26  27
ATOM     27  O   UNL     1       3.248  12.675  17.821  0.00  0.00    +0.000 OA
ATOM     28  H   UNL     1       3.377  12.735  16.856  0.00  0.00    +0.000 HD
ENDBRANCH  26  27
BRANCH  26  29
ATOM     29  C   UNL     1       1.426  13.503  19.268  0.00  0.00    +0.000 C 
BRANCH  29  31
ATOM     30  C   UNL     1       0.105  11.353  18.887  0.00  0.00    +0.000 C 
ATOM     31  C   UNL     1       0.295  12.671  18.713  0.00  0.00    +0.000 C 
BRANCH  30  33
ATOM     32  C   UNL     1      -2.365  11.231  18.447  0.00  0.00    +0.000 C 
ATOM     33  C   UNL     1      -1.009  10.565  18.261  0.00  0.00    +0.000 C 
ENDBRANCH  30  33
ENDBRANCH  29  31
BRANCH  29  34
ATOM     34  O   UNL     1       2.068  12.823  20.356  0.00  0.00    +0.000 OA
ATOM     35  H   UNL     1       1.570  12.003  20.513  0.00  0.00    +0.000 HD
ENDBRANCH  29  34
ENDBRANCH  26  29
ENDBRANCH   1  26
TORSDOF 10
ENDMDL
