MODEL 1
REMARK VINA RESULT:      -8.1      0.000      0.000
REMARK  Name = 
REMARK  9 active torsions:
REMARK  status: ('A' for Active; 'I' for Inactive)
REMARK    1  A    between atoms: C_1  and  C_2
REMARK    2  A    between atoms: C_2  and  C_3
REMARK    3  A    between atoms: C_2  and  C_29
REMARK    4  A    between atoms: C_3  and  N_4
REMARK    5  A    between atoms: N_7  and  C_8
REMARK    6  A    between atoms: C_8  and  C_9
REMARK    7  A    between atoms: C_9  and  C_12
REMARK    8  A    between atoms: C_12  and  C_13
REMARK    9  A    between atoms: C_19  and  N_20
REMARK                            x       y       z     vdW  Elec       q    Type
REMARK                         _______ _______ _______ _____ _____    ______ ____
ROOT
ATOM      1  C   UNL     1       1.963   8.406  18.588  0.00  0.00    +0.000 C 
ATOM      2  F   UNL     1       1.218   7.644  17.741  0.00  0.00    +0.000 F 
ATOM      3  F   UNL     1       3.144   8.672  17.956  0.00  0.00    +0.000 F 
ENDROOT
BRANCH   1   4
ATOM      4  C   UNL     1       1.198   9.740  18.853  0.00  0.00    +0.000 C 
BRANCH   4   8
ATOM      5  N   UNL     1      -1.014  12.365  20.532  0.00  0.00    +0.000 NA
ATOM      6  C   UNL     1      -0.026  11.584  21.322  0.00  0.00    +0.000 C 
ATOM      7  C   UNL     1       0.055  10.048  21.049  0.00  0.00    +0.000 C 
ATOM      8  N   UNL     1      -0.068   9.612  19.638  0.00  0.00    +0.000 NA
ATOM      9  C   UNL     1      -1.194  10.362  19.045  0.00  0.00    +0.000 C 
ATOM     10  C   UNL     1      -0.979  11.883  19.139  0.00  0.00    +0.000 C 
BRANCH   5  11
ATOM     11  C   UNL     1      -2.382  12.346  21.126  0.00  0.00    +0.000 C 
BRANCH  11  13
ATOM     12  C   UNL     1      -3.912  14.424  21.158  0.00  0.00    +0.000 C 
ATOM     13  C   UNL     1      -3.414  13.219  20.342  0.00  0.00    +0.000 C 
BRANCH  13  14
ATOM     14  C   UNL     1      -4.665  12.527  19.811  0.00  0.00    +0.000 A 
ATOM     15  C   UNL     1      -5.753  12.349  20.687  0.00  0.00    +0.000 A 
ATOM     16  C   UNL     1      -6.749  11.417  20.406  0.00  0.00    +0.000 A 
ATOM     17  C   UNL     1      -6.680  10.664  19.237  0.00  0.00    +0.000 A 
ATOM     18  C   UNL     1      -5.653  10.891  18.321  0.00  0.00    +0.000 A 
ATOM     19  C   UNL     1      -4.657  11.831  18.596  0.00  0.00    +0.000 A 
ENDBRANCH  13  14
ENDBRANCH  11  13
ENDBRANCH   5  11
ENDBRANCH   4   8
ENDBRANCH   1   4
BRANCH   1  20
ATOM     20  C   UNL     1       2.324   7.591  19.833  0.00  0.00    +0.000 C 
BRANCH  20  21
ATOM     21  C   UNL     1       2.241   6.106  19.541  0.00  0.00    +0.000 A 
ATOM     22  C   UNL     1       1.290   5.253  20.062  0.00  0.00    +0.000 A 
ATOM     23  N   UNL     1       1.428   4.031  19.472  0.00  0.00    +0.000 N 
ATOM     24  C   UNL     1       2.464   4.056  18.568  0.00  0.00    +0.000 A 
ATOM     25  C   UNL     1       2.925   3.049  17.716  0.00  0.00    +0.000 A 
ATOM     26  C   UNL     1       3.995   3.343  16.866  0.00  0.00    +0.000 A 
ATOM     27  C   UNL     1       4.589   4.609  16.865  0.00  0.00    +0.000 A 
ATOM     28  C   UNL     1       4.104   5.610  17.734  0.00  0.00    +0.000 A 
ATOM     29  C   UNL     1       3.017   5.338  18.601  0.00  0.00    +0.000 A 
ATOM     30  H   UNL     1       0.829   3.234  19.634  0.00  0.00    +0.000 HD
BRANCH  27  31
ATOM     31  N   UNL     1       5.666   4.881  15.971  0.00  0.00    +0.000 N 
ATOM     32  C   UNL     1       5.734   4.642  14.621  0.00  0.00    +0.000 A 
ATOM     33  N   UNL     1       6.892   5.030  14.138  0.00  0.00    +0.000 NA
ATOM     34  N   UNL     1       7.624   5.538  15.178  0.00  0.00    +0.000 NA
ATOM     35  C   UNL     1       6.887   5.443  16.261  0.00  0.00    +0.000 A 
ENDBRANCH  27  31
ENDBRANCH  20  21
ENDBRANCH   1  20
TORSDOF 8
ENDMDL
MODEL 2
REMARK VINA RESULT:      -8.1      2.013      3.225
REMARK  Name = 
REMARK  9 active torsions:
REMARK  status: ('A' for Active; 'I' for Inactive)
REMARK    1  A    between atoms: C_1  and  C_2
REMARK    2  A    between atoms: C_2  and  C_3
REMARK    3  A    between atoms: C_2  and  C_29
REMARK    4  A    between atoms: C_3  and  N_4
REMARK    5  A    between atoms: N_7  and  C_8
REMARK    6  A    between atoms: C_8  and  C_9
REMARK    7  A    between atoms: C_9  and  C_12
REMARK    8  A    between atoms: C_12  and  C_13
REMARK    9  A    between atoms: C_19  and  N_20
REMARK                            x       y       z     vdW  Elec       q    Type
REMARK                         _______ _______ _______ _____ _____    ______ ____
ROOT
ATOM      1  C   UNL     1       2.107   8.283  18.509  0.00  0.00    +0.000 C 
ATOM      2  F   UNL     1       1.378   7.497  17.668  0.00  0.00    +0.000 F 
ATOM      3  F   UNL     1       3.327   8.473  17.926  0.00  0.00    +0.000 F 
ENDROOT
BRANCH   1   4
ATOM      4  C   UNL     1       1.377   9.654  18.657  0.00  0.00    +0.000 C 
BRANCH   4   8
ATOM      5  N   UNL     1      -0.603  12.604  20.065  0.00  0.00    +0.000 NA
ATOM      6  C   UNL     1       0.637  12.131  20.733  0.00  0.00    +0.000 C 
ATOM      7  C   UNL     1       0.816  10.589  20.902  0.00  0.00    +0.000 C 
ATOM      8  N   UNL     1       0.381   9.737  19.770  0.00  0.00    +0.000 NA
ATOM      9  C   UNL     1      -0.937  10.237  19.328  0.00  0.00    +0.000 C 
ATOM     10  C   UNL     1      -0.878  11.719  18.917  0.00  0.00    +0.000 C 
BRANCH   5  11
ATOM     11  C   UNL     1      -1.759  12.729  20.998  0.00  0.00    +0.000 C 
BRANCH  11  13
ATOM     12  C   UNL     1      -1.843  11.441  23.233  0.00  0.00    +0.000 C 
ATOM     13  C   UNL     1      -1.350  12.704  22.506  0.00  0.00    +0.000 C 
BRANCH  13  14
ATOM     14  C   UNL     1      -1.780  13.882  23.374  0.00  0.00    +0.000 A 
ATOM     15  C   UNL     1      -0.835  14.888  23.650  0.00  0.00    +0.000 A 
ATOM     16  C   UNL     1      -1.023  15.770  24.713  0.00  0.00    +0.000 A 
ATOM     17  C   UNL     1      -2.166  15.667  25.501  0.00  0.00    +0.000 A 
ATOM     18  C   UNL     1      -3.149  14.730  25.186  0.00  0.00    +0.000 A 
ATOM     19  C   UNL     1      -2.967  13.850  24.116  0.00  0.00    +0.000 A 
ENDBRANCH  13  14
ENDBRANCH  11  13
ENDBRANCH   5  11
ENDBRANCH   4   8
ENDBRANCH   1   4
BRANCH   1  20
ATOM     20  C   UNL     1       2.374   7.531  19.815  0.00  0.00    +0.000 C 
BRANCH  20  21
ATOM     21  C   UNL     1       2.335   6.033  19.586  0.00  0.00    +0.000 A 
ATOM     22  C   UNL     1       1.428   5.171  20.165  0.00  0.00    +0.000 A 
ATOM     23  N   UNL     1       1.593   3.930  19.622  0.00  0.00    +0.000 N 
ATOM     24  C   UNL     1       2.605   3.952  18.691  0.00  0.00    +0.000 A 
ATOM     25  C   UNL     1       3.079   2.928  17.868  0.00  0.00    +0.000 A 
ATOM     26  C   UNL     1       4.118   3.222  16.979  0.00  0.00    +0.000 A 
ATOM     27  C   UNL     1       4.667   4.505  16.912  0.00  0.00    +0.000 A 
ATOM     28  C   UNL     1       4.170   5.525  17.753  0.00  0.00    +0.000 A 
ATOM     29  C   UNL     1       3.114   5.253  18.658  0.00  0.00    +0.000 A 
ATOM     30  H   UNL     1       1.026   3.121  19.830  0.00  0.00    +0.000 HD
BRANCH  27  31
ATOM     31  N   UNL     1       5.712   4.776  15.981  0.00  0.00    +0.000 N 
ATOM     32  C   UNL     1       5.744   4.507  14.635  0.00  0.00    +0.000 A 
ATOM     33  N   UNL     1       6.881   4.905  14.108  0.00  0.00    +0.000 NA
ATOM     34  N   UNL     1       7.633   5.450  15.114  0.00  0.00    +0.000 NA
ATOM     35  C   UNL     1       6.930   5.366  16.221  0.00  0.00    +0.000 A 
ENDBRANCH  27  31
ENDBRANCH  20  21
ENDBRANCH   1  20
TORSDOF 8
ENDMDL
MODEL 3
REMARK VINA RESULT:      -8.0      2.652      9.976
REMARK  Name = 
REMARK  9 active torsions:
REMARK  status: ('A' for Active; 'I' for Inactive)
REMARK    1  A    between atoms: C_1  and  C_2
REMARK    2  A    between atoms: C_2  and  C_3
REMARK    3  A    between atoms: C_2  and  C_29
REMARK    4  A    between atoms: C_3  and  N_4
REMARK    5  A    between atoms: N_7  and  C_8
REMARK    6  A    between atoms: C_8  and  C_9
REMARK    7  A    between atoms: C_9  and  C_12
REMARK    8  A    between atoms: C_12  and  C_13
REMARK    9  A    between atoms: C_19  and  N_20
REMARK                            x       y       z     vdW  Elec       q    Type
REMARK                         _______ _______ _______ _____ _____    ______ ____
ROOT
ATOM      1  C   UNL     1       1.392   7.660  20.780  0.00  0.00    +0.000 C 
ATOM      2  F   UNL     1       2.372   7.940  21.683  0.00  0.00    +0.000 F 
ATOM      3  F   UNL     1       1.728   8.286  19.614  0.00  0.00    +0.000 F 
ENDROOT
BRANCH   1   4
ATOM      4  C   UNL     1       1.355   6.117  20.555  0.00  0.00    +0.000 C 
BRANCH   4   8
ATOM      5  N   UNL     1       2.954   4.235  17.640  0.00  0.00    +0.000 NA
ATOM      6  C   UNL     1       2.307   3.499  18.756  0.00  0.00    +0.000 C 
ATOM      7  C   UNL     1       2.611   3.989  20.208  0.00  0.00    +0.000 C 
ATOM      8  N   UNL     1       2.689   5.454  20.417  0.00  0.00    +0.000 NA
ATOM      9  C   UNL     1       3.499   6.011  19.314  0.00  0.00    +0.000 C 
ATOM     10  C   UNL     1       2.896   5.678  17.938  0.00  0.00    +0.000 C 
BRANCH   5  11
ATOM     11  C   UNL     1       4.334   3.753  17.345  0.00  0.00    +0.000 C 
BRANCH  11  13
ATOM     12  C   UNL     1       5.649   4.003  15.138  0.00  0.00    +0.000 C 
ATOM     13  C   UNL     1       5.143   4.708  16.409  0.00  0.00    +0.000 C 
BRANCH  13  14
ATOM     14  C   UNL     1       6.352   5.421  17.003  0.00  0.00    +0.000 A 
ATOM     15  C   UNL     1       7.010   4.824  18.096  0.00  0.00    +0.000 A 
ATOM     16  C   UNL     1       7.854   5.572  18.914  0.00  0.00    +0.000 A 
ATOM     17  C   UNL     1       8.066   6.920  18.639  0.00  0.00    +0.000 A 
ATOM     18  C   UNL     1       7.488   7.501  17.511  0.00  0.00    +0.000 A 
ATOM     19  C   UNL     1       6.647   6.752  16.684  0.00  0.00    +0.000 A 
ENDBRANCH  13  14
ENDBRANCH  11  13
ENDBRANCH   5  11
ENDBRANCH   4   8
ENDBRANCH   1   4
BRANCH   1  20
ATOM     20  C   UNL     1       0.075   8.295  21.237  0.00  0.00    +0.000 C 
BRANCH  20  21
ATOM     21  C   UNL     1       0.089   9.790  20.989  0.00  0.00    +0.000 A 
ATOM     22  C   UNL     1       0.833  10.701  21.708  0.00  0.00    +0.000 A 
ATOM     23  N   UNL     1       0.716  11.926  21.119  0.00  0.00    +0.000 N 
ATOM     24  C   UNL     1      -0.104  11.845  20.018  0.00  0.00    +0.000 A 
ATOM     25  C   UNL     1      -0.462  12.836  19.102  0.00  0.00    +0.000 A 
ATOM     26  C   UNL     1      -1.303  12.482  18.042  0.00  0.00    +0.000 A 
ATOM     27  C   UNL     1      -1.773  11.174  17.900  0.00  0.00    +0.000 A 
ATOM     28  C   UNL     1      -1.395  10.188  18.838  0.00  0.00    +0.000 A 
ATOM     29  C   UNL     1      -0.539  10.521  19.917  0.00  0.00    +0.000 A 
ATOM     30  H   UNL     1       1.198  12.763  21.413  0.00  0.00    +0.000 HD
BRANCH  27  31
ATOM     31  N   UNL     1      -2.613  10.843  16.797  0.00  0.00    +0.000 N 
ATOM     32  C   UNL     1      -2.350   9.997  15.749  0.00  0.00    +0.000 A 
ATOM     33  N   UNL     1      -3.372   9.945  14.925  0.00  0.00    +0.000 NA
ATOM     34  N   UNL     1      -4.344  10.772  15.421  0.00  0.00    +0.000 NA
ATOM     35  C   UNL     1      -3.882  11.300  16.531  0.00  0.00    +0.000 A 
ENDBRANCH  27  31
ENDBRANCH  20  21
ENDBRANCH   1  20
TORSDOF 8
ENDMDL
MODEL 4
REMARK VINA RESULT:      -7.8      2.571     10.050
REMARK  Name = 
REMARK  9 active torsions:
REMARK  status: ('A' for Active; 'I' for Inactive)
REMARK    1  A    between atoms: C_1  and  C_2
REMARK    2  A    between atoms: C_2  and  C_3
REMARK    3  A    between atoms: C_2  and  C_29
REMARK    4  A    between atoms: C_3  and  N_4
REMARK    5  A    between atoms: N_7  and  C_8
REMARK    6  A    between atoms: C_8  and  C_9
REMARK    7  A    between atoms: C_9  and  C_12
REMARK    8  A    between atoms: C_12  and  C_13
REMARK    9  A    between atoms: C_19  and  N_20
REMARK                            x       y       z     vdW  Elec       q    Type
REMARK                         _______ _______ _______ _____ _____    ______ ____
ROOT
ATOM      1  C   UNL     1       0.935   7.959  21.136  0.00  0.00    +0.000 C 
ATOM      2  F   UNL     1      -0.337   7.977  21.622  0.00  0.00    +0.000 F 
ATOM      3  F   UNL     1       1.776   7.966  22.211  0.00  0.00    +0.000 F 
ENDROOT
BRANCH   1   4
ATOM      4  C   UNL     1       1.133   6.642  20.323  0.00  0.00    +0.000 C 
BRANCH   4   8
ATOM      5  N   UNL     1       2.961   4.251  17.969  0.00  0.00    +0.000 NA
ATOM      6  C   UNL     1       2.299   3.748  19.201  0.00  0.00    +0.000 C 
ATOM      7  C   UNL     1       2.510   4.570  20.513  0.00  0.00    +0.000 C 
ATOM      8  N   UNL     1       2.504   6.046  20.385  0.00  0.00    +0.000 NA
ATOM      9  C   UNL     1       3.335   6.388  19.213  0.00  0.00    +0.000 C 
ATOM     10  C   UNL     1       2.815   5.718  17.929  0.00  0.00    +0.000 C 
BRANCH   5  11
ATOM     11  C   UNL     1       4.376   3.799  17.839  0.00  0.00    +0.000 C 
BRANCH  11  13
ATOM     12  C   UNL     1       5.700   3.690  15.626  0.00  0.00    +0.000 C 
ATOM     13  C   UNL     1       5.188   4.590  16.764  0.00  0.00    +0.000 C 
BRANCH  13  14
ATOM     14  C   UNL     1       6.395   5.391  17.240  0.00  0.00    +0.000 A 
ATOM     15  C   UNL     1       7.097   4.933  18.371  0.00  0.00    +0.000 A 
ATOM     16  C   UNL     1       7.945   5.785  19.077  0.00  0.00    +0.000 A 
ATOM     17  C   UNL     1       8.116   7.098  18.649  0.00  0.00    +0.000 A 
ATOM     18  C   UNL     1       7.493   7.538  17.481  0.00  0.00    +0.000 A 
ATOM     19  C   UNL     1       6.649   6.684  16.768  0.00  0.00    +0.000 A 
ENDBRANCH  13  14
ENDBRANCH  11  13
ENDBRANCH   5  11
ENDBRANCH   4   8
ENDBRANCH   1   4
BRANCH   1  20
ATOM     20  C   UNL     1       1.214   9.256  20.373  0.00  0.00    +0.000 C 
BRANCH  20  21
ATOM     21  C   UNL     1       0.143  10.289  20.666  0.00  0.00    +0.000 A 
ATOM     22  C   UNL     1       0.104  11.084  21.792  0.00  0.00    +0.000 A 
ATOM     23  N   UNL     1      -0.906  11.991  21.653  0.00  0.00    +0.000 N 
ATOM     24  C   UNL     1      -1.545  11.806  20.450  0.00  0.00    +0.000 A 
ATOM     25  C   UNL     1      -2.596  12.530  19.882  0.00  0.00    +0.000 A 
ATOM     26  C   UNL     1      -3.054  12.146  18.618  0.00  0.00    +0.000 A 
ATOM     27  C   UNL     1      -2.478  11.069  17.939  0.00  0.00    +0.000 A 
ATOM     28  C   UNL     1      -1.416  10.353  18.533  0.00  0.00    +0.000 A 
ATOM     29  C   UNL     1      -0.930  10.727  19.811  0.00  0.00    +0.000 A 
ATOM     30  H   UNL     1      -1.125  12.726  22.311  0.00  0.00    +0.000 HD
BRANCH  27  31
ATOM     31  N   UNL     1      -2.956  10.716  16.643  0.00  0.00    +0.000 N 
ATOM     32  C   UNL     1      -2.381   9.877  15.722  0.00  0.00    +0.000 A 
ATOM     33  N   UNL     1      -3.120   9.797  14.639  0.00  0.00    +0.000 NA
ATOM     34  N   UNL     1      -4.214  10.599  14.826  0.00  0.00    +0.000 NA
ATOM     35  C   UNL     1      -4.106  11.140  16.019  0.00  0.00    +0.000 A 
ENDBRANCH  27  31
ENDBRANCH  20  21
ENDBRANCH   1  20
TORSDOF 8
ENDMDL
MODEL 5
REMARK VINA RESULT:      -7.8      0.891      1.390
REMARK  Name = 
REMARK  9 active torsions:
REMARK  status: ('A' for Active; 'I' for Inactive)
REMARK    1  A    between atoms: C_1  and  C_2
REMARK    2  A    between atoms: C_2  and  C_3
REMARK    3  A    between atoms: C_2  and  C_29
REMARK    4  A    between atoms: C_3  and  N_4
REMARK    5  A    between atoms: N_7  and  C_8
REMARK    6  A    between atoms: C_8  and  C_9
REMARK    7  A    between atoms: C_9  and  C_12
REMARK    8  A    between atoms: C_12  and  C_13
REMARK    9  A    between atoms: C_19  and  N_20
REMARK                            x       y       z     vdW  Elec       q    Type
REMARK                         _______ _______ _______ _____ _____    ______ ____
ROOT
ATOM      1  C   UNL     1       2.058   8.133  18.514  0.00  0.00    +0.000 C 
ATOM      2  F   UNL     1       1.572   7.205  17.644  0.00  0.00    +0.000 F 
ATOM      3  F   UNL     1       3.321   8.448  18.103  0.00  0.00    +0.000 F 
ENDROOT
BRANCH   1   4
ATOM      4  C   UNL     1       1.150   9.400  18.441  0.00  0.00    +0.000 C 
BRANCH   4   8
ATOM      5  N   UNL     1      -1.262  12.220  19.350  0.00  0.00    +0.000 NA
ATOM      6  C   UNL     1       0.193  12.481  19.205  0.00  0.00    +0.000 C 
ATOM      7  C   UNL     1       1.173  11.453  19.858  0.00  0.00    +0.000 C 
ATOM      8  N   UNL     1       0.804  10.022  19.757  0.00  0.00    +0.000 NA
ATOM      9  C   UNL     1      -0.631   9.915  20.086  0.00  0.00    +0.000 C 
ATOM     10  C   UNL     1      -1.498  10.778  19.151  0.00  0.00    +0.000 C 
BRANCH   5  11
ATOM     11  C   UNL     1      -1.825  12.736  20.631  0.00  0.00    +0.000 C 
BRANCH  11  13
ATOM     12  C   UNL     1      -3.169  14.859  21.216  0.00  0.00    +0.000 C 
ATOM     13  C   UNL     1      -3.163  13.523  20.454  0.00  0.00    +0.000 C 
BRANCH  13  14
ATOM     14  C   UNL     1      -4.456  12.813  20.841  0.00  0.00    +0.000 A 
ATOM     15  C   UNL     1      -5.236  12.241  19.818  0.00  0.00    +0.000 A 
ATOM     16  C   UNL     1      -6.575  11.924  20.036  0.00  0.00    +0.000 A 
ATOM     17  C   UNL     1      -7.145  12.157  21.285  0.00  0.00    +0.000 A 
ATOM     18  C   UNL     1      -6.361  12.644  22.330  0.00  0.00    +0.000 A 
ATOM     19  C   UNL     1      -5.016  12.955  22.116  0.00  0.00    +0.000 A 
ENDBRANCH  13  14
ENDBRANCH  11  13
ENDBRANCH   5  11
ENDBRANCH   4   8
ENDBRANCH   1   4
BRANCH   1  20
ATOM     20  C   UNL     1       2.209   7.506  19.903  0.00  0.00    +0.000 C 
BRANCH  20  21
ATOM     21  C   UNL     1       2.206   5.993  19.809  0.00  0.00    +0.000 A 
ATOM     22  C   UNL     1       1.306   5.167  20.449  0.00  0.00    +0.000 A 
ATOM     23  N   UNL     1       1.507   3.886  20.023  0.00  0.00    +0.000 N 
ATOM     24  C   UNL     1       2.535   3.847  19.110  0.00  0.00    +0.000 A 
ATOM     25  C   UNL     1       3.044   2.763  18.391  0.00  0.00    +0.000 A 
ATOM     26  C   UNL     1       4.092   3.000  17.496  0.00  0.00    +0.000 A 
ATOM     27  C   UNL     1       4.616   4.284  17.321  0.00  0.00    +0.000 A 
ATOM     28  C   UNL     1       4.083   5.364  18.059  0.00  0.00    +0.000 A 
ATOM     29  C   UNL     1       3.017   5.150  18.968  0.00  0.00    +0.000 A 
ATOM     30  H   UNL     1       0.954   3.087  20.295  0.00  0.00    +0.000 HD
BRANCH  27  31
ATOM     31  N   UNL     1       5.671   4.493  16.386  0.00  0.00    +0.000 N 
ATOM     32  C   UNL     1       5.582   4.686  15.030  0.00  0.00    +0.000 A 
ATOM     33  N   UNL     1       6.775   4.846  14.503  0.00  0.00    +0.000 NA
ATOM     34  N   UNL     1       7.689   4.757  15.518  0.00  0.00    +0.000 NA
ATOM     35  C   UNL     1       7.023   4.546  16.631  0.00  0.00    +0.000 A 
ENDBRANCH  27  31
ENDBRANCH  20  21
ENDBRANCH   1  20
TORSDOF 8
ENDMDL
MODEL 6
REMARK VINA RESULT:      -7.7      1.618      2.368
REMARK  Name = 
REMARK  9 active torsions:
REMARK  status: ('A' for Active; 'I' for Inactive)
REMARK    1  A    between atoms: C_1  and  C_2
REMARK    2  A    between atoms: C_2  and  C_3
REMARK    3  A    between atoms: C_2  and  C_29
REMARK    4  A    between atoms: C_3  and  N_4
REMARK    5  A    between atoms: N_7  and  C_8
REMARK    6  A    between atoms: C_8  and  C_9
REMARK    7  A    between atoms: C_9  and  C_12
REMARK    8  A    between atoms: C_12  and  C_13
REMARK    9  A    between atoms: C_19  and  N_20
REMARK                            x       y       z     vdW  Elec       q    Type
REMARK                         _______ _______ _______ _____ _____    ______ ____
ROOT
ATOM      1  C   UNL     1       1.588   8.739  18.632  0.00  0.00    +0.000 C 
ATOM      2  F   UNL     1       1.327   7.781  17.699  0.00  0.00    +0.000 F 
ATOM      3  F   UNL     1       2.501   9.594  18.085  0.00  0.00    +0.000 F 
ENDROOT
BRANCH   1   4
ATOM      4  C   UNL     1       0.264   9.507  18.933  0.00  0.00    +0.000 C 
BRANCH   4   8
ATOM      5  N   UNL     1      -1.753  12.149  20.818  0.00  0.00    +0.000 NA
ATOM      6  C   UNL     1      -2.033  11.854  19.389  0.00  0.00    +0.000 C 
ATOM      7  C   UNL     1      -0.805  11.706  18.435  0.00  0.00    +0.000 C 
ATOM      8  N   UNL     1       0.380  10.998  18.975  0.00  0.00    +0.000 NA
ATOM      9  C   UNL     1       0.619  11.521  20.335  0.00  0.00    +0.000 C 
ATOM     10  C   UNL     1      -0.606  11.326  21.246  0.00  0.00    +0.000 C 
BRANCH   5  11
ATOM     11  C   UNL     1      -1.565  13.603  21.089  0.00  0.00    +0.000 C 
BRANCH  11  13
ATOM     12  C   UNL     1      -1.260  14.037  23.615  0.00  0.00    +0.000 C 
ATOM     13  C   UNL     1      -2.229  14.081  22.421  0.00  0.00    +0.000 C 
BRANCH  13  14
ATOM     14  C   UNL     1      -3.492  13.359  22.879  0.00  0.00    +0.000 A 
ATOM     15  C   UNL     1      -4.703  13.650  22.222  0.00  0.00    +0.000 A 
ATOM     16  C   UNL     1      -5.926  13.336  22.811  0.00  0.00    +0.000 A 
ATOM     17  C   UNL     1      -5.953  12.710  24.055  0.00  0.00    +0.000 A 
ATOM     18  C   UNL     1      -4.760  12.341  24.676  0.00  0.00    +0.000 A 
ATOM     19  C   UNL     1      -3.532  12.648  24.084  0.00  0.00    +0.000 A 
ENDBRANCH  13  14
ENDBRANCH  11  13
ENDBRANCH   5  11
ENDBRANCH   4   8
ENDBRANCH   1   4
BRANCH   1  20
ATOM     20  C   UNL     1       2.277   8.104  19.843  0.00  0.00    +0.000 C 
BRANCH  20  21
ATOM     21  C   UNL     1       2.252   6.592  19.739  0.00  0.00    +0.000 A 
ATOM     22  C   UNL     1       1.357   5.772  20.394  0.00  0.00    +0.000 A 
ATOM     23  N   UNL     1       1.533   4.492  19.955  0.00  0.00    +0.000 N 
ATOM     24  C   UNL     1       2.539   4.447  19.019  0.00  0.00    +0.000 A 
ATOM     25  C   UNL     1       3.019   3.362  18.282  0.00  0.00    +0.000 A 
ATOM     26  C   UNL     1       4.050   3.592  17.365  0.00  0.00    +0.000 A 
ATOM     27  C   UNL     1       4.585   4.870  17.188  0.00  0.00    +0.000 A 
ATOM     28  C   UNL     1       4.082   5.952  17.944  0.00  0.00    +0.000 A 
ATOM     29  C   UNL     1       3.034   5.745  18.875  0.00  0.00    +0.000 A 
ATOM     30  H   UNL     1       0.975   3.698  20.234  0.00  0.00    +0.000 HD
BRANCH  27  31
ATOM     31  N   UNL     1       5.622   5.073  16.231  0.00  0.00    +0.000 N 
ATOM     32  C   UNL     1       5.550   4.976  14.863  0.00  0.00    +0.000 A 
ATOM     33  N   UNL     1       6.716   5.236  14.316  0.00  0.00    +0.000 NA
ATOM     34  N   UNL     1       7.595   5.510  15.330  0.00  0.00    +0.000 NA
ATOM     35  C   UNL     1       6.935   5.409  16.461  0.00  0.00    +0.000 A 
ENDBRANCH  27  31
ENDBRANCH  20  21
ENDBRANCH   1  20
TORSDOF 8
ENDMDL
MODEL 7
REMARK VINA RESULT:      -7.7      2.686      9.934
REMARK  Name = 
REMARK  9 active torsions:
REMARK  status: ('A' for Active; 'I' for Inactive)
REMARK    1  A    between atoms: C_1  and  C_2
REMARK    2  A    between atoms: C_2  and  C_3
REMARK    3  A    between atoms: C_2  and  C_29
REMARK    4  A    between atoms: C_3  and  N_4
REMARK    5  A    between atoms: N_7  and  C_8
REMARK    6  A    between atoms: C_8  and  C_9
REMARK    7  A    between atoms: C_9  and  C_12
REMARK    8  A    between atoms: C_12  and  C_13
REMARK    9  A    between atoms: C_19  and  N_20
REMARK                            x       y       z     vdW  Elec       q    Type
REMARK                         _______ _______ _______ _____ _____    ______ ____
ROOT
ATOM      1  C   UNL     1       1.181   7.644  20.951  0.00  0.00    +0.000 C 
ATOM      2  F   UNL     1       2.118   7.809  21.925  0.00  0.00    +0.000 F 
ATOM      3  F   UNL     1       1.650   8.269  19.831  0.00  0.00    +0.000 F 
ENDROOT
BRANCH   1   4
ATOM      4  C   UNL     1       1.024   6.117  20.672  0.00  0.00    +0.000 C 
BRANCH   4   8
ATOM      5  N   UNL     1       2.631   4.282  17.731  0.00  0.00    +0.000 NA
ATOM      6  C   UNL     1       1.855   3.540  18.758  0.00  0.00    +0.000 C 
ATOM      7  C   UNL     1       2.110   3.910  20.254  0.00  0.00    +0.000 C 
ATOM      8  N   UNL     1       2.301   5.346  20.564  0.00  0.00    +0.000 NA
ATOM      9  C   UNL     1       3.223   5.895  19.548  0.00  0.00    +0.000 C 
ATOM     10  C   UNL     1       2.679   5.703  18.121  0.00  0.00    +0.000 C 
BRANCH   5  11
ATOM     11  C   UNL     1       3.980   3.696  17.482  0.00  0.00    +0.000 C 
BRANCH  11  13
ATOM     12  C   UNL     1       5.827   3.877  15.689  0.00  0.00    +0.000 C 
ATOM     13  C   UNL     1       4.932   4.641  16.681  0.00  0.00    +0.000 C 
BRANCH  13  14
ATOM     14  C   UNL     1       5.867   5.544  17.479  0.00  0.00    +0.000 A 
ATOM     15  C   UNL     1       6.139   6.832  16.979  0.00  0.00    +0.000 A 
ATOM     16  C   UNL     1       7.244   7.551  17.429  0.00  0.00    +0.000 A 
ATOM     17  C   UNL     1       8.080   7.000  18.396  0.00  0.00    +0.000 A 
ATOM     18  C   UNL     1       7.773   5.762  18.959  0.00  0.00    +0.000 A 
ATOM     19  C   UNL     1       6.661   5.042  18.516  0.00  0.00    +0.000 A 
ENDBRANCH  13  14
ENDBRANCH  11  13
ENDBRANCH   5  11
ENDBRANCH   4   8
ENDBRANCH   1   4
BRANCH   1  20
ATOM     20  C   UNL     1      -0.103   8.382  21.340  0.00  0.00    +0.000 C 
BRANCH  20  21
ATOM     21  C   UNL     1       0.024   9.864  21.049  0.00  0.00    +0.000 A 
ATOM     22  C   UNL     1       0.856  10.731  21.725  0.00  0.00    +0.000 A 
ATOM     23  N   UNL     1       0.822  11.945  21.103  0.00  0.00    +0.000 N 
ATOM     24  C   UNL     1      -0.028  11.900  20.023  0.00  0.00    +0.000 A 
ATOM     25  C   UNL     1      -0.328  12.892  19.087  0.00  0.00    +0.000 A 
ATOM     26  C   UNL     1      -1.220  12.579  18.057  0.00  0.00    +0.000 A 
ATOM     27  C   UNL     1      -1.795  11.309  17.963  0.00  0.00    +0.000 A 
ATOM     28  C   UNL     1      -1.475  10.322  18.921  0.00  0.00    +0.000 A 
ATOM     29  C   UNL     1      -0.569  10.614  19.971  0.00  0.00    +0.000 A 
ATOM     30  H   UNL     1       1.376  12.749  21.362  0.00  0.00    +0.000 HD
BRANCH  27  31
ATOM     31  N   UNL     1      -2.686  11.017  16.889  0.00  0.00    +0.000 N 
ATOM     32  C   UNL     1      -4.006  11.372  16.756  0.00  0.00    +0.000 A 
ATOM     33  N   UNL     1      -4.497  10.921  15.624  0.00  0.00    +0.000 NA
ATOM     34  N   UNL     1      -3.496  10.245  14.980  0.00  0.00    +0.000 NA
ATOM     35  C   UNL     1      -2.426  10.307  15.740  0.00  0.00    +0.000 A 
ENDBRANCH  27  31
ENDBRANCH  20  21
ENDBRANCH   1  20
TORSDOF 8
ENDMDL
MODEL 8
REMARK VINA RESULT:      -7.7      2.602     10.680
REMARK  Name = 
REMARK  9 active torsions:
REMARK  status: ('A' for Active; 'I' for Inactive)
REMARK    1  A    between atoms: C_1  and  C_2
REMARK    2  A    between atoms: C_2  and  C_3
REMARK    3  A    between atoms: C_2  and  C_29
REMARK    4  A    between atoms: C_3  and  N_4
REMARK    5  A    between atoms: N_7  and  C_8
REMARK    6  A    between atoms: C_8  and  C_9
REMARK    7  A    between atoms: C_9  and  C_12
REMARK    8  A    between atoms: C_12  and  C_13
REMARK    9  A    between atoms: C_19  and  N_20
REMARK                            x       y       z     vdW  Elec       q    Type
REMARK                         _______ _______ _______ _____ _____    ______ ____
ROOT
ATOM      1  C   UNL     1       0.700   8.545  21.333  0.00  0.00    +0.000 C 
ATOM      2  F   UNL     1      -0.562   8.800  21.778  0.00  0.00    +0.000 F 
ATOM      3  F   UNL     1       1.502   8.444  22.434  0.00  0.00    +0.000 F 
ENDROOT
BRANCH   1   4
ATOM      4  C   UNL     1       0.686   7.186  20.568  0.00  0.00    +0.000 C 
BRANCH   4   8
ATOM      5  N   UNL     1       2.300   4.762  18.092  0.00  0.00    +0.000 NA
ATOM      6  C   UNL     1       1.498   4.259  19.237  0.00  0.00    +0.000 C 
ATOM      7  C   UNL     1       1.741   4.925  20.630  0.00  0.00    +0.000 C 
ATOM      8  N   UNL     1       1.952   6.391  20.641  0.00  0.00    +0.000 NA
ATOM      9  C   UNL     1       2.896   6.707  19.549  0.00  0.00    +0.000 C 
ATOM     10  C   UNL     1       2.367   6.233  18.183  0.00  0.00    +0.000 C 
BRANCH   5  11
ATOM     11  C   UNL     1       3.642   4.120  17.991  0.00  0.00    +0.000 C 
BRANCH  11  13
ATOM     12  C   UNL     1       5.385   3.983  16.093  0.00  0.00    +0.000 C 
ATOM     13  C   UNL     1       4.641   4.901  17.078  0.00  0.00    +0.000 C 
BRANCH  13  14
ATOM     14  C   UNL     1       5.714   5.740  17.762  0.00  0.00    +0.000 A 
ATOM     15  C   UNL     1       6.136   6.927  17.132  0.00  0.00    +0.000 A 
ATOM     16  C   UNL     1       7.343   7.529  17.483  0.00  0.00    +0.000 A 
ATOM     17  C   UNL     1       8.132   6.964  18.480  0.00  0.00    +0.000 A 
ATOM     18  C   UNL     1       7.684   5.837  19.170  0.00  0.00    +0.000 A 
ATOM     19  C   UNL     1       6.472   5.236  18.825  0.00  0.00    +0.000 A 
ENDBRANCH  13  14
ENDBRANCH  11  13
ENDBRANCH   5  11
ENDBRANCH   4   8
ENDBRANCH   1   4
BRANCH   1  20
ATOM     20  C   UNL     1       1.220   9.747  20.540  0.00  0.00    +0.000 C 
BRANCH  20  21
ATOM     21  C   UNL     1       0.155  10.262  19.593  0.00  0.00    +0.000 A 
ATOM     22  C   UNL     1       0.033   9.894  18.270  0.00  0.00    +0.000 A 
ATOM     23  N   UNL     1      -1.115  10.434  17.768  0.00  0.00    +0.000 N 
ATOM     24  C   UNL     1      -1.758  11.165  18.740  0.00  0.00    +0.000 A 
ATOM     25  C   UNL     1      -2.976  11.845  18.679  0.00  0.00    +0.000 A 
ATOM     26  C   UNL     1      -3.423  12.500  19.832  0.00  0.00    +0.000 A 
ATOM     27  C   UNL     1      -2.676  12.474  21.012  0.00  0.00    +0.000 A 
ATOM     28  C   UNL     1      -1.448  11.777  21.049  0.00  0.00    +0.000 A 
ATOM     29  C   UNL     1      -0.976  11.102  19.896  0.00  0.00    +0.000 A 
ATOM     30  H   UNL     1      -1.473  10.283  16.836  0.00  0.00    +0.000 HD
BRANCH  27  31
ATOM     31  N   UNL     1      -3.170  13.136  22.174  0.00  0.00    +0.000 N 
ATOM     32  C   UNL     1      -2.482  13.920  23.065  0.00  0.00    +0.000 A 
ATOM     33  N   UNL     1      -3.280  14.359  24.012  0.00  0.00    +0.000 NA
ATOM     34  N   UNL     1      -4.530  13.860  23.761  0.00  0.00    +0.000 NA
ATOM     35  C   UNL     1      -4.453  13.135  22.669  0.00  0.00    +0.000 A 
ENDBRANCH  27  31
ENDBRANCH  20  21
ENDBRANCH   1  20
TORSDOF 8
ENDMDL
MODEL 9
REMARK VINA RESULT:      -7.6      2.877      4.181
REMARK  Name = 
REMARK  9 active torsions:
REMARK  status: ('A' for Active; 'I' for Inactive)
REMARK    1  A    between atoms: C_1  and  C_2
REMARK    2  A    between atoms: C_2  and  C_3
REMARK    3  A    between atoms: C_2  and  C_29
REMARK    4  A    between atoms: C_3  and  N_4
REMARK    5  A    between atoms: N_7  and  C_8
REMARK    6  A    between atoms: C_8  and  C_9
REMARK    7  A    between atoms: C_9  and  C_12
REMARK    8  A    between atoms: C_12  and  C_13
REMARK    9  A    between atoms: C_19  and  N_20
REMARK                            x       y       z     vdW  Elec       q    Type
REMARK                         _______ _______ _______ _____ _____    ______ ____
ROOT
ATOM      1  C   UNL     1       1.782   8.426  18.919  0.00  0.00    +0.000 C 
ATOM      2  F   UNL     1       1.228   7.636  17.958  0.00  0.00    +0.000 F 
ATOM      3  F   UNL     1       2.977   8.872  18.433  0.00  0.00    +0.000 F 
ENDROOT
BRANCH   1   4
ATOM      4  C   UNL     1       0.832   9.637  19.169  0.00  0.00    +0.000 C 
BRANCH   4   8
ATOM      5  N   UNL     1      -0.522  13.188  19.575  0.00  0.00    +0.000 NA
ATOM      6  C   UNL     1       0.178  12.778  18.330  0.00  0.00    +0.000 C 
ATOM      7  C   UNL     1       1.491  11.946  18.488  0.00  0.00    +0.000 C 
ATOM      8  N   UNL     1       1.506  10.916  19.554  0.00  0.00    +0.000 NA
ATOM      9  C   UNL     1       0.927  11.532  20.765  0.00  0.00    +0.000 C 
ATOM     10  C   UNL     1      -0.501  12.052  20.515  0.00  0.00    +0.000 C 
BRANCH   5  11
ATOM     11  C   UNL     1       0.019  14.446  20.163  0.00  0.00    +0.000 C 
BRANCH  11  13
ATOM     12  C   UNL     1       2.431  15.350  19.999  0.00  0.00    +0.000 C 
ATOM     13  C   UNL     1       1.094  15.143  19.268  0.00  0.00    +0.000 C 
BRANCH  13  14
ATOM     14  C   UNL     1       0.736  16.493  18.657  0.00  0.00    +0.000 A 
ATOM     15  C   UNL     1      -0.618  16.881  18.641  0.00  0.00    +0.000 A 
ATOM     16  C   UNL     1      -1.059  17.889  17.785  0.00  0.00    +0.000 A 
ATOM     17  C   UNL     1      -0.151  18.533  16.950  0.00  0.00    +0.000 A 
ATOM     18  C   UNL     1       1.205  18.217  17.019  0.00  0.00    +0.000 A 
ATOM     19  C   UNL     1       1.652  17.212  17.881  0.00  0.00    +0.000 A 
ENDBRANCH  13  14
ENDBRANCH  11  13
ENDBRANCH   5  11
ENDBRANCH   4   8
ENDBRANCH   1   4
BRANCH   1  20
ATOM     20  C   UNL     1       2.116   7.580  20.151  0.00  0.00    +0.000 C 
BRANCH  20  21
ATOM     21  C   UNL     1       2.042   6.103  19.820  0.00  0.00    +0.000 A 
ATOM     22  C   UNL     1       1.037   5.253  20.231  0.00  0.00    +0.000 A 
ATOM     23  N   UNL     1       1.214   4.041  19.630  0.00  0.00    +0.000 N 
ATOM     24  C   UNL     1       2.330   4.070  18.827  0.00  0.00    +0.000 A 
ATOM     25  C   UNL     1       2.855   3.075  18.000  0.00  0.00    +0.000 A 
ATOM     26  C   UNL     1       4.004   3.371  17.259  0.00  0.00    +0.000 A 
ATOM     27  C   UNL     1       4.610   4.627  17.341  0.00  0.00    +0.000 A 
ATOM     28  C   UNL     1       4.060   5.618  18.184  0.00  0.00    +0.000 A 
ATOM     29  C   UNL     1       2.893   5.343  18.940  0.00  0.00    +0.000 A 
ATOM     30  H   UNL     1       0.593   3.249  19.718  0.00  0.00    +0.000 HD
BRANCH  27  31
ATOM     31  N   UNL     1       5.769   4.902  16.557  0.00  0.00    +0.000 N 
ATOM     32  C   UNL     1       6.609   5.986  16.630  0.00  0.00    +0.000 A 
ATOM     33  N   UNL     1       7.574   5.887  15.743  0.00  0.00    +0.000 NA
ATOM     34  N   UNL     1       7.383   4.719  15.055  0.00  0.00    +0.000 NA
ATOM     35  C   UNL     1       6.309   4.144  15.545  0.00  0.00    +0.000 A 
ENDBRANCH  27  31
ENDBRANCH  20  21
ENDBRANCH   1  20
TORSDOF 8
ENDMDL
