MODEL 1
REMARK VINA RESULT:      -5.7      0.000      0.000
REMARK  Name = 
REMARK  10 active torsions:
REMARK  status: ('A' for Active; 'I' for Inactive)
REMARK    1  A    between atoms: C_1  and  O_2
REMARK    2  A    between atoms: O_2  and  C_3
REMARK    3  A    between atoms: C_3  and  C_4
REMARK    4  A    between atoms: C_4  and  N_5
REMARK    5  A    between atoms: N_5  and  C_6
REMARK    6  A    between atoms: C_6  and  C_7
REMARK    7  A    between atoms: C_7  and  O_8
REMARK    8  A    between atoms: O_8  and  C_9
REMARK    9  A    between atoms: C_11  and  C_12
REMARK   10  A    between atoms: C_15  and  C_16
REMARK                            x       y       z     vdW  Elec       q    Type
REMARK                         _______ _______ _______ _____ _____    ______ ____
ROOT
ATOM      1  O   UNL     1       3.932   4.980  17.009  0.00  0.00    +0.000 OA
ENDROOT
BRANCH   1   2
ATOM      2  C   UNL     1       3.220   5.143  18.173  0.00  0.00    +0.000 A 
ATOM      3  C   UNL     1       2.791   4.074  18.973  0.00  0.00    +0.000 A 
ATOM      4  C   UNL     1       2.087   4.297  20.162  0.00  0.00    +0.000 A 
ATOM      5  C   UNL     1       1.637   3.145  21.011  0.00  0.00    +0.000 C 
ATOM      6  C   UNL     1       1.819   5.610  20.554  0.00  0.00    +0.000 A 
ATOM      7  C   UNL     1       2.252   6.682  19.767  0.00  0.00    +0.000 A 
ATOM      8  C   UNL     1       2.958   6.461  18.575  0.00  0.00    +0.000 A 
ATOM      9  C   UNL     1       3.397   7.627  17.736  0.00  0.00    +0.000 C 
ENDBRANCH   1   2
BRANCH   1  10
ATOM     10  C   UNL     1       4.959   3.985  17.078  0.00  0.00    +0.000 C 
BRANCH  10  11
ATOM     11  C   UNL     1       5.897   4.125  15.872  0.00  0.00    +0.000 C 
BRANCH  11  12
ATOM     12  N   UNL     1       7.212   4.693  16.212  0.00  0.00    +0.000 NA
ATOM     13  H   UNL     1       7.935   4.127  15.765  0.00  0.00    +0.000 HD
BRANCH  12  14
ATOM     14  C   UNL     1       7.448   4.713  17.660  0.00  0.00    +0.000 C 
BRANCH  14  15
ATOM     15  C   UNL     1       7.484   6.142  18.214  0.00  0.00    +0.000 C 
BRANCH  15  17
ATOM     16  C   UNL     1       7.749   8.387  17.548  0.00  0.00    +0.000 C 
ATOM     17  O   UNL     1       7.564   7.048  17.111  0.00  0.00    +0.000 OA
ENDBRANCH  15  17
ENDBRANCH  14  15
ENDBRANCH  12  14
ENDBRANCH  11  12
ENDBRANCH  10  11
ENDBRANCH   1  10
TORSDOF 7
ENDMDL
MODEL 2
REMARK VINA RESULT:      -5.7      2.789      5.562
REMARK  Name = 
REMARK  10 active torsions:
REMARK  status: ('A' for Active; 'I' for Inactive)
REMARK    1  A    between atoms: C_1  and  O_2
REMARK    2  A    between atoms: O_2  and  C_3
REMARK    3  A    between atoms: C_3  and  C_4
REMARK    4  A    between atoms: C_4  and  N_5
REMARK    5  A    between atoms: N_5  and  C_6
REMARK    6  A    between atoms: C_6  and  C_7
REMARK    7  A    between atoms: C_7  and  O_8
REMARK    8  A    between atoms: O_8  and  C_9
REMARK    9  A    between atoms: C_11  and  C_12
REMARK   10  A    between atoms: C_15  and  C_16
REMARK                            x       y       z     vdW  Elec       q    Type
REMARK                         _______ _______ _______ _____ _____    ______ ____
ROOT
ATOM      1  O   UNL     1       3.887   3.979  18.346  0.00  0.00    +0.000 OA
ENDROOT
BRANCH   1   2
ATOM      2  C   UNL     1       4.455   4.599  17.258  0.00  0.00    +0.000 A 
ATOM      3  C   UNL     1       5.101   3.907  16.224  0.00  0.00    +0.000 A 
ATOM      4  C   UNL     1       5.643   4.587  15.127  0.00  0.00    +0.000 A 
ATOM      5  C   UNL     1       6.328   3.835  14.024  0.00  0.00    +0.000 C 
ATOM      6  C   UNL     1       5.528   5.977  15.068  0.00  0.00    +0.000 A 
ATOM      7  C   UNL     1       4.876   6.674  16.090  0.00  0.00    +0.000 A 
ATOM      8  C   UNL     1       4.332   5.995  17.191  0.00  0.00    +0.000 A 
ATOM      9  C   UNL     1       3.654   6.765  18.286  0.00  0.00    +0.000 C 
ENDBRANCH   1   2
BRANCH   1  10
ATOM     10  C   UNL     1       3.743   2.561  18.210  0.00  0.00    +0.000 C 
BRANCH  10  11
ATOM     11  C   UNL     1       2.295   2.222  17.832  0.00  0.00    +0.000 C 
BRANCH  11  12
ATOM     12  N   UNL     1       1.495   1.718  18.961  0.00  0.00    +0.000 NA
ATOM     13  H   UNL     1       0.751   1.125  18.590  0.00  0.00    +0.000 HD
BRANCH  12  14
ATOM     14  C   UNL     1       0.895   2.806  19.741  0.00  0.00    +0.000 C 
BRANCH  14  15
ATOM     15  C   UNL     1       1.331   2.764  21.210  0.00  0.00    +0.000 C 
BRANCH  15  17
ATOM     16  C   UNL     1       1.844   5.040  20.880  0.00  0.00    +0.000 C 
ATOM     17  O   UNL     1       2.287   3.805  21.423  0.00  0.00    +0.000 OA
ENDBRANCH  15  17
ENDBRANCH  14  15
ENDBRANCH  12  14
ENDBRANCH  11  12
ENDBRANCH  10  11
ENDBRANCH   1  10
TORSDOF 7
ENDMDL
MODEL 3
REMARK VINA RESULT:      -5.5      1.538      2.997
REMARK  Name = 
REMARK  10 active torsions:
REMARK  status: ('A' for Active; 'I' for Inactive)
REMARK    1  A    between atoms: C_1  and  O_2
REMARK    2  A    between atoms: O_2  and  C_3
REMARK    3  A    between atoms: C_3  and  C_4
REMARK    4  A    between atoms: C_4  and  N_5
REMARK    5  A    between atoms: N_5  and  C_6
REMARK    6  A    between atoms: C_6  and  C_7
REMARK    7  A    between atoms: C_7  and  O_8
REMARK    8  A    between atoms: O_8  and  C_9
REMARK    9  A    between atoms: C_11  and  C_12
REMARK   10  A    between atoms: C_15  and  C_16
REMARK                            x       y       z     vdW  Elec       q    Type
REMARK                         _______ _______ _______ _____ _____    ______ ____
ROOT
ATOM      1  O   UNL     1       2.543   3.519  18.545  0.00  0.00    +0.000 OA
ENDROOT
BRANCH   1   2
ATOM      2  C   UNL     1       2.369   4.816  18.968  0.00  0.00    +0.000 A 
ATOM      3  C   UNL     1       2.590   5.932  18.149  0.00  0.00    +0.000 A 
ATOM      4  C   UNL     1       2.376   7.232  18.624  0.00  0.00    +0.000 A 
ATOM      5  C   UNL     1       2.612   8.418  17.737  0.00  0.00    +0.000 C 
ATOM      6  C   UNL     1       1.930   7.408  19.935  0.00  0.00    +0.000 A 
ATOM      7  C   UNL     1       1.697   6.299  20.755  0.00  0.00    +0.000 A 
ATOM      8  C   UNL     1       1.910   4.996  20.282  0.00  0.00    +0.000 A 
ATOM      9  C   UNL     1       1.673   3.821  21.186  0.00  0.00    +0.000 C 
ENDBRANCH   1   2
BRANCH   1  10
ATOM     10  C   UNL     1       3.865   3.220  18.084  0.00  0.00    +0.000 C 
BRANCH  10  11
ATOM     11  C   UNL     1       4.893   3.671  19.129  0.00  0.00    +0.000 C 
BRANCH  11  12
ATOM     12  N   UNL     1       6.238   3.894  18.573  0.00  0.00    +0.000 NA
ATOM     13  H   UNL     1       6.805   4.367  19.279  0.00  0.00    +0.000 HD
BRANCH  12  14
ATOM     14  C   UNL     1       6.204   4.717  17.358  0.00  0.00    +0.000 C 
BRANCH  14  15
ATOM     15  C   UNL     1       6.355   6.209  17.674  0.00  0.00    +0.000 C 
BRANCH  15  17
ATOM     16  C   UNL     1       5.196   6.537  15.648  0.00  0.00    +0.000 C 
ATOM     17  O   UNL     1       6.305   6.935  16.443  0.00  0.00    +0.000 OA
ENDBRANCH  15  17
ENDBRANCH  14  15
ENDBRANCH  12  14
ENDBRANCH  11  12
ENDBRANCH  10  11
ENDBRANCH   1  10
TORSDOF 7
ENDMDL
MODEL 4
REMARK VINA RESULT:      -5.5      2.825      5.357
REMARK  Name = 
REMARK  10 active torsions:
REMARK  status: ('A' for Active; 'I' for Inactive)
REMARK    1  A    between atoms: C_1  and  O_2
REMARK    2  A    between atoms: O_2  and  C_3
REMARK    3  A    between atoms: C_3  and  C_4
REMARK    4  A    between atoms: C_4  and  N_5
REMARK    5  A    between atoms: N_5  and  C_6
REMARK    6  A    between atoms: C_6  and  C_7
REMARK    7  A    between atoms: C_7  and  O_8
REMARK    8  A    between atoms: O_8  and  C_9
REMARK    9  A    between atoms: C_11  and  C_12
REMARK   10  A    between atoms: C_15  and  C_16
REMARK                            x       y       z     vdW  Elec       q    Type
REMARK                         _______ _______ _______ _____ _____    ______ ____
ROOT
ATOM      1  O   UNL     1       4.036   3.239  17.758  0.00  0.00    +0.000 OA
ENDROOT
BRANCH   1   2
ATOM      2  C   UNL     1       4.122   4.567  17.414  0.00  0.00    +0.000 A 
ATOM      3  C   UNL     1       3.317   5.566  17.979  0.00  0.00    +0.000 A 
ATOM      4  C   UNL     1       3.461   6.908  17.608  0.00  0.00    +0.000 A 
ATOM      5  C   UNL     1       2.596   7.968  18.224  0.00  0.00    +0.000 C 
ATOM      6  C   UNL     1       4.431   7.249  16.664  0.00  0.00    +0.000 A 
ATOM      7  C   UNL     1       5.245   6.260  16.102  0.00  0.00    +0.000 A 
ATOM      8  C   UNL     1       5.103   4.914  16.472  0.00  0.00    +0.000 A 
ATOM      9  C   UNL     1       5.975   3.867  15.842  0.00  0.00    +0.000 C 
ENDBRANCH   1   2
BRANCH   1  10
ATOM     10  C   UNL     1       2.800   2.614  17.399  0.00  0.00    +0.000 C 
BRANCH  10  11
ATOM     11  C   UNL     1       2.180   1.945  18.632  0.00  0.00    +0.000 C 
BRANCH  11  12
ATOM     12  N   UNL     1       0.820   2.421  18.939  0.00  0.00    +0.000 NA
ATOM     13  H   UNL     1       0.464   2.927  18.126  0.00  0.00    +0.000 HD
BRANCH  12  14
ATOM     14  C   UNL     1       0.798   3.313  20.104  0.00  0.00    +0.000 C 
BRANCH  14  15
ATOM     15  C   UNL     1       1.319   2.617  21.366  0.00  0.00    +0.000 C 
BRANCH  15  17
ATOM     16  C   UNL     1       2.414   4.702  21.286  0.00  0.00    +0.000 C 
ATOM     17  O   UNL     1       2.220   3.507  22.029  0.00  0.00    +0.000 OA
ENDBRANCH  15  17
ENDBRANCH  14  15
ENDBRANCH  12  14
ENDBRANCH  11  12
ENDBRANCH  10  11
ENDBRANCH   1  10
TORSDOF 7
ENDMDL
MODEL 5
REMARK VINA RESULT:      -5.5      1.968      3.215
REMARK  Name = 
REMARK  10 active torsions:
REMARK  status: ('A' for Active; 'I' for Inactive)
REMARK    1  A    between atoms: C_1  and  O_2
REMARK    2  A    between atoms: O_2  and  C_3
REMARK    3  A    between atoms: C_3  and  C_4
REMARK    4  A    between atoms: C_4  and  N_5
REMARK    5  A    between atoms: N_5  and  C_6
REMARK    6  A    between atoms: C_6  and  C_7
REMARK    7  A    between atoms: C_7  and  O_8
REMARK    8  A    between atoms: O_8  and  C_9
REMARK    9  A    between atoms: C_11  and  C_12
REMARK   10  A    between atoms: C_15  and  C_16
REMARK                            x       y       z     vdW  Elec       q    Type
REMARK                         _______ _______ _______ _____ _____    ______ ____
ROOT
ATOM      1  O   UNL     1       5.170   5.954  19.133  0.00  0.00    +0.000 OA
ENDROOT
BRANCH   1   2
ATOM      2  C   UNL     1       4.209   5.070  18.701  0.00  0.00    +0.000 A 
ATOM      3  C   UNL     1       4.361   3.678  18.750  0.00  0.00    +0.000 A 
ATOM      4  C   UNL     1       3.341   2.822  18.318  0.00  0.00    +0.000 A 
ATOM      5  C   UNL     1       3.515   1.333  18.378  0.00  0.00    +0.000 C 
ATOM      6  C   UNL     1       2.153   3.375  17.838  0.00  0.00    +0.000 A 
ATOM      7  C   UNL     1       1.988   4.763  17.796  0.00  0.00    +0.000 A 
ATOM      8  C   UNL     1       3.009   5.623  18.228  0.00  0.00    +0.000 A 
ATOM      9  C   UNL     1       2.818   7.110  18.156  0.00  0.00    +0.000 C 
ENDBRANCH   1   2
BRANCH   1  10
ATOM     10  C   UNL     1       6.442   5.801  18.495  0.00  0.00    +0.000 C 
BRANCH  10  11
ATOM     11  C   UNL     1       6.560   6.792  17.330  0.00  0.00    +0.000 C 
BRANCH  11  12
ATOM     12  N   UNL     1       6.856   6.148  16.039  0.00  0.00    +0.000 NA
ATOM     13  H   UNL     1       7.245   6.852  15.409  0.00  0.00    +0.000 HD
BRANCH  12  14
ATOM     14  C   UNL     1       5.658   5.565  15.424  0.00  0.00    +0.000 C 
BRANCH  14  15
ATOM     15  C   UNL     1       5.776   4.045  15.272  0.00  0.00    +0.000 C 
BRANCH  15  17
ATOM     16  C   UNL     1       5.888   3.630  12.955  0.00  0.00    +0.000 C 
ATOM     17  O   UNL     1       6.629   3.771  14.159  0.00  0.00    +0.000 OA
ENDBRANCH  15  17
ENDBRANCH  14  15
ENDBRANCH  12  14
ENDBRANCH  11  12
ENDBRANCH  10  11
ENDBRANCH   1  10
TORSDOF 7
ENDMDL
MODEL 6
REMARK VINA RESULT:      -5.5      1.773      3.216
REMARK  Name = 
REMARK  10 active torsions:
REMARK  status: ('A' for Active; 'I' for Inactive)
REMARK    1  A    between atoms: C_1  and  O_2
REMARK    2  A    between atoms: O_2  and  C_3
REMARK    3  A    between atoms: C_3  and  C_4
REMARK    4  A    between atoms: C_4  and  N_5
REMARK    5  A    between atoms: N_5  and  C_6
REMARK    6  A    between atoms: C_6  and  C_7
REMARK    7  A    between atoms: C_7  and  O_8
REMARK    8  A    between atoms: O_8  and  C_9
REMARK    9  A    between atoms: C_11  and  C_12
REMARK   10  A    between atoms: C_15  and  C_16
REMARK                            x       y       z     vdW  Elec       q    Type
REMARK                         _______ _______ _______ _____ _____    ______ ____
ROOT
ATOM      1  O   UNL     1       2.101   3.435  18.478  0.00  0.00    +0.000 OA
ENDROOT
BRANCH   1   2
ATOM      2  C   UNL     1       2.121   4.728  18.948  0.00  0.00    +0.000 A 
ATOM      3  C   UNL     1       2.387   5.840  18.137  0.00  0.00    +0.000 A 
ATOM      4  C   UNL     1       2.373   7.138  18.662  0.00  0.00    +0.000 A 
ATOM      5  C   UNL     1       2.656   8.321  17.784  0.00  0.00    +0.000 C 
ATOM      6  C   UNL     1       2.081   7.317  20.015  0.00  0.00    +0.000 A 
ATOM      7  C   UNL     1       1.804   6.213  20.828  0.00  0.00    +0.000 A 
ATOM      8  C   UNL     1       1.817   4.912  20.305  0.00  0.00    +0.000 A 
ATOM      9  C   UNL     1       1.536   3.740  21.201  0.00  0.00    +0.000 C 
ENDBRANCH   1   2
BRANCH   1  10
ATOM     10  C   UNL     1       2.760   3.253  17.221  0.00  0.00    +0.000 C 
BRANCH  10  11
ATOM     11  C   UNL     1       4.130   2.599  17.445  0.00  0.00    +0.000 C 
BRANCH  11  12
ATOM     12  N   UNL     1       5.222   3.570  17.627  0.00  0.00    +0.000 NA
ATOM     13  H   UNL     1       4.865   4.360  18.166  0.00  0.00    +0.000 HD
BRANCH  12  14
ATOM     14  C   UNL     1       5.744   4.060  16.346  0.00  0.00    +0.000 C 
BRANCH  14  15
ATOM     15  C   UNL     1       7.159   4.632  16.486  0.00  0.00    +0.000 C 
BRANCH  15  17
ATOM     16  C   UNL     1       6.875   4.909  14.163  0.00  0.00    +0.000 C 
ATOM     17  O   UNL     1       7.421   5.462  15.352  0.00  0.00    +0.000 OA
ENDBRANCH  15  17
ENDBRANCH  14  15
ENDBRANCH  12  14
ENDBRANCH  11  12
ENDBRANCH  10  11
ENDBRANCH   1  10
TORSDOF 7
ENDMDL
MODEL 7
REMARK VINA RESULT:      -5.5      2.040      2.939
REMARK  Name = 
REMARK  10 active torsions:
REMARK  status: ('A' for Active; 'I' for Inactive)
REMARK    1  A    between atoms: C_1  and  O_2
REMARK    2  A    between atoms: O_2  and  C_3
REMARK    3  A    between atoms: C_3  and  C_4
REMARK    4  A    between atoms: C_4  and  N_5
REMARK    5  A    between atoms: N_5  and  C_6
REMARK    6  A    between atoms: C_6  and  C_7
REMARK    7  A    between atoms: C_7  and  O_8
REMARK    8  A    between atoms: O_8  and  C_9
REMARK    9  A    between atoms: C_11  and  C_12
REMARK   10  A    between atoms: C_15  and  C_16
REMARK                            x       y       z     vdW  Elec       q    Type
REMARK                         _______ _______ _______ _____ _____    ______ ____
ROOT
ATOM      1  O   UNL     1       5.260   5.918  19.044  0.00  0.00    +0.000 OA
ENDROOT
BRANCH   1   2
ATOM      2  C   UNL     1       4.259   5.052  18.673  0.00  0.00    +0.000 A 
ATOM      3  C   UNL     1       4.379   3.657  18.742  0.00  0.00    +0.000 A 
ATOM      4  C   UNL     1       3.320   2.820  18.372  0.00  0.00    +0.000 A 
ATOM      5  C   UNL     1       3.459   1.328  18.454  0.00  0.00    +0.000 C 
ATOM      6  C   UNL     1       2.125   3.394  17.933  0.00  0.00    +0.000 A 
ATOM      7  C   UNL     1       1.994   4.785  17.871  0.00  0.00    +0.000 A 
ATOM      8  C   UNL     1       3.054   5.626  18.242  0.00  0.00    +0.000 A 
ATOM      9  C   UNL     1       2.897   7.116  18.148  0.00  0.00    +0.000 C 
ENDBRANCH   1   2
BRANCH   1  10
ATOM     10  C   UNL     1       6.503   5.713  18.364  0.00  0.00    +0.000 C 
BRANCH  10  11
ATOM     11  C   UNL     1       6.650   6.739  17.233  0.00  0.00    +0.000 C 
BRANCH  11  12
ATOM     12  N   UNL     1       5.987   6.334  15.981  0.00  0.00    +0.000 NA
ATOM     13  H   UNL     1       4.988   6.528  16.067  0.00  0.00    +0.000 HD
BRANCH  12  14
ATOM     14  C   UNL     1       6.175   4.907  15.694  0.00  0.00    +0.000 C 
BRANCH  14  15
ATOM     15  C   UNL     1       6.730   4.676  14.284  0.00  0.00    +0.000 C 
BRANCH  15  17
ATOM     16  C   UNL     1       8.239   5.626  12.743  0.00  0.00    +0.000 C 
ATOM     17  O   UNL     1       7.877   5.511  14.112  0.00  0.00    +0.000 OA
ENDBRANCH  15  17
ENDBRANCH  14  15
ENDBRANCH  12  14
ENDBRANCH  11  12
ENDBRANCH  10  11
ENDBRANCH   1  10
TORSDOF 7
ENDMDL
MODEL 8
REMARK VINA RESULT:      -5.4      2.485      4.813
REMARK  Name = 
REMARK  10 active torsions:
REMARK  status: ('A' for Active; 'I' for Inactive)
REMARK    1  A    between atoms: C_1  and  O_2
REMARK    2  A    between atoms: O_2  and  C_3
REMARK    3  A    between atoms: C_3  and  C_4
REMARK    4  A    between atoms: C_4  and  N_5
REMARK    5  A    between atoms: N_5  and  C_6
REMARK    6  A    between atoms: C_6  and  C_7
REMARK    7  A    between atoms: C_7  and  O_8
REMARK    8  A    between atoms: O_8  and  C_9
REMARK    9  A    between atoms: C_11  and  C_12
REMARK   10  A    between atoms: C_15  and  C_16
REMARK                            x       y       z     vdW  Elec       q    Type
REMARK                         _______ _______ _______ _____ _____    ______ ____
ROOT
ATOM      1  O   UNL     1       4.063   3.147  17.056  0.00  0.00    +0.000 OA
ENDROOT
BRANCH   1   2
ATOM      2  C   UNL     1       4.119   4.521  17.061  0.00  0.00    +0.000 A 
ATOM      3  C   UNL     1       3.281   5.326  17.844  0.00  0.00    +0.000 A 
ATOM      4  C   UNL     1       3.395   6.721  17.828  0.00  0.00    +0.000 A 
ATOM      5  C   UNL     1       2.495   7.572  18.675  0.00  0.00    +0.000 C 
ATOM      6  C   UNL     1       4.369   7.311  17.020  0.00  0.00    +0.000 A 
ATOM      7  C   UNL     1       5.216   6.514  16.243  0.00  0.00    +0.000 A 
ATOM      8  C   UNL     1       5.103   5.116  16.257  0.00  0.00    +0.000 A 
ATOM      9  C   UNL     1       6.010   4.282  15.400  0.00  0.00    +0.000 C 
ENDBRANCH   1   2
BRANCH   1  10
ATOM     10  C   UNL     1       2.786   2.607  17.411  0.00  0.00    +0.000 C 
BRANCH  10  11
ATOM     11  C   UNL     1       2.941   1.650  18.600  0.00  0.00    +0.000 C 
BRANCH  11  12
ATOM     12  N   UNL     1       4.246   1.757  19.275  0.00  0.00    +0.000 NA
ATOM     13  H   UNL     1       4.558   0.817  19.525  0.00  0.00    +0.000 HD
BRANCH  12  14
ATOM     14  C   UNL     1       4.173   2.576  20.490  0.00  0.00    +0.000 C 
BRANCH  14  15
ATOM     15  C   UNL     1       2.750   2.636  21.055  0.00  0.00    +0.000 C 
BRANCH  15  17
ATOM     16  C   UNL     1       1.130   4.279  20.576  0.00  0.00    +0.000 C 
ATOM     17  O   UNL     1       2.381   4.010  21.194  0.00  0.00    +0.000 OA
ENDBRANCH  15  17
ENDBRANCH  14  15
ENDBRANCH  12  14
ENDBRANCH  11  12
ENDBRANCH  10  11
ENDBRANCH   1  10
TORSDOF 7
ENDMDL
MODEL 9
REMARK VINA RESULT:      -5.4      2.498      5.577
REMARK  Name = 
REMARK  10 active torsions:
REMARK  status: ('A' for Active; 'I' for Inactive)
REMARK    1  A    between atoms: C_1  and  O_2
REMARK    2  A    between atoms: O_2  and  C_3
REMARK    3  A    between atoms: C_3  and  C_4
REMARK    4  A    between atoms: C_4  and  N_5
REMARK    5  A    between atoms: N_5  and  C_6
REMARK    6  A    between atoms: C_6  and  C_7
REMARK    7  A    between atoms: C_7  and  O_8
REMARK    8  A    between atoms: O_8  and  C_9
REMARK    9  A    between atoms: C_11  and  C_12
REMARK   10  A    between atoms: C_15  and  C_16
REMARK                            x       y       z     vdW  Elec       q    Type
REMARK                         _______ _______ _______ _____ _____    ______ ____
ROOT
ATOM      1  O   UNL     1       2.425   6.029  18.152  0.00  0.00    +0.000 OA
ENDROOT
BRANCH   1   2
ATOM      2  C   UNL     1       3.648   5.612  17.682  0.00  0.00    +0.000 A 
ATOM      3  C   UNL     1       4.800   6.410  17.711  0.00  0.00    +0.000 A 
ATOM      4  C   UNL     1       6.027   5.927  17.239  0.00  0.00    +0.000 A 
ATOM      5  C   UNL     1       7.253   6.790  17.279  0.00  0.00    +0.000 C 
ATOM      6  C   UNL     1       6.095   4.625  16.740  0.00  0.00    +0.000 A 
ATOM      7  C   UNL     1       4.952   3.819  16.718  0.00  0.00    +0.000 A 
ATOM      8  C   UNL     1       3.722   4.300  17.190  0.00  0.00    +0.000 A 
ATOM      9  C   UNL     1       2.504   3.423  17.138  0.00  0.00    +0.000 C 
ENDBRANCH   1   2
BRANCH   1  10
ATOM     10  C   UNL     1       2.494   6.994  19.206  0.00  0.00    +0.000 C 
BRANCH  10  11
ATOM     11  C   UNL     1       1.768   6.458  20.447  0.00  0.00    +0.000 C 
BRANCH  11  12
ATOM     12  N   UNL     1       2.442   5.308  21.072  0.00  0.00    +0.000 NA
ATOM     13  H   UNL     1       3.343   5.171  20.611  0.00  0.00    +0.000 HD
BRANCH  12  14
ATOM     14  C   UNL     1       1.653   4.076  20.954  0.00  0.00    +0.000 C 
BRANCH  14  15
ATOM     15  C   UNL     1       2.442   2.846  21.417  0.00  0.00    +0.000 C 
BRANCH  15  17
ATOM     16  C   UNL     1       4.383   2.304  20.195  0.00  0.00    +0.000 C 
ATOM     17  O   UNL     1       2.969   2.191  20.260  0.00  0.00    +0.000 OA
ENDBRANCH  15  17
ENDBRANCH  14  15
ENDBRANCH  12  14
ENDBRANCH  11  12
ENDBRANCH  10  11
ENDBRANCH   1  10
TORSDOF 7
ENDMDL
