MODEL 1
REMARK VINA RESULT:      -8.5      0.000      0.000
REMARK  Name = 
REMARK  7 active torsions:
REMARK  status: ('A' for Active; 'I' for Inactive)
REMARK    1  A    between atoms: C_1  and  O_2
REMARK    2  A    between atoms: O_2  and  C_3
REMARK    3  A    between atoms: C_8  and  O_9
REMARK    4  A    between atoms: O_9  and  C_10
REMARK    5  A    between atoms: C_11  and  C_12
REMARK    6  A    between atoms: C_14  and  C_16
REMARK    7  A    between atoms: C_16  and  N_17
REMARK                            x       y       z     vdW  Elec       q    Type
REMARK                         _______ _______ _______ _____ _____    ______ ____
ROOT
ATOM      1  C   UNL     1      -1.500  13.072  23.001  0.00  0.00    +0.000 A 
ATOM      2  C   UNL     1      -1.293  11.702  23.236  0.00  0.00    +0.000 A 
ATOM      3  C   UNL     1      -0.674  10.852  22.280  0.00  0.00    +0.000 A 
ATOM      4  C   UNL     1      -0.221  11.376  21.084  0.00  0.00    +0.000 A 
ATOM      5  C   UNL     1      -0.404  12.766  20.852  0.00  0.00    +0.000 A 
ATOM      6  C   UNL     1      -1.044  13.614  21.790  0.00  0.00    +0.000 A 
ATOM      7  C   UNL     1       0.338  10.460  19.961  0.00  0.00    +0.000 C 
ATOM      8  C   UNL     1      -0.753  10.369  18.876  0.00  0.00    +0.000 C 
ATOM      9  N   UNL     1       0.761   9.093  20.428  0.00  0.00    +0.000 N 
ATOM     10  C   UNL     1       1.634   8.320  19.611  0.00  0.00    +0.000 C 
ATOM     11  O   UNL     1       2.138   8.847  18.602  0.00  0.00    +0.000 OA
ATOM     12  C   UNL     1      -0.152   8.483  21.387  0.00  0.00    +0.000 C 
ATOM     13  C   UNL     1      -0.473   9.390  22.591  0.00  0.00    +0.000 C 
ENDROOT
BRANCH   1  15
ATOM     14  C   UNL     1      -1.432  14.880  24.571  0.00  0.00    +0.000 C 
ATOM     15  O   UNL     1      -2.171  13.888  23.872  0.00  0.00    +0.000 OA
ENDBRANCH   1  15
BRANCH   6  16
ATOM     16  O   UNL     1      -1.140  14.920  21.365  0.00  0.00    +0.000 OA
ATOM     17  C   UNL     1      -2.356  15.390  20.780  0.00  0.00    +0.000 C 
ENDBRANCH   6  16
BRANCH  10  18
ATOM     18  C   UNL     1       2.089   6.832  19.982  0.00  0.00    +0.000 C 
BRANCH  18  19
ATOM     19  N   UNL     1       3.307   6.266  19.264  0.00  0.00    +0.000 N 
ATOM     20  N   UNL     1       3.935   5.327  20.013  0.00  0.00    +0.000 NA
ATOM     21  C   UNL     1       3.297   4.242  19.532  0.00  0.00    +0.000 A 
ATOM     22  C   UNL     1       2.694   4.524  18.254  0.00  0.00    +0.000 A 
ATOM     23  C   UNL     1       3.315   5.739  17.889  0.00  0.00    +0.000 A 
ATOM     24  C   UNL     1       4.474   5.384  16.871  0.00  0.00    +0.000 A 
ATOM     25  C   UNL     1       5.060   6.189  15.896  0.00  0.00    +0.000 A 
ATOM     26  C   UNL     1       6.006   5.638  14.972  0.00  0.00    +0.000 A 
ATOM     27  C   UNL     1       6.465   4.314  15.049  0.00  0.00    +0.000 A 
ATOM     28  C   UNL     1       5.848   3.472  15.966  0.00  0.00    +0.000 A 
ATOM     29  C   UNL     1       4.782   3.976  16.711  0.00  0.00    +0.000 A 
ATOM     30  O   UNL     1       3.897   2.946  17.070  0.00  0.00    +0.000 OA
ATOM     31  C   UNL     1       2.573   3.483  17.210  0.00  0.00    +0.000 C 
ENDBRANCH  18  19
ENDBRANCH  10  18
TORSDOF 4
ENDMDL
MODEL 2
REMARK VINA RESULT:      -8.0      2.829      3.577
REMARK  Name = 
REMARK  7 active torsions:
REMARK  status: ('A' for Active; 'I' for Inactive)
REMARK    1  A    between atoms: C_1  and  O_2
REMARK    2  A    between atoms: O_2  and  C_3
REMARK    3  A    between atoms: C_8  and  O_9
REMARK    4  A    between atoms: O_9  and  C_10
REMARK    5  A    between atoms: C_11  and  C_12
REMARK    6  A    between atoms: C_14  and  C_16
REMARK    7  A    between atoms: C_16  and  N_17
REMARK                            x       y       z     vdW  Elec       q    Type
REMARK                         _______ _______ _______ _____ _____    ______ ____
ROOT
ATOM      1  C   UNL     1      -5.320  12.506  19.366  0.00  0.00    +0.000 A 
ATOM      2  C   UNL     1      -4.803  11.487  18.549  0.00  0.00    +0.000 A 
ATOM      3  C   UNL     1      -3.415  11.190  18.489  0.00  0.00    +0.000 A 
ATOM      4  C   UNL     1      -2.526  11.895  19.280  0.00  0.00    +0.000 A 
ATOM      5  C   UNL     1      -3.046  12.909  20.128  0.00  0.00    +0.000 A 
ATOM      6  C   UNL     1      -4.426  13.228  20.172  0.00  0.00    +0.000 A 
ATOM      7  C   UNL     1      -0.991  11.693  19.146  0.00  0.00    +0.000 C 
ATOM      8  C   UNL     1      -0.445  12.922  18.392  0.00  0.00    +0.000 C 
ATOM      9  N   UNL     1      -0.591  10.411  18.466  0.00  0.00    +0.000 N 
ATOM     10  C   UNL     1       0.738   9.925  18.630  0.00  0.00    +0.000 C 
ATOM     11  O   UNL     1       1.490  10.493  19.443  0.00  0.00    +0.000 OA
ATOM     12  C   UNL     1      -1.407  10.073  17.306  0.00  0.00    +0.000 C 
ATOM     13  C   UNL     1      -2.920  10.079  17.598  0.00  0.00    +0.000 C 
ENDROOT
BRANCH   1  15
ATOM     14  C   UNL     1      -7.565  12.021  20.048  0.00  0.00    +0.000 C 
ATOM     15  O   UNL     1      -6.642  12.864  19.372  0.00  0.00    +0.000 OA
ENDBRANCH   1  15
BRANCH   6  16
ATOM     16  O   UNL     1      -4.720  14.254  21.041  0.00  0.00    +0.000 OA
ATOM     17  C   UNL     1      -4.273  14.188  22.396  0.00  0.00    +0.000 C 
ENDBRANCH   6  16
BRANCH  10  18
ATOM     18  C   UNL     1       1.284   8.613  17.898  0.00  0.00    +0.000 C 
BRANCH  18  19
ATOM     19  N   UNL     1       2.609   8.035  18.379  0.00  0.00    +0.000 N 
ATOM     20  N   UNL     1       2.505   7.526  19.631  0.00  0.00    +0.000 NA
ATOM     21  C   UNL     1       2.209   6.255  19.297  0.00  0.00    +0.000 A 
ATOM     22  C   UNL     1       2.600   5.977  17.937  0.00  0.00    +0.000 A 
ATOM     23  C   UNL     1       3.438   7.073  17.633  0.00  0.00    +0.000 A 
ATOM     24  C   UNL     1       4.932   6.577  17.796  0.00  0.00    +0.000 A 
ATOM     25  C   UNL     1       6.090   7.076  17.202  0.00  0.00    +0.000 A 
ATOM     26  C   UNL     1       7.341   6.398  17.365  0.00  0.00    +0.000 A 
ATOM     27  C   UNL     1       7.496   5.274  18.191  0.00  0.00    +0.000 A 
ATOM     28  C   UNL     1       6.348   4.714  18.739  0.00  0.00    +0.000 A 
ATOM     29  C   UNL     1       5.116   5.268  18.394  0.00  0.00    +0.000 A 
ATOM     30  O   UNL     1       4.100   4.300  18.459  0.00  0.00    +0.000 OA
ATOM     31  C   UNL     1       3.062   4.633  17.526  0.00  0.00    +0.000 C 
ENDBRANCH  18  19
ENDBRANCH  10  18
TORSDOF 4
ENDMDL
MODEL 3
REMARK VINA RESULT:      -7.8      1.787     10.629
REMARK  Name = 
REMARK  7 active torsions:
REMARK  status: ('A' for Active; 'I' for Inactive)
REMARK    1  A    between atoms: C_1  and  O_2
REMARK    2  A    between atoms: O_2  and  C_3
REMARK    3  A    between atoms: C_8  and  O_9
REMARK    4  A    between atoms: O_9  and  C_10
REMARK    5  A    between atoms: C_11  and  C_12
REMARK    6  A    between atoms: C_14  and  C_16
REMARK    7  A    between atoms: C_16  and  N_17
REMARK                            x       y       z     vdW  Elec       q    Type
REMARK                         _______ _______ _______ _____ _____    ______ ____
ROOT
ATOM      1  C   UNL     1       5.198   4.726  17.571  0.00  0.00    +0.000 A 
ATOM      2  C   UNL     1       4.575   5.915  17.157  0.00  0.00    +0.000 A 
ATOM      3  C   UNL     1       3.645   6.611  17.975  0.00  0.00    +0.000 A 
ATOM      4  C   UNL     1       3.354   6.137  19.242  0.00  0.00    +0.000 A 
ATOM      5  C   UNL     1       4.001   4.949  19.675  0.00  0.00    +0.000 A 
ATOM      6  C   UNL     1       4.909   4.236  18.854  0.00  0.00    +0.000 A 
ATOM      7  C   UNL     1       2.247   6.792  20.113  0.00  0.00    +0.000 C 
ATOM      8  C   UNL     1       1.032   5.843  20.076  0.00  0.00    +0.000 C 
ATOM      9  N   UNL     1       1.866   8.185  19.690  0.00  0.00    +0.000 N 
ATOM     10  C   UNL     1       1.178   9.026  20.611  0.00  0.00    +0.000 C 
ATOM     11  O   UNL     1       1.034   8.641  21.786  0.00  0.00    +0.000 OA
ATOM     12  C   UNL     1       1.763   8.362  18.246  0.00  0.00    +0.000 C 
ATOM     13  C   UNL     1       3.013   7.887  17.480  0.00  0.00    +0.000 C 
ENDROOT
BRANCH   1  15
ATOM     14  C   UNL     1       6.290   4.479  15.452  0.00  0.00    +0.000 C 
ATOM     15  O   UNL     1       6.029   3.996  16.763  0.00  0.00    +0.000 OA
ENDBRANCH   1  15
BRANCH   6  16
ATOM     16  O   UNL     1       5.409   3.102  19.452  0.00  0.00    +0.000 OA
ATOM     17  C   UNL     1       4.521   2.190  20.101  0.00  0.00    +0.000 C 
ENDBRANCH   6  16
BRANCH  10  18
ATOM     18  C   UNL     1       0.670  10.496  20.239  0.00  0.00    +0.000 C 
BRANCH  18  19
ATOM     19  N   UNL     1       0.126  11.362  21.369  0.00  0.00    +0.000 N 
ATOM     20  N   UNL     1       0.948  12.406  21.636  0.00  0.00    +0.000 NA
ATOM     21  C   UNL     1       0.373  13.314  20.825  0.00  0.00    +0.000 A 
ATOM     22  C   UNL     1      -0.976  12.927  20.493  0.00  0.00    +0.000 A 
ATOM     23  C   UNL     1      -1.239  11.911  21.438  0.00  0.00    +0.000 A 
ATOM     24  C   UNL     1      -2.085  12.565  22.605  0.00  0.00    +0.000 A 
ATOM     25  C   UNL     1      -2.960  11.955  23.501  0.00  0.00    +0.000 A 
ATOM     26  C   UNL     1      -3.746  12.745  24.401  0.00  0.00    +0.000 A 
ATOM     27  C   UNL     1      -3.616  14.138  24.505  0.00  0.00    +0.000 A 
ATOM     28  C   UNL     1      -2.803  14.779  23.578  0.00  0.00    +0.000 A 
ATOM     29  C   UNL     1      -2.213  14.010  22.576  0.00  0.00    +0.000 A 
ATOM     30  O   UNL     1      -1.991  14.782  21.423  0.00  0.00    +0.000 OA
ATOM     31  C   UNL     1      -2.035  13.934  20.266  0.00  0.00    +0.000 C 
ENDBRANCH  18  19
ENDBRANCH  10  18
TORSDOF 4
ENDMDL
MODEL 4
REMARK VINA RESULT:      -7.8      2.888      9.782
REMARK  Name = 
REMARK  7 active torsions:
REMARK  status: ('A' for Active; 'I' for Inactive)
REMARK    1  A    between atoms: C_1  and  O_2
REMARK    2  A    between atoms: O_2  and  C_3
REMARK    3  A    between atoms: C_8  and  O_9
REMARK    4  A    between atoms: O_9  and  C_10
REMARK    5  A    between atoms: C_11  and  C_12
REMARK    6  A    between atoms: C_14  and  C_16
REMARK    7  A    between atoms: C_16  and  N_17
REMARK                            x       y       z     vdW  Elec       q    Type
REMARK                         _______ _______ _______ _____ _____    ______ ____
ROOT
ATOM      1  C   UNL     1       3.095   5.068  18.747  0.00  0.00    +0.000 A 
ATOM      2  C   UNL     1       2.799   6.295  18.128  0.00  0.00    +0.000 A 
ATOM      3  C   UNL     1       2.200   7.376  18.829  0.00  0.00    +0.000 A 
ATOM      4  C   UNL     1       1.921   7.251  20.178  0.00  0.00    +0.000 A 
ATOM      5  C   UNL     1       2.243   6.023  20.816  0.00  0.00    +0.000 A 
ATOM      6  C   UNL     1       2.815   4.931  20.116  0.00  0.00    +0.000 A 
ATOM      7  C   UNL     1       1.148   8.357  20.948  0.00  0.00    +0.000 C 
ATOM      8  C   UNL     1      -0.285   7.830  21.163  0.00  0.00    +0.000 C 
ATOM      9  N   UNL     1       1.142   9.699  20.266  0.00  0.00    +0.000 N 
ATOM     10  C   UNL     1       0.826  10.862  21.026  0.00  0.00    +0.000 C 
ATOM     11  O   UNL     1       0.703  10.759  22.260  0.00  0.00    +0.000 OA
ATOM     12  C   UNL     1       0.941   9.633  18.823  0.00  0.00    +0.000 C 
ATOM     13  C   UNL     1       1.912   8.671  18.112  0.00  0.00    +0.000 C 
ENDROOT
BRANCH   1  15
ATOM     14  C   UNL     1       2.667   3.089  17.468  0.00  0.00    +0.000 C 
ATOM     15  O   UNL     1       3.590   3.987  18.069  0.00  0.00    +0.000 OA
ENDBRANCH   1  15
BRANCH   6  16
ATOM     16  O   UNL     1       3.028   3.828  20.910  0.00  0.00    +0.000 OA
ATOM     17  C   UNL     1       1.932   2.981  21.260  0.00  0.00    +0.000 C 
ENDBRANCH   6  16
BRANCH  10  18
ATOM     18  C   UNL     1       0.724  12.323  20.385  0.00  0.00    +0.000 C 
BRANCH  18  19
ATOM     19  N   UNL     1      -0.666  12.916  20.194  0.00  0.00    +0.000 N 
ATOM     20  N   UNL     1      -0.746  13.642  19.052  0.00  0.00    +0.000 NA
ATOM     21  C   UNL     1      -1.181  12.664  18.235  0.00  0.00    +0.000 A 
ATOM     22  C   UNL     1      -1.762  11.582  18.990  0.00  0.00    +0.000 A 
ATOM     23  C   UNL     1      -1.929  12.161  20.267  0.00  0.00    +0.000 A 
ATOM     24  C   UNL     1      -3.446  12.597  20.388  0.00  0.00    +0.000 A 
ATOM     25  C   UNL     1      -4.216  12.777  21.535  0.00  0.00    +0.000 A 
ATOM     26  C   UNL     1      -5.621  13.039  21.433  0.00  0.00    +0.000 A 
ATOM     27  C   UNL     1      -6.274  13.226  20.205  0.00  0.00    +0.000 A 
ATOM     28  C   UNL     1      -5.546  12.985  19.046  0.00  0.00    +0.000 A 
ATOM     29  C   UNL     1      -4.237  12.524  19.174  0.00  0.00    +0.000 A 
ATOM     30  O   UNL     1      -3.871  11.750  18.061  0.00  0.00    +0.000 OA
ATOM     31  C   UNL     1      -2.886  10.783  18.455  0.00  0.00    +0.000 C 
ENDBRANCH  18  19
ENDBRANCH  10  18
TORSDOF 4
ENDMDL
MODEL 5
REMARK VINA RESULT:      -7.7      6.647     10.428
REMARK  Name = 
REMARK  7 active torsions:
REMARK  status: ('A' for Active; 'I' for Inactive)
REMARK    1  A    between atoms: C_1  and  O_2
REMARK    2  A    between atoms: O_2  and  C_3
REMARK    3  A    between atoms: C_8  and  O_9
REMARK    4  A    between atoms: O_9  and  C_10
REMARK    5  A    between atoms: C_11  and  C_12
REMARK    6  A    between atoms: C_14  and  C_16
REMARK    7  A    between atoms: C_16  and  N_17
REMARK                            x       y       z     vdW  Elec       q    Type
REMARK                         _______ _______ _______ _____ _____    ______ ____
ROOT
ATOM      1  C   UNL     1       4.116   3.397  18.917  0.00  0.00    +0.000 A 
ATOM      2  C   UNL     1       5.305   3.851  19.513  0.00  0.00    +0.000 A 
ATOM      3  C   UNL     1       6.014   4.984  19.030  0.00  0.00    +0.000 A 
ATOM      4  C   UNL     1       5.515   5.702  17.959  0.00  0.00    +0.000 A 
ATOM      5  C   UNL     1       4.299   5.264  17.369  0.00  0.00    +0.000 A 
ATOM      6  C   UNL     1       3.602   4.118  17.829  0.00  0.00    +0.000 A 
ATOM      7  C   UNL     1       6.324   6.863  17.318  0.00  0.00    +0.000 C 
ATOM      8  C   UNL     1       6.894   6.329  15.989  0.00  0.00    +0.000 C 
ATOM      9  N   UNL     1       7.412   7.420  18.197  0.00  0.00    +0.000 N 
ATOM     10  C   UNL     1       7.948   8.707  17.906  0.00  0.00    +0.000 C 
ATOM     11  O   UNL     1       7.409   9.398  17.023  0.00  0.00    +0.000 OA
ATOM     12  C   UNL     1       8.170   6.405  18.921  0.00  0.00    +0.000 C 
ATOM     13  C   UNL     1       7.282   5.427  19.715  0.00  0.00    +0.000 C 
ENDROOT
BRANCH   1  15
ATOM     14  C   UNL     1       3.685   1.066  18.569  0.00  0.00    +0.000 C 
ATOM     15  O   UNL     1       3.468   2.258  19.313  0.00  0.00    +0.000 OA
ENDBRANCH   1  15
BRANCH   6  16
ATOM     16  O   UNL     1       2.459   3.852  17.110  0.00  0.00    +0.000 OA
ATOM     17  C   UNL     1       1.195   4.321  17.583  0.00  0.00    +0.000 C 
ENDBRANCH   6  16
BRANCH  10  18
ATOM     18  C   UNL     1       9.151   9.359  18.734  0.00  0.00    +0.000 C 
BRANCH  18  19
ATOM     19  N   UNL     1       9.059  10.843  19.062  0.00  0.00    +0.000 N 
ATOM     20  N   UNL     1       9.915  11.188  20.055  0.00  0.00    +0.000 NA
ATOM     21  C   UNL     1      10.962  11.546  19.288  0.00  0.00    +0.000 A 
ATOM     22  C   UNL     1      10.539  11.833  17.940  0.00  0.00    +0.000 A 
ATOM     23  C   UNL     1       9.137  11.938  18.080  0.00  0.00    +0.000 A 
ATOM     24  C   UNL     1       8.788  13.480  18.147  0.00  0.00    +0.000 A 
ATOM     25  C   UNL     1       7.593  14.122  17.829  0.00  0.00    +0.000 A 
ATOM     26  C   UNL     1       7.517  15.553  17.819  0.00  0.00    +0.000 A 
ATOM     27  C   UNL     1       8.582  16.376  18.216  0.00  0.00    +0.000 A 
ATOM     28  C   UNL     1       9.805  15.766  18.472  0.00  0.00    +0.000 A 
ATOM     29  C   UNL     1       9.911  14.391  18.269  0.00  0.00    +0.000 A 
ATOM     30  O   UNL     1      11.230  14.038  17.939  0.00  0.00    +0.000 OA
ATOM     31  C   UNL     1      11.218  12.860  17.119  0.00  0.00    +0.000 C 
ENDBRANCH  18  19
ENDBRANCH  10  18
TORSDOF 4
ENDMDL
MODEL 6
REMARK VINA RESULT:      -7.7      2.266     10.261
REMARK  Name = 
REMARK  7 active torsions:
REMARK  status: ('A' for Active; 'I' for Inactive)
REMARK    1  A    between atoms: C_1  and  O_2
REMARK    2  A    between atoms: O_2  and  C_3
REMARK    3  A    between atoms: C_8  and  O_9
REMARK    4  A    between atoms: O_9  and  C_10
REMARK    5  A    between atoms: C_11  and  C_12
REMARK    6  A    between atoms: C_14  and  C_16
REMARK    7  A    between atoms: C_16  and  N_17
REMARK                            x       y       z     vdW  Elec       q    Type
REMARK                         _______ _______ _______ _____ _____    ______ ____
ROOT
ATOM      1  C   UNL     1       4.828   4.938  17.473  0.00  0.00    +0.000 A 
ATOM      2  C   UNL     1       4.189   6.150  17.162  0.00  0.00    +0.000 A 
ATOM      3  C   UNL     1       3.368   6.839  18.094  0.00  0.00    +0.000 A 
ATOM      4  C   UNL     1       3.205   6.335  19.371  0.00  0.00    +0.000 A 
ATOM      5  C   UNL     1       3.870   5.123  19.700  0.00  0.00    +0.000 A 
ATOM      6  C   UNL     1       4.669   4.417  18.766  0.00  0.00    +0.000 A 
ATOM      7  C   UNL     1       2.213   6.983  20.375  0.00  0.00    +0.000 C 
ATOM      8  C   UNL     1       0.981   6.059  20.444  0.00  0.00    +0.000 C 
ATOM      9  N   UNL     1       1.819   8.396  20.033  0.00  0.00    +0.000 N 
ATOM     10  C   UNL     1       1.252   9.222  21.045  0.00  0.00    +0.000 C 
ATOM     11  O   UNL     1       1.227   8.806  22.218  0.00  0.00    +0.000 OA
ATOM     12  C   UNL     1       1.564   8.616  18.614  0.00  0.00    +0.000 C 
ATOM     13  C   UNL     1       2.713   8.140  17.704  0.00  0.00    +0.000 C 
ENDROOT
BRANCH   1  15
ATOM     14  C   UNL     1       6.942   4.484  16.441  0.00  0.00    +0.000 C 
ATOM     15  O   UNL     1       5.551   4.217  16.561  0.00  0.00    +0.000 OA
ENDBRANCH   1  15
BRANCH   6  16
ATOM     16  O   UNL     1       5.206   3.258  19.276  0.00  0.00    +0.000 OA
ATOM     17  C   UNL     1       4.351   2.281  19.874  0.00  0.00    +0.000 C 
ENDBRANCH   6  16
BRANCH  10  18
ATOM     18  C   UNL     1       0.738  10.711  20.771  0.00  0.00    +0.000 C 
BRANCH  18  19
ATOM     19  N   UNL     1      -0.763  10.963  20.838  0.00  0.00    +0.000 N 
ATOM     20  N   UNL     1      -1.181  11.145  22.114  0.00  0.00    +0.000 NA
ATOM     21  C   UNL     1      -1.075  12.487  22.160  0.00  0.00    +0.000 A 
ATOM     22  C   UNL     1      -1.055  13.048  20.832  0.00  0.00    +0.000 A 
ATOM     23  C   UNL     1      -1.493  11.963  20.041  0.00  0.00    +0.000 A 
ATOM     24  C   UNL     1      -3.030  12.196  19.739  0.00  0.00    +0.000 A 
ATOM     25  C   UNL     1      -3.797  11.714  18.681  0.00  0.00    +0.000 A 
ATOM     26  C   UNL     1      -5.149  12.154  18.504  0.00  0.00    +0.000 A 
ATOM     27  C   UNL     1      -5.801  12.999  19.416  0.00  0.00    +0.000 A 
ATOM     28  C   UNL     1      -5.040  13.549  20.440  0.00  0.00    +0.000 A 
ATOM     29  C   UNL     1      -3.674  13.272  20.469  0.00  0.00    +0.000 A 
ATOM     30  O   UNL     1      -2.968  14.319  21.083  0.00  0.00    +0.000 OA
ATOM     31  C   UNL     1      -1.638  14.377  20.546  0.00  0.00    +0.000 C 
ENDBRANCH  18  19
ENDBRANCH  10  18
TORSDOF 4
ENDMDL
MODEL 7
REMARK VINA RESULT:      -7.7      2.379     10.387
REMARK  Name = 
REMARK  7 active torsions:
REMARK  status: ('A' for Active; 'I' for Inactive)
REMARK    1  A    between atoms: C_1  and  O_2
REMARK    2  A    between atoms: O_2  and  C_3
REMARK    3  A    between atoms: C_8  and  O_9
REMARK    4  A    between atoms: O_9  and  C_10
REMARK    5  A    between atoms: C_11  and  C_12
REMARK    6  A    between atoms: C_14  and  C_16
REMARK    7  A    between atoms: C_16  and  N_17
REMARK                            x       y       z     vdW  Elec       q    Type
REMARK                         _______ _______ _______ _____ _____    ______ ____
ROOT
ATOM      1  C   UNL     1       3.592   5.173  18.077  0.00  0.00    +0.000 A 
ATOM      2  C   UNL     1       3.194   6.450  17.648  0.00  0.00    +0.000 A 
ATOM      3  C   UNL     1       2.546   7.375  18.510  0.00  0.00    +0.000 A 
ATOM      4  C   UNL     1       2.319   7.040  19.832  0.00  0.00    +0.000 A 
ATOM      5  C   UNL     1       2.742   5.760  20.279  0.00  0.00    +0.000 A 
ATOM      6  C   UNL     1       3.365   4.823  19.417  0.00  0.00    +0.000 A 
ATOM      7  C   UNL     1       1.496   7.967  20.769  0.00  0.00    +0.000 C 
ATOM      8  C   UNL     1       0.110   7.314  20.937  0.00  0.00    +0.000 C 
ATOM      9  N   UNL     1       1.377   9.389  20.288  0.00  0.00    +0.000 N 
ATOM     10  C   UNL     1       1.007  10.405  21.214  0.00  0.00    +0.000 C 
ATOM     11  O   UNL     1       0.930  10.120  22.423  0.00  0.00    +0.000 OA
ATOM     12  C   UNL     1       1.136   9.514  18.855  0.00  0.00    +0.000 C 
ATOM     13  C   UNL     1       2.148   8.735  17.993  0.00  0.00    +0.000 C 
ENDROOT
BRANCH   1  15
ATOM     14  C   UNL     1       5.005   4.684  16.205  0.00  0.00    +0.000 C 
ATOM     15  O   UNL     1       4.138   4.237  17.240  0.00  0.00    +0.000 OA
ENDBRANCH   1  15
BRANCH   6  16
ATOM     16  O   UNL     1       3.678   3.636  20.040  0.00  0.00    +0.000 OA
ATOM     17  C   UNL     1       2.668   2.643  20.226  0.00  0.00    +0.000 C 
ENDBRANCH   6  16
BRANCH  10  18
ATOM     18  C   UNL     1       0.787  11.932  20.792  0.00  0.00    +0.000 C 
BRANCH  18  19
ATOM     19  N   UNL     1      -0.334  12.700  21.481  0.00  0.00    +0.000 N 
ATOM     20  N   UNL     1      -0.411  13.977  21.034  0.00  0.00    +0.000 NA
ATOM     21  C   UNL     1      -1.311  13.781  20.052  0.00  0.00    +0.000 A 
ATOM     22  C   UNL     1      -2.043  12.556  20.260  0.00  0.00    +0.000 A 
ATOM     23  C   UNL     1      -1.729  12.243  21.601  0.00  0.00    +0.000 A 
ATOM     24  C   UNL     1      -2.951  12.715  22.489  0.00  0.00    +0.000 A 
ATOM     25  C   UNL     1      -3.353  12.254  23.741  0.00  0.00    +0.000 A 
ATOM     26  C   UNL     1      -4.578  12.712  24.325  0.00  0.00    +0.000 A 
ATOM     27  C   UNL     1      -5.380  13.703  23.737  0.00  0.00    +0.000 A 
ATOM     28  C   UNL     1      -5.040  14.129  22.458  0.00  0.00    +0.000 A 
ATOM     29  C   UNL     1      -3.962  13.513  21.823  0.00  0.00    +0.000 A 
ATOM     30  O   UNL     1      -4.123  13.548  20.428  0.00  0.00    +0.000 OA
ATOM     31  C   UNL     1      -3.455  12.420  19.843  0.00  0.00    +0.000 C 
ENDBRANCH  18  19
ENDBRANCH  10  18
TORSDOF 4
ENDMDL
MODEL 8
REMARK VINA RESULT:      -7.6      3.093     10.638
REMARK  Name = 
REMARK  7 active torsions:
REMARK  status: ('A' for Active; 'I' for Inactive)
REMARK    1  A    between atoms: C_1  and  O_2
REMARK    2  A    between atoms: O_2  and  C_3
REMARK    3  A    between atoms: C_8  and  O_9
REMARK    4  A    between atoms: O_9  and  C_10
REMARK    5  A    between atoms: C_11  and  C_12
REMARK    6  A    between atoms: C_14  and  C_16
REMARK    7  A    between atoms: C_16  and  N_17
REMARK                            x       y       z     vdW  Elec       q    Type
REMARK                         _______ _______ _______ _____ _____    ______ ____
ROOT
ATOM      1  C   UNL     1       2.874   6.859  18.261  0.00  0.00    +0.000 A 
ATOM      2  C   UNL     1       2.335   8.122  17.963  0.00  0.00    +0.000 A 
ATOM      3  C   UNL     1       1.618   8.888  18.921  0.00  0.00    +0.000 A 
ATOM      4  C   UNL     1       1.462   8.408  20.209  0.00  0.00    +0.000 A 
ATOM      5  C   UNL     1       2.028   7.143  20.523  0.00  0.00    +0.000 A 
ATOM      6  C   UNL     1       2.721   6.363  19.564  0.00  0.00    +0.000 A 
ATOM      7  C   UNL     1       0.574   9.150  21.245  0.00  0.00    +0.000 C 
ATOM      8  C   UNL     1      -0.733   8.341  21.372  0.00  0.00    +0.000 C 
ATOM      9  N   UNL     1       0.295  10.590  20.905  0.00  0.00    +0.000 N 
ATOM     10  C   UNL     1      -0.154  11.470  21.931  0.00  0.00    +0.000 C 
ATOM     11  O   UNL     1      -0.168  11.065  23.108  0.00  0.00    +0.000 OA
ATOM     12  C   UNL     1       0.004  10.824  19.495  0.00  0.00    +0.000 C 
ATOM     13  C   UNL     1       1.068  10.241  18.545  0.00  0.00    +0.000 C 
ENDROOT
BRANCH   1  15
ATOM     14  C   UNL     1       4.855   6.332  17.020  0.00  0.00    +0.000 C 
ATOM     15  O   UNL     1       3.492   6.070  17.328  0.00  0.00    +0.000 OA
ENDBRANCH   1  15
BRANCH   6  16
ATOM     16  O   UNL     1       3.172   5.163  20.064  0.00  0.00    +0.000 OA
ATOM     17  C   UNL     1       2.272   4.300  20.763  0.00  0.00    +0.000 C 
ENDBRANCH   6  16
BRANCH  10  18
ATOM     18  C   UNL     1      -0.542  12.998  21.662  0.00  0.00    +0.000 C 
BRANCH  18  19
ATOM     19  N   UNL     1      -1.858  13.504  22.240  0.00  0.00    +0.000 N 
ATOM     20  N   UNL     1      -2.122  14.773  21.843  0.00  0.00    +0.000 NA
ATOM     21  C   UNL     1      -2.852  14.482  20.749  0.00  0.00    +0.000 A 
ATOM     22  C   UNL     1      -3.360  13.134  20.812  0.00  0.00    +0.000 A 
ATOM     23  C   UNL     1      -3.147  12.795  22.166  0.00  0.00    +0.000 A 
ATOM     24  C   UNL     1      -4.529  12.979  22.916  0.00  0.00    +0.000 A 
ATOM     25  C   UNL     1      -4.977  12.372  24.088  0.00  0.00    +0.000 A 
ATOM     26  C   UNL     1      -6.325  12.562  24.536  0.00  0.00    +0.000 A 
ATOM     27  C   UNL     1      -7.225  13.428  23.896  0.00  0.00    +0.000 A 
ATOM     28  C   UNL     1      -6.828  13.992  22.689  0.00  0.00    +0.000 A 
ATOM     29  C   UNL     1      -5.589  13.624  22.165  0.00  0.00    +0.000 A 
ATOM     30  O   UNL     1      -5.594  13.720  20.764  0.00  0.00    +0.000 OA
ATOM     31  C   UNL     1      -4.665  12.772  20.218  0.00  0.00    +0.000 C 
ENDBRANCH  18  19
ENDBRANCH  10  18
TORSDOF 4
ENDMDL
MODEL 9
REMARK VINA RESULT:      -7.6      4.123      9.487
REMARK  Name = 
REMARK  7 active torsions:
REMARK  status: ('A' for Active; 'I' for Inactive)
REMARK    1  A    between atoms: C_1  and  O_2
REMARK    2  A    between atoms: O_2  and  C_3
REMARK    3  A    between atoms: C_8  and  O_9
REMARK    4  A    between atoms: O_9  and  C_10
REMARK    5  A    between atoms: C_11  and  C_12
REMARK    6  A    between atoms: C_14  and  C_16
REMARK    7  A    between atoms: C_16  and  N_17
REMARK                            x       y       z     vdW  Elec       q    Type
REMARK                         _______ _______ _______ _____ _____    ______ ____
ROOT
ATOM      1  C   UNL     1       2.913   5.378  18.809  0.00  0.00    +0.000 A 
ATOM      2  C   UNL     1       2.759   6.599  18.132  0.00  0.00    +0.000 A 
ATOM      3  C   UNL     1       2.194   7.746  18.751  0.00  0.00    +0.000 A 
ATOM      4  C   UNL     1       1.806   7.692  20.077  0.00  0.00    +0.000 A 
ATOM      5  C   UNL     1       1.984   6.467  20.775  0.00  0.00    +0.000 A 
ATOM      6  C   UNL     1       2.522   5.311  20.156  0.00  0.00    +0.000 A 
ATOM      7  C   UNL     1       1.064   8.879  20.751  0.00  0.00    +0.000 C 
ATOM      8  C   UNL     1      -0.417   8.467  20.870  0.00  0.00    +0.000 C 
ATOM      9  N   UNL     1       1.211  10.192  20.029  0.00  0.00    +0.000 N 
ATOM     10  C   UNL     1       0.928  11.401  20.726  0.00  0.00    +0.000 C 
ATOM     11  O   UNL     1       0.706  11.353  21.950  0.00  0.00    +0.000 OA
ATOM     12  C   UNL     1       1.114  10.088  18.578  0.00  0.00    +0.000 C 
ATOM     13  C   UNL     1       2.060   9.032  17.974  0.00  0.00    +0.000 C 
ENDROOT
BRANCH   1  15
ATOM     14  C   UNL     1       2.446   3.431  17.492  0.00  0.00    +0.000 C 
ATOM     15  O   UNL     1       3.374   4.239  18.205  0.00  0.00    +0.000 OA
ENDBRANCH   1  15
BRANCH   6  16
ATOM     16  O   UNL     1       2.591   4.225  20.998  0.00  0.00    +0.000 OA
ATOM     17  C   UNL     1       1.458   3.367  21.145  0.00  0.00    +0.000 C 
ENDBRANCH   6  16
BRANCH  10  18
ATOM     18  C   UNL     1       0.987  12.842  20.035  0.00  0.00    +0.000 C 
BRANCH  18  19
ATOM     19  N   UNL     1       2.355  13.374  19.626  0.00  0.00    +0.000 N 
ATOM     20  N   UNL     1       2.451  13.520  18.282  0.00  0.00    +0.000 NA
ATOM     21  C   UNL     1       2.060  14.806  18.202  0.00  0.00    +0.000 A 
ATOM     22  C   UNL     1       2.200  15.468  19.475  0.00  0.00    +0.000 A 
ATOM     23  C   UNL     1       3.010  14.563  20.197  0.00  0.00    +0.000 A 
ATOM     24  C   UNL     1       4.492  15.115  20.140  0.00  0.00    +0.000 A 
ATOM     25  C   UNL     1       5.546  14.885  21.022  0.00  0.00    +0.000 A 
ATOM     26  C   UNL     1       6.784  15.594  20.876  0.00  0.00    +0.000 A 
ATOM     27  C   UNL     1       7.041  16.465  19.807  0.00  0.00    +0.000 A 
ATOM     28  C   UNL     1       5.987  16.764  18.953  0.00  0.00    +0.000 A 
ATOM     29  C   UNL     1       4.733  16.227  19.240  0.00  0.00    +0.000 A 
ATOM     30  O   UNL     1       3.712  17.058  18.751  0.00  0.00    +0.000 OA
ATOM     31  C   UNL     1       2.540  16.905  19.566  0.00  0.00    +0.000 C 
ENDBRANCH  18  19
ENDBRANCH  10  18
TORSDOF 4
ENDMDL
