MODEL 1
REMARK VINA RESULT:      -7.4      0.000      0.000
REMARK  Name = 
REMARK  7 active torsions:
REMARK  status: ('A' for Active; 'I' for Inactive)
REMARK    1  A    between atoms: C_1  and  C_2
REMARK    2  A    between atoms: C_2  and  S_4
REMARK    3  A    between atoms: S_4  and  C_5
REMARK    4  A    between atoms: C_7  and  N_8
REMARK    5  A    between atoms: C_10  and  C_11
REMARK    6  A    between atoms: C_18  and  C_19
REMARK    7  A    between atoms: C_19  and  O_20
REMARK                            x       y       z     vdW  Elec       q    Type
REMARK                         _______ _______ _______ _____ _____    ______ ____
ROOT
ATOM      1  C   UNL     1       2.853   3.856  18.691  0.00  0.00    +0.000 C 
ATOM      2  C   UNL     1       3.897   3.543  17.637  0.00  0.00    +0.000 C 
ATOM      3  C   UNL     1       4.930   4.644  17.840  0.00  0.00    +0.000 C 
ATOM      4  O   UNL     1       4.222   5.802  18.317  0.00  0.00    +0.000 OA
ATOM      5  C   UNL     1       2.872   5.392  18.657  0.00  0.00    +0.000 C 
ENDROOT
BRANCH   3   6
ATOM      6  N   UNL     1       5.663   4.933  16.617  0.00  0.00    +0.000 N 
ATOM      7  C   UNL     1       5.338   4.310  15.428  0.00  0.00    +0.000 A 
ATOM      8  C   UNL     1       6.106   4.397  14.336  0.00  0.00    +0.000 A 
ATOM      9  C   UNL     1       5.828   3.685  13.054  0.00  0.00    +0.000 C 
ATOM     10  C   UNL     1       7.334   5.221  14.416  0.00  0.00    +0.000 A 
ATOM     11  O   UNL     1       8.139   5.278  13.492  0.00  0.00    +0.000 OA
ATOM     12  N   UNL     1       7.528   5.888  15.589  0.00  0.00    +0.000 N 
ATOM     13  C   UNL     1       6.814   5.702  16.741  0.00  0.00    +0.000 A 
ATOM     14  O   UNL     1       7.211   6.174  17.802  0.00  0.00    +0.000 OA
ATOM     15  H   UNL     1       8.384   6.414  15.673  0.00  0.00    +0.000 HD
ENDBRANCH   3   6
BRANCH   1  16
ATOM     16  S   UNL     1       3.308   3.119  20.308  0.00  0.00    +0.000 S 
BRANCH  16  18
ATOM     17  C   UNL     1       0.621   2.811  19.883  0.00  0.00    +0.000 C 
ATOM     18  C   UNL     1       1.701   2.742  20.923  0.00  0.00    +0.000 C 
ATOM     19  O   UNL     1       1.507   2.469  22.099  0.00  0.00    +0.000 OA
ENDBRANCH  16  18
ENDBRANCH   1  16
BRANCH   5  20
ATOM     20  C   UNL     1       2.431   6.136  19.916  0.00  0.00    +0.000 C 
BRANCH  20  21
ATOM     21  O   UNL     1       2.209   7.513  19.603  0.00  0.00    +0.000 OA
ATOM     22  H   UNL     1       1.260   7.582  19.379  0.00  0.00    +0.000 HD
ENDBRANCH  20  21
ENDBRANCH   5  20
TORSDOF 5
ENDMDL
MODEL 2
REMARK VINA RESULT:      -7.0      1.033      1.088
REMARK  Name = 
REMARK  7 active torsions:
REMARK  status: ('A' for Active; 'I' for Inactive)
REMARK    1  A    between atoms: C_1  and  C_2
REMARK    2  A    between atoms: C_2  and  S_4
REMARK    3  A    between atoms: S_4  and  C_5
REMARK    4  A    between atoms: C_7  and  N_8
REMARK    5  A    between atoms: C_10  and  C_11
REMARK    6  A    between atoms: C_18  and  C_19
REMARK    7  A    between atoms: C_19  and  O_20
REMARK                            x       y       z     vdW  Elec       q    Type
REMARK                         _______ _______ _______ _____ _____    ______ ____
ROOT
ATOM      1  C   UNL     1       2.997   3.882  18.101  0.00  0.00    +0.000 C 
ATOM      2  C   UNL     1       4.036   3.487  17.070  0.00  0.00    +0.000 C 
ATOM      3  C   UNL     1       5.025   4.646  17.119  0.00  0.00    +0.000 C 
ATOM      4  O   UNL     1       4.276   5.823  17.469  0.00  0.00    +0.000 OA
ATOM      5  C   UNL     1       2.950   5.402  17.884  0.00  0.00    +0.000 C 
ENDROOT
BRANCH   3   6
ATOM      6  N   UNL     1       5.726   4.815  15.856  0.00  0.00    +0.000 N 
ATOM      7  C   UNL     1       5.285   4.188  14.707  0.00  0.00    +0.000 A 
ATOM      8  C   UNL     1       6.006   4.158  13.580  0.00  0.00    +0.000 A 
ATOM      9  C   UNL     1       5.598   3.435  12.340  0.00  0.00    +0.000 C 
ATOM     10  C   UNL     1       7.314   4.854  13.576  0.00  0.00    +0.000 A 
ATOM     11  O   UNL     1       8.077   4.797  12.617  0.00  0.00    +0.000 OA
ATOM     12  N   UNL     1       7.628   5.538  14.713  0.00  0.00    +0.000 N 
ATOM     13  C   UNL     1       6.953   5.466  15.900  0.00  0.00    +0.000 A 
ATOM     14  O   UNL     1       7.445   5.931  16.924  0.00  0.00    +0.000 OA
ATOM     15  H   UNL     1       8.536   5.976  14.740  0.00  0.00    +0.000 HD
ENDBRANCH   3   6
BRANCH   1  16
ATOM     16  S   UNL     1       3.508   3.363  19.784  0.00  0.00    +0.000 S 
BRANCH  16  18
ATOM     17  C   UNL     1       1.675   2.758  21.725  0.00  0.00    +0.000 C 
ATOM     18  C   UNL     1       2.045   2.522  20.290  0.00  0.00    +0.000 C 
ATOM     19  O   UNL     1       1.415   1.805  19.526  0.00  0.00    +0.000 OA
ENDBRANCH  16  18
ENDBRANCH   1  16
BRANCH   5  20
ATOM     20  C   UNL     1       2.497   6.274  19.054  0.00  0.00    +0.000 C 
BRANCH  20  21
ATOM     21  O   UNL     1       2.578   7.652  18.682  0.00  0.00    +0.000 OA
ATOM     22  H   UNL     1       1.743   7.847  18.213  0.00  0.00    +0.000 HD
ENDBRANCH  20  21
ENDBRANCH   5  20
TORSDOF 5
ENDMDL
MODEL 3
REMARK VINA RESULT:      -6.8      1.710      1.844
REMARK  Name = 
REMARK  7 active torsions:
REMARK  status: ('A' for Active; 'I' for Inactive)
REMARK    1  A    between atoms: C_1  and  C_2
REMARK    2  A    between atoms: C_2  and  S_4
REMARK    3  A    between atoms: S_4  and  C_5
REMARK    4  A    between atoms: C_7  and  N_8
REMARK    5  A    between atoms: C_10  and  C_11
REMARK    6  A    between atoms: C_18  and  C_19
REMARK    7  A    between atoms: C_19  and  O_20
REMARK                            x       y       z     vdW  Elec       q    Type
REMARK                         _______ _______ _______ _____ _____    ______ ____
ROOT
ATOM      1  C   UNL     1       4.045   3.065  19.148  0.00  0.00    +0.000 C 
ATOM      2  C   UNL     1       5.178   3.846  18.513  0.00  0.00    +0.000 C 
ATOM      3  C   UNL     1       4.480   4.619  17.401  0.00  0.00    +0.000 C 
ATOM      4  O   UNL     1       3.373   3.812  16.960  0.00  0.00    +0.000 OA
ATOM      5  C   UNL     1       3.208   2.725  17.906  0.00  0.00    +0.000 C 
ENDROOT
BRANCH   3   6
ATOM      6  N   UNL     1       5.385   4.929  16.305  0.00  0.00    +0.000 N 
ATOM      7  C   UNL     1       5.302   4.255  15.101  0.00  0.00    +0.000 A 
ATOM      8  C   UNL     1       6.233   4.370  14.147  0.00  0.00    +0.000 A 
ATOM      9  C   UNL     1       6.218   3.609  12.863  0.00  0.00    +0.000 C 
ATOM     10  C   UNL     1       7.375   5.280  14.397  0.00  0.00    +0.000 A 
ATOM     11  O   UNL     1       8.316   5.372  13.616  0.00  0.00    +0.000 OA
ATOM     12  N   UNL     1       7.327   5.988  15.562  0.00  0.00    +0.000 N 
ATOM     13  C   UNL     1       6.446   5.779  16.587  0.00  0.00    +0.000 A 
ATOM     14  O   UNL     1       6.630   6.304  17.681  0.00  0.00    +0.000 OA
ATOM     15  H   UNL     1       8.121   6.575  15.766  0.00  0.00    +0.000 HD
ENDBRANCH   3   6
BRANCH   1  16
ATOM     16  S   UNL     1       3.174   4.074  20.409  0.00  0.00    +0.000 S 
BRANCH  16  18
ATOM     17  C   UNL     1       1.128   2.756  21.664  0.00  0.00    +0.000 C 
ATOM     18  C   UNL     1       2.618   2.791  21.481  0.00  0.00    +0.000 C 
ATOM     19  O   UNL     1       3.396   2.022  22.026  0.00  0.00    +0.000 OA
ENDBRANCH  16  18
ENDBRANCH   1  16
BRANCH   5  20
ATOM     20  C   UNL     1       1.716   2.463  18.104  0.00  0.00    +0.000 C 
BRANCH  20  21
ATOM     21  O   UNL     1       0.968   3.589  17.639  0.00  0.00    +0.000 OA
ATOM     22  H   UNL     1       0.219   3.218  17.134  0.00  0.00    +0.000 HD
ENDBRANCH  20  21
ENDBRANCH   5  20
TORSDOF 5
ENDMDL
MODEL 4
REMARK VINA RESULT:      -6.8      0.966      1.066
REMARK  Name = 
REMARK  7 active torsions:
REMARK  status: ('A' for Active; 'I' for Inactive)
REMARK    1  A    between atoms: C_1  and  C_2
REMARK    2  A    between atoms: C_2  and  S_4
REMARK    3  A    between atoms: S_4  and  C_5
REMARK    4  A    between atoms: C_7  and  N_8
REMARK    5  A    between atoms: C_10  and  C_11
REMARK    6  A    between atoms: C_18  and  C_19
REMARK    7  A    between atoms: C_19  and  O_20
REMARK                            x       y       z     vdW  Elec       q    Type
REMARK                         _______ _______ _______ _____ _____    ______ ____
ROOT
ATOM      1  C   UNL     1       2.461   4.863  18.626  0.00  0.00    +0.000 C 
ATOM      2  C   UNL     1       3.541   4.321  17.712  0.00  0.00    +0.000 C 
ATOM      3  C   UNL     1       4.652   5.356  17.843  0.00  0.00    +0.000 C 
ATOM      4  O   UNL     1       4.019   6.622  18.098  0.00  0.00    +0.000 OA
ATOM      5  C   UNL     1       2.618   6.372  18.383  0.00  0.00    +0.000 C 
ENDROOT
BRANCH   3   6
ATOM      6  N   UNL     1       5.489   5.407  16.654  0.00  0.00    +0.000 N 
ATOM      7  C   UNL     1       5.142   4.718  15.508  0.00  0.00    +0.000 A 
ATOM      8  C   UNL     1       5.975   4.580  14.471  0.00  0.00    +0.000 A 
ATOM      9  C   UNL     1       5.666   3.787  13.245  0.00  0.00    +0.000 C 
ATOM     10  C   UNL     1       7.307   5.221  14.561  0.00  0.00    +0.000 A 
ATOM     11  O   UNL     1       8.163   5.065  13.697  0.00  0.00    +0.000 OA
ATOM     12  N   UNL     1       7.533   5.971  15.678  0.00  0.00    +0.000 N 
ATOM     13  C   UNL     1       6.734   6.010  16.788  0.00  0.00    +0.000 A 
ATOM     14  O   UNL     1       7.137   6.527  17.826  0.00  0.00    +0.000 OA
ATOM     15  H   UNL     1       8.452   6.373  15.774  0.00  0.00    +0.000 HD
ENDBRANCH   3   6
BRANCH   1  16
ATOM     16  S   UNL     1       2.738   4.333  20.361  0.00  0.00    +0.000 S 
BRANCH  16  18
ATOM     17  C   UNL     1       1.416   2.447  21.842  0.00  0.00    +0.000 C 
ATOM     18  C   UNL     1       1.428   3.165  20.524  0.00  0.00    +0.000 C 
ATOM     19  O   UNL     1       0.625   2.965  19.625  0.00  0.00    +0.000 OA
ENDBRANCH  16  18
ENDBRANCH   1  16
BRANCH   5  20
ATOM     20  C   UNL     1       2.160   7.322  19.488  0.00  0.00    +0.000 C 
BRANCH  20  21
ATOM     21  O   UNL     1       1.854   8.599  18.923  0.00  0.00    +0.000 OA
ATOM     22  H   UNL     1       1.026   8.886  19.354  0.00  0.00    +0.000 HD
ENDBRANCH  20  21
ENDBRANCH   5  20
TORSDOF 5
ENDMDL
MODEL 5
REMARK VINA RESULT:      -6.6      1.168      1.194
REMARK  Name = 
REMARK  7 active torsions:
REMARK  status: ('A' for Active; 'I' for Inactive)
REMARK    1  A    between atoms: C_1  and  C_2
REMARK    2  A    between atoms: C_2  and  S_4
REMARK    3  A    between atoms: S_4  and  C_5
REMARK    4  A    between atoms: C_7  and  N_8
REMARK    5  A    between atoms: C_10  and  C_11
REMARK    6  A    between atoms: C_18  and  C_19
REMARK    7  A    between atoms: C_19  and  O_20
REMARK                            x       y       z     vdW  Elec       q    Type
REMARK                         _______ _______ _______ _____ _____    ______ ____
ROOT
ATOM      1  C   UNL     1       2.263   5.073  18.554  0.00  0.00    +0.000 C 
ATOM      2  C   UNL     1       3.331   4.495  17.647  0.00  0.00    +0.000 C 
ATOM      3  C   UNL     1       4.511   5.434  17.866  0.00  0.00    +0.000 C 
ATOM      4  O   UNL     1       3.966   6.731  18.165  0.00  0.00    +0.000 OA
ATOM      5  C   UNL     1       2.541   6.575  18.394  0.00  0.00    +0.000 C 
ENDROOT
BRANCH   3   6
ATOM      6  N   UNL     1       5.390   5.479  16.708  0.00  0.00    +0.000 N 
ATOM      7  C   UNL     1       5.081   4.790  15.551  0.00  0.00    +0.000 A 
ATOM      8  C   UNL     1       5.951   4.646  14.545  0.00  0.00    +0.000 A 
ATOM      9  C   UNL     1       5.682   3.853  13.309  0.00  0.00    +0.000 C 
ATOM     10  C   UNL     1       7.282   5.280  14.683  0.00  0.00    +0.000 A 
ATOM     11  O   UNL     1       8.168   5.119  13.850  0.00  0.00    +0.000 OA
ATOM     12  N   UNL     1       7.471   6.030  15.806  0.00  0.00    +0.000 N 
ATOM     13  C   UNL     1       6.633   6.075  16.886  0.00  0.00    +0.000 A 
ATOM     14  O   UNL     1       7.001   6.591  17.937  0.00  0.00    +0.000 OA
ATOM     15  H   UNL     1       8.389   6.428  15.934  0.00  0.00    +0.000 HD
ENDBRANCH   3   6
BRANCH   1  16
ATOM     16  S   UNL     1       2.438   4.439  20.267  0.00  0.00    +0.000 S 
BRANCH  16  18
ATOM     17  C   UNL     1       1.603   1.987  19.380  0.00  0.00    +0.000 C 
ATOM     18  C   UNL     1       2.780   2.745  19.920  0.00  0.00    +0.000 C 
ATOM     19  O   UNL     1       3.880   2.253  20.125  0.00  0.00    +0.000 OA
ENDBRANCH  16  18
ENDBRANCH   1  16
BRANCH   5  20
ATOM     20  C   UNL     1       2.117   7.502  19.531  0.00  0.00    +0.000 C 
BRANCH  20  21
ATOM     21  O   UNL     1       1.677   8.751  18.991  0.00  0.00    +0.000 OA
ATOM     22  H   UNL     1       2.314   8.970  18.284  0.00  0.00    +0.000 HD
ENDBRANCH  20  21
ENDBRANCH   5  20
TORSDOF 5
ENDMDL
MODEL 6
REMARK VINA RESULT:      -6.6      2.720      6.617
REMARK  Name = 
REMARK  7 active torsions:
REMARK  status: ('A' for Active; 'I' for Inactive)
REMARK    1  A    between atoms: C_1  and  C_2
REMARK    2  A    between atoms: C_2  and  S_4
REMARK    3  A    between atoms: S_4  and  C_5
REMARK    4  A    between atoms: C_7  and  N_8
REMARK    5  A    between atoms: C_10  and  C_11
REMARK    6  A    between atoms: C_18  and  C_19
REMARK    7  A    between atoms: C_19  and  O_20
REMARK                            x       y       z     vdW  Elec       q    Type
REMARK                         _______ _______ _______ _____ _____    ______ ____
ROOT
ATOM      1  C   UNL     1       5.557   5.911  16.797  0.00  0.00    +0.000 C 
ATOM      2  C   UNL     1       5.021   5.622  18.185  0.00  0.00    +0.000 C 
ATOM      3  C   UNL     1       4.894   4.104  18.194  0.00  0.00    +0.000 C 
ATOM      4  O   UNL     1       4.609   3.698  16.844  0.00  0.00    +0.000 OA
ATOM      5  C   UNL     1       4.810   4.847  15.980  0.00  0.00    +0.000 C 
ENDROOT
BRANCH   3   6
ATOM      6  N   UNL     1       3.864   3.651  19.116  0.00  0.00    +0.000 N 
ATOM      7  C   UNL     1       2.691   4.363  19.281  0.00  0.00    +0.000 A 
ATOM      8  C   UNL     1       1.815   4.092  20.254  0.00  0.00    +0.000 A 
ATOM      9  C   UNL     1       0.572   4.878  20.509  0.00  0.00    +0.000 C 
ATOM     10  C   UNL     1       2.116   2.962  21.164  0.00  0.00    +0.000 A 
ATOM     11  O   UNL     1       1.413   2.705  22.136  0.00  0.00    +0.000 OA
ATOM     12  N   UNL     1       3.237   2.243  20.869  0.00  0.00    +0.000 N 
ATOM     13  C   UNL     1       4.193   2.594  19.957  0.00  0.00    +0.000 A 
ATOM     14  O   UNL     1       5.272   2.010  19.931  0.00  0.00    +0.000 OA
ATOM     15  H   UNL     1       3.478   1.502  21.509  0.00  0.00    +0.000 HD
ENDBRANCH   3   6
BRANCH   1  16
ATOM     16  S   UNL     1       7.386   5.767  16.755  0.00  0.00    +0.000 S 
BRANCH  16  18
ATOM     17  C   UNL     1       7.771   8.310  17.695  0.00  0.00    +0.000 C 
ATOM     18  C   UNL     1       7.798   6.859  18.076  0.00  0.00    +0.000 C 
ATOM     19  O   UNL     1       8.090   6.445  19.188  0.00  0.00    +0.000 OA
ENDBRANCH  16  18
ENDBRANCH   1  16
BRANCH   5  20
ATOM     20  C   UNL     1       5.446   4.378  14.673  0.00  0.00    +0.000 C 
BRANCH  20  21
ATOM     21  O   UNL     1       6.118   3.135  14.888  0.00  0.00    +0.000 OA
ATOM     22  H   UNL     1       6.886   3.346  15.454  0.00  0.00    +0.000 HD
ENDBRANCH  20  21
ENDBRANCH   5  20
TORSDOF 5
ENDMDL
MODEL 7
REMARK VINA RESULT:      -6.5      3.379      6.460
REMARK  Name = 
REMARK  7 active torsions:
REMARK  status: ('A' for Active; 'I' for Inactive)
REMARK    1  A    between atoms: C_1  and  C_2
REMARK    2  A    between atoms: C_2  and  S_4
REMARK    3  A    between atoms: S_4  and  C_5
REMARK    4  A    between atoms: C_7  and  N_8
REMARK    5  A    between atoms: C_10  and  C_11
REMARK    6  A    between atoms: C_18  and  C_19
REMARK    7  A    between atoms: C_19  and  O_20
REMARK                            x       y       z     vdW  Elec       q    Type
REMARK                         _______ _______ _______ _____ _____    ______ ____
ROOT
ATOM      1  C   UNL     1       3.264   4.539  19.687  0.00  0.00    +0.000 C 
ATOM      2  C   UNL     1       2.204   5.546  20.089  0.00  0.00    +0.000 C 
ATOM      3  C   UNL     1       2.338   6.628  19.024  0.00  0.00    +0.000 C 
ATOM      4  O   UNL     1       3.717   6.650  18.618  0.00  0.00    +0.000 OA
ATOM      5  C   UNL     1       4.368   5.481  19.182  0.00  0.00    +0.000 C 
ENDROOT
BRANCH   3   6
ATOM      6  N   UNL     1       1.905   7.927  19.514  0.00  0.00    +0.000 N 
ATOM      7  C   UNL     1       1.494   8.095  20.822  0.00  0.00    +0.000 A 
ATOM      8  C   UNL     1       0.907   9.217  21.254  0.00  0.00    +0.000 A 
ATOM      9  C   UNL     1       0.387   9.413  22.639  0.00  0.00    +0.000 C 
ATOM     10  C   UNL     1       0.723  10.321  20.285  0.00  0.00    +0.000 A 
ATOM     11  O   UNL     1       0.113  11.345  20.574  0.00  0.00    +0.000 OA
ATOM     12  N   UNL     1       1.251  10.118  19.044  0.00  0.00    +0.000 N 
ATOM     13  C   UNL     1       1.737   8.931  18.568  0.00  0.00    +0.000 A 
ATOM     14  O   UNL     1       1.972   8.791  17.371  0.00  0.00    +0.000 OA
ATOM     15  H   UNL     1       1.091  10.843  18.361  0.00  0.00    +0.000 HD
ENDBRANCH   3   6
BRANCH   1  16
ATOM     16  S   UNL     1       2.618   3.369  18.430  0.00  0.00    +0.000 S 
BRANCH  16  18
ATOM     17  C   UNL     1       1.585   2.432  20.785  0.00  0.00    +0.000 C 
ATOM     18  C   UNL     1       1.278   2.673  19.336  0.00  0.00    +0.000 C 
ATOM     19  O   UNL     1       0.209   2.406  18.806  0.00  0.00    +0.000 OA
ENDBRANCH  16  18
ENDBRANCH   1  16
BRANCH   5  20
ATOM     20  C   UNL     1       5.363   4.928  18.163  0.00  0.00    +0.000 C 
BRANCH  20  21
ATOM     21  O   UNL     1       6.200   3.955  18.792  0.00  0.00    +0.000 OA
ATOM     22  H   UNL     1       5.654   3.150  18.872  0.00  0.00    +0.000 HD
ENDBRANCH  20  21
ENDBRANCH   5  20
TORSDOF 5
ENDMDL
MODEL 8
REMARK VINA RESULT:      -6.5      3.320      6.419
REMARK  Name = 
REMARK  7 active torsions:
REMARK  status: ('A' for Active; 'I' for Inactive)
REMARK    1  A    between atoms: C_1  and  C_2
REMARK    2  A    between atoms: C_2  and  S_4
REMARK    3  A    between atoms: S_4  and  C_5
REMARK    4  A    between atoms: C_7  and  N_8
REMARK    5  A    between atoms: C_10  and  C_11
REMARK    6  A    between atoms: C_18  and  C_19
REMARK    7  A    between atoms: C_19  and  O_20
REMARK                            x       y       z     vdW  Elec       q    Type
REMARK                         _______ _______ _______ _____ _____    ______ ____
ROOT
ATOM      1  C   UNL     1       3.503   4.616  19.084  0.00  0.00    +0.000 C 
ATOM      2  C   UNL     1       2.371   5.543  19.480  0.00  0.00    +0.000 C 
ATOM      3  C   UNL     1       2.600   6.762  18.595  0.00  0.00    +0.000 C 
ATOM      4  O   UNL     1       4.018   6.859  18.372  0.00  0.00    +0.000 OA
ATOM      5  C   UNL     1       4.631   5.634  18.852  0.00  0.00    +0.000 C 
ENDROOT
BRANCH   3   6
ATOM      6  N   UNL     1       2.070   7.976  19.195  0.00  0.00    +0.000 N 
ATOM      7  C   UNL     1       1.653   7.997  20.512  0.00  0.00    +0.000 A 
ATOM      8  C   UNL     1       0.982   9.028  21.039  0.00  0.00    +0.000 A 
ATOM      9  C   UNL     1       0.455   9.062  22.435  0.00  0.00    +0.000 C 
ATOM     10  C   UNL     1       0.709  10.195  20.169  0.00  0.00    +0.000 A 
ATOM     11  O   UNL     1       0.023  11.139  20.545  0.00  0.00    +0.000 OA
ATOM     12  N   UNL     1       1.246  10.142  18.916  0.00  0.00    +0.000 N 
ATOM     13  C   UNL     1       1.820   9.043  18.340  0.00  0.00    +0.000 A 
ATOM     14  O   UNL     1       2.059   9.025  17.136  0.00  0.00    +0.000 OA
ATOM     15  H   UNL     1       1.027  10.909  18.299  0.00  0.00    +0.000 HD
ENDBRANCH   3   6
BRANCH   1  16
ATOM     16  S   UNL     1       3.053   3.619  17.612  0.00  0.00    +0.000 S 
BRANCH  16  18
ATOM     17  C   UNL     1       1.393   1.999  19.066  0.00  0.00    +0.000 C 
ATOM     18  C   UNL     1       2.732   2.072  18.391  0.00  0.00    +0.000 C 
ATOM     19  O   UNL     1       3.547   1.161  18.381  0.00  0.00    +0.000 OA
ENDBRANCH  16  18
ENDBRANCH   1  16
BRANCH   5  20
ATOM     20  C   UNL     1       5.760   5.239  17.902  0.00  0.00    +0.000 C 
BRANCH  20  21
ATOM     21  O   UNL     1       6.499   4.153  18.465  0.00  0.00    +0.000 OA
ATOM     22  H   UNL     1       6.410   4.247  19.433  0.00  0.00    +0.000 HD
ENDBRANCH  20  21
ENDBRANCH   5  20
TORSDOF 5
ENDMDL
MODEL 9
REMARK VINA RESULT:      -6.5      1.728      2.360
REMARK  Name = 
REMARK  7 active torsions:
REMARK  status: ('A' for Active; 'I' for Inactive)
REMARK    1  A    between atoms: C_1  and  C_2
REMARK    2  A    between atoms: C_2  and  S_4
REMARK    3  A    between atoms: S_4  and  C_5
REMARK    4  A    between atoms: C_7  and  N_8
REMARK    5  A    between atoms: C_10  and  C_11
REMARK    6  A    between atoms: C_18  and  C_19
REMARK    7  A    between atoms: C_19  and  O_20
REMARK                            x       y       z     vdW  Elec       q    Type
REMARK                         _______ _______ _______ _____ _____    ______ ____
ROOT
ATOM      1  C   UNL     1       3.529   4.505  18.838  0.00  0.00    +0.000 C 
ATOM      2  C   UNL     1       3.947   5.244  17.583  0.00  0.00    +0.000 C 
ATOM      3  C   UNL     1       4.384   4.119  16.653  0.00  0.00    +0.000 C 
ATOM      4  O   UNL     1       4.903   3.065  17.483  0.00  0.00    +0.000 OA
ATOM      5  C   UNL     1       4.571   3.377  18.862  0.00  0.00    +0.000 C 
ENDROOT
BRANCH   3   6
ATOM      6  N   UNL     1       5.370   4.568  15.683  0.00  0.00    +0.000 N 
ATOM      7  C   UNL     1       5.404   4.042  14.405  0.00  0.00    +0.000 A 
ATOM      8  C   UNL     1       6.409   4.281  13.555  0.00  0.00    +0.000 A 
ATOM      9  C   UNL     1       6.519   3.679  12.194  0.00  0.00    +0.000 C 
ATOM     10  C   UNL     1       7.504   5.169  14.007  0.00  0.00    +0.000 A 
ATOM     11  O   UNL     1       8.505   5.365  13.326  0.00  0.00    +0.000 OA
ATOM     12  N   UNL     1       7.344   5.732  15.239  0.00  0.00    +0.000 N 
ATOM     13  C   UNL     1       6.385   5.392  16.153  0.00  0.00    +0.000 A 
ATOM     14  O   UNL     1       6.465   5.785  17.313  0.00  0.00    +0.000 OA
ATOM     15  H   UNL     1       8.105   6.301  15.578  0.00  0.00    +0.000 HD
ENDBRANCH   3   6
BRANCH   1  16
ATOM     16  S   UNL     1       1.787   3.940  18.720  0.00  0.00    +0.000 S 
BRANCH  16  18
ATOM     17  C   UNL     1       1.122   2.948  21.184  0.00  0.00    +0.000 C 
ATOM     18  C   UNL     1       1.277   4.209  20.385  0.00  0.00    +0.000 C 
ATOM     19  O   UNL     1       1.059   5.330  20.821  0.00  0.00    +0.000 OA
ENDBRANCH  16  18
ENDBRANCH   1  16
BRANCH   5  20
ATOM     20  C   UNL     1       4.204   2.085  19.588  0.00  0.00    +0.000 C 
BRANCH  20  21
ATOM     21  O   UNL     1       5.279   1.697  20.446  0.00  0.00    +0.000 OA
ATOM     22  H   UNL     1       5.762   2.521  20.651  0.00  0.00    +0.000 HD
ENDBRANCH  20  21
ENDBRANCH   5  20
TORSDOF 5
ENDMDL
