MODEL 1
REMARK VINA RESULT:      -6.6      0.000      0.000
REMARK  Name = 
REMARK  6 active torsions:
REMARK  status: ('A' for Active; 'I' for Inactive)
REMARK    1  A    between atoms: C_1  and  O_2
REMARK    2  A    between atoms: O_2  and  C_3
REMARK    3  A    between atoms: C_6  and  C_7
REMARK    4  A    between atoms: C_10  and  C_11
REMARK    5  A    between atoms: C_18  and  O_19
REMARK    6  A    between atoms: O_19  and  C_20
REMARK                            x       y       z     vdW  Elec       q    Type
REMARK                         _______ _______ _______ _____ _____    ______ ____
ROOT
ATOM      1  C   UNL     1       6.466   5.085  15.603  0.00  0.00    +0.000 A 
ATOM      2  C   UNL     1       5.337   4.264  15.758  0.00  0.00    +0.000 A 
ATOM      3  C   UNL     1       4.398   4.513  16.768  0.00  0.00    +0.000 A 
ATOM      4  C   UNL     1       4.586   5.571  17.658  0.00  0.00    +0.000 A 
ATOM      5  C   UNL     1       5.763   6.323  17.556  0.00  0.00    +0.000 A 
ATOM      6  C   UNL     1       6.705   6.097  16.541  0.00  0.00    +0.000 A 
ENDROOT
BRANCH   4   7
ATOM      7  C   UNL     1       3.564   5.895  18.653  0.00  0.00    +0.000 A 
ATOM      8  C   UNL     1       3.073   4.971  19.553  0.00  0.00    +0.000 A 
ATOM      9  S   UNL     1       1.917   5.702  20.575  0.00  0.00    +0.000 S 
ATOM     10  C   UNL     1       2.162   7.206  19.771  0.00  0.00    +0.000 A 
ATOM     11  N   UNL     1       3.056   7.176  18.797  0.00  0.00    +0.000 NA
BRANCH  10  12
ATOM     12  C   UNL     1       1.457   8.421  20.124  0.00  0.00    +0.000 A 
ATOM     13  C   UNL     1       1.102   9.439  19.253  0.00  0.00    +0.000 A 
ATOM     14  C   UNL     1       0.408  10.507  19.899  0.00  0.00    +0.000 A 
ATOM     15  C   UNL     1       0.257  10.279  21.245  0.00  0.00    +0.000 A 
ATOM     16  S   UNL     1       0.942   8.790  21.722  0.00  0.00    +0.000 S 
ENDBRANCH  10  12
ENDBRANCH   4   7
BRANCH   1  18
ATOM     17  C   UNL     1       6.850   4.177  13.446  0.00  0.00    +0.000 C 
ATOM     18  O   UNL     1       7.351   4.888  14.577  0.00  0.00    +0.000 OA
ENDBRANCH   1  18
BRANCH   6  19
ATOM     19  O   UNL     1       7.754   6.974  16.624  0.00  0.00    +0.000 OA
ATOM     20  C   UNL     1       7.708   8.023  17.575  0.00  0.00    +0.000 C 
ENDBRANCH   6  19
TORSDOF 4
ENDMDL
MODEL 2
REMARK VINA RESULT:      -6.5      2.400      3.850
REMARK  Name = 
REMARK  6 active torsions:
REMARK  status: ('A' for Active; 'I' for Inactive)
REMARK    1  A    between atoms: C_1  and  O_2
REMARK    2  A    between atoms: O_2  and  C_3
REMARK    3  A    between atoms: C_6  and  C_7
REMARK    4  A    between atoms: C_10  and  C_11
REMARK    5  A    between atoms: C_18  and  O_19
REMARK    6  A    between atoms: O_19  and  C_20
REMARK                            x       y       z     vdW  Elec       q    Type
REMARK                         _______ _______ _______ _____ _____    ______ ____
ROOT
ATOM      1  C   UNL     1       4.216   4.837  17.199  0.00  0.00    +0.000 A 
ATOM      2  C   UNL     1       4.724   6.115  16.917  0.00  0.00    +0.000 A 
ATOM      3  C   UNL     1       4.041   7.269  17.325  0.00  0.00    +0.000 A 
ATOM      4  C   UNL     1       2.824   7.164  17.999  0.00  0.00    +0.000 A 
ATOM      5  C   UNL     1       2.278   5.889  18.190  0.00  0.00    +0.000 A 
ATOM      6  C   UNL     1       2.956   4.724  17.801  0.00  0.00    +0.000 A 
ENDROOT
BRANCH   4   7
ATOM      7  C   UNL     1       2.154   8.359  18.511  0.00  0.00    +0.000 A 
ATOM      8  C   UNL     1       2.019   9.519  17.775  0.00  0.00    +0.000 A 
ATOM      9  S   UNL     1       1.166  10.692  18.675  0.00  0.00    +0.000 S 
ATOM     10  C   UNL     1       1.008   9.574  19.976  0.00  0.00    +0.000 A 
ATOM     11  N   UNL     1       1.555   8.390  19.760  0.00  0.00    +0.000 NA
BRANCH  10  12
ATOM     12  C   UNL     1       0.330   9.888  21.217  0.00  0.00    +0.000 A 
ATOM     13  C   UNL     1       0.160   9.031  22.292  0.00  0.00    +0.000 A 
ATOM     14  C   UNL     1      -0.548   9.632  23.377  0.00  0.00    +0.000 A 
ATOM     15  C   UNL     1      -0.903  10.929  23.099  0.00  0.00    +0.000 A 
ATOM     16  S   UNL     1      -0.385  11.416  21.548  0.00  0.00    +0.000 S 
ENDBRANCH  10  12
ENDBRANCH   4   7
BRANCH   1  18
ATOM     17  C   UNL     1       5.960   3.876  15.911  0.00  0.00    +0.000 C 
ATOM     18  O   UNL     1       4.911   3.707  16.864  0.00  0.00    +0.000 OA
ENDBRANCH   1  18
BRANCH   6  19
ATOM     19  O   UNL     1       2.244   3.597  18.118  0.00  0.00    +0.000 OA
ATOM     20  C   UNL     1       1.808   3.406  19.453  0.00  0.00    +0.000 C 
ENDBRANCH   6  19
TORSDOF 4
ENDMDL
MODEL 3
REMARK VINA RESULT:      -6.5      2.819      3.488
REMARK  Name = 
REMARK  6 active torsions:
REMARK  status: ('A' for Active; 'I' for Inactive)
REMARK    1  A    between atoms: C_1  and  O_2
REMARK    2  A    between atoms: O_2  and  C_3
REMARK    3  A    between atoms: C_6  and  C_7
REMARK    4  A    between atoms: C_10  and  C_11
REMARK    5  A    between atoms: C_18  and  O_19
REMARK    6  A    between atoms: O_19  and  C_20
REMARK                            x       y       z     vdW  Elec       q    Type
REMARK                         _______ _______ _______ _____ _____    ______ ____
ROOT
ATOM      1  C   UNL     1       3.655   3.532  17.976  0.00  0.00    +0.000 A 
ATOM      2  C   UNL     1       2.313   3.874  17.743  0.00  0.00    +0.000 A 
ATOM      3  C   UNL     1       1.837   5.161  18.028  0.00  0.00    +0.000 A 
ATOM      4  C   UNL     1       2.688   6.120  18.577  0.00  0.00    +0.000 A 
ATOM      5  C   UNL     1       3.998   5.741  18.896  0.00  0.00    +0.000 A 
ATOM      6  C   UNL     1       4.495   4.462  18.603  0.00  0.00    +0.000 A 
ENDROOT
BRANCH   4   7
ATOM      7  C   UNL     1       2.224   7.491  18.790  0.00  0.00    +0.000 A 
ATOM      8  C   UNL     1       2.386   8.492  17.854  0.00  0.00    +0.000 A 
ATOM      9  S   UNL     1       1.705   9.949  18.427  0.00  0.00    +0.000 S 
ATOM     10  C   UNL     1       1.215   9.148  19.872  0.00  0.00    +0.000 A 
ATOM     11  N   UNL     1       1.534   7.866  19.931  0.00  0.00    +0.000 NA
BRANCH  10  12
ATOM     12  C   UNL     1       0.505   9.810  20.947  0.00  0.00    +0.000 A 
ATOM     13  C   UNL     1       0.050   9.213  22.112  0.00  0.00    +0.000 A 
ATOM     14  C   UNL     1      -0.611  10.129  22.985  0.00  0.00    +0.000 A 
ATOM     15  C   UNL     1      -0.649  11.399  22.462  0.00  0.00    +0.000 A 
ATOM     16  S   UNL     1       0.110  11.483  20.935  0.00  0.00    +0.000 S 
ENDBRANCH  10  12
ENDBRANCH   4   7
BRANCH   1  18
ATOM     17  C   UNL     1       3.746   1.216  18.475  0.00  0.00    +0.000 C 
ATOM     18  O   UNL     1       4.143   2.300  17.636  0.00  0.00    +0.000 OA
ENDBRANCH   1  18
BRANCH   6  19
ATOM     19  O   UNL     1       5.807   4.334  18.975  0.00  0.00    +0.000 OA
ATOM     20  C   UNL     1       6.584   5.499  19.188  0.00  0.00    +0.000 C 
ENDBRANCH   6  19
TORSDOF 4
ENDMDL
MODEL 4
REMARK VINA RESULT:      -6.5      2.340      3.742
REMARK  Name = 
REMARK  6 active torsions:
REMARK  status: ('A' for Active; 'I' for Inactive)
REMARK    1  A    between atoms: C_1  and  O_2
REMARK    2  A    between atoms: O_2  and  C_3
REMARK    3  A    between atoms: C_6  and  C_7
REMARK    4  A    between atoms: C_10  and  C_11
REMARK    5  A    between atoms: C_18  and  O_19
REMARK    6  A    between atoms: O_19  and  C_20
REMARK                            x       y       z     vdW  Elec       q    Type
REMARK                         _______ _______ _______ _____ _____    ______ ____
ROOT
ATOM      1  C   UNL     1       3.801   4.096  18.664  0.00  0.00    +0.000 A 
ATOM      2  C   UNL     1       2.920   4.361  19.726  0.00  0.00    +0.000 A 
ATOM      3  C   UNL     1       2.367   5.636  19.902  0.00  0.00    +0.000 A 
ATOM      4  C   UNL     1       2.705   6.676  19.036  0.00  0.00    +0.000 A 
ATOM      5  C   UNL     1       3.658   6.427  18.040  0.00  0.00    +0.000 A 
ATOM      6  C   UNL     1       4.210   5.153  17.841  0.00  0.00    +0.000 A 
ENDROOT
BRANCH   4   7
ATOM      7  C   UNL     1       2.059   7.983  19.156  0.00  0.00    +0.000 A 
ATOM      8  C   UNL     1       2.024   8.902  18.127  0.00  0.00    +0.000 A 
ATOM      9  S   UNL     1       1.171  10.298  18.613  0.00  0.00    +0.000 S 
ATOM     10  C   UNL     1       0.882   9.582  20.153  0.00  0.00    +0.000 A 
ATOM     11  N   UNL     1       1.385   8.369  20.304  0.00  0.00    +0.000 NA
BRANCH  10  12
ATOM     12  C   UNL     1       0.143  10.240  21.210  0.00  0.00    +0.000 A 
ATOM     13  C   UNL     1      -0.351   9.638  22.356  0.00  0.00    +0.000 A 
ATOM     14  C   UNL     1      -1.034  10.551  23.215  0.00  0.00    +0.000 A 
ATOM     15  C   UNL     1      -1.049  11.825  22.700  0.00  0.00    +0.000 A 
ATOM     16  S   UNL     1      -0.244  11.915  21.197  0.00  0.00    +0.000 S 
ENDBRANCH  10  12
ENDBRANCH   4   7
BRANCH   1  18
ATOM     17  C   UNL     1       3.319   1.805  18.285  0.00  0.00    +0.000 C 
ATOM     18  O   UNL     1       4.291   2.838  18.446  0.00  0.00    +0.000 OA
ENDBRANCH   1  18
BRANCH   6  19
ATOM     19  O   UNL     1       5.091   5.145  16.792  0.00  0.00    +0.000 OA
ATOM     20  C   UNL     1       5.229   6.307  15.992  0.00  0.00    +0.000 C 
ENDBRANCH   6  19
TORSDOF 4
ENDMDL
MODEL 5
REMARK VINA RESULT:      -6.5      3.376      4.664
REMARK  Name = 
REMARK  6 active torsions:
REMARK  status: ('A' for Active; 'I' for Inactive)
REMARK    1  A    between atoms: C_1  and  O_2
REMARK    2  A    between atoms: O_2  and  C_3
REMARK    3  A    between atoms: C_6  and  C_7
REMARK    4  A    between atoms: C_10  and  C_11
REMARK    5  A    between atoms: C_18  and  O_19
REMARK    6  A    between atoms: O_19  and  C_20
REMARK                            x       y       z     vdW  Elec       q    Type
REMARK                         _______ _______ _______ _____ _____    ______ ____
ROOT
ATOM      1  C   UNL     1       3.723   3.536  19.363  0.00  0.00    +0.000 A 
ATOM      2  C   UNL     1       4.440   4.601  18.792  0.00  0.00    +0.000 A 
ATOM      3  C   UNL     1       3.901   5.894  18.754  0.00  0.00    +0.000 A 
ATOM      4  C   UNL     1       2.625   6.139  19.262  0.00  0.00    +0.000 A 
ATOM      5  C   UNL     1       1.880   5.053  19.740  0.00  0.00    +0.000 A 
ATOM      6  C   UNL     1       2.411   3.756  19.799  0.00  0.00    +0.000 A 
ENDROOT
BRANCH   4   7
ATOM      7  C   UNL     1       2.096   7.502  19.312  0.00  0.00    +0.000 A 
ATOM      8  C   UNL     1       2.193   8.385  18.256  0.00  0.00    +0.000 A 
ATOM      9  S   UNL     1       1.447   9.867  18.658  0.00  0.00    +0.000 S 
ATOM     10  C   UNL     1       1.021   9.231  20.201  0.00  0.00    +0.000 A 
ATOM     11  N   UNL     1       1.405   7.983  20.412  0.00  0.00    +0.000 NA
BRANCH  10  12
ATOM     12  C   UNL     1       0.294   9.987  21.201  0.00  0.00    +0.000 A 
ATOM     13  C   UNL     1      -0.244   9.481  22.373  0.00  0.00    +0.000 A 
ATOM     14  C   UNL     1      -0.900  10.476  23.159  0.00  0.00    +0.000 A 
ATOM     15  C   UNL     1      -0.850  11.713  22.564  0.00  0.00    +0.000 A 
ATOM     16  S   UNL     1      -0.017  11.673  21.074  0.00  0.00    +0.000 S 
ENDBRANCH  10  12
ENDBRANCH   4   7
BRANCH   1  18
ATOM     17  C   UNL     1       3.871   1.344  18.469  0.00  0.00    +0.000 C 
ATOM     18  O   UNL     1       4.271   2.286  19.464  0.00  0.00    +0.000 OA
ENDBRANCH   1  18
BRANCH   6  19
ATOM     19  O   UNL     1       1.513   2.869  20.331  0.00  0.00    +0.000 OA
ATOM     20  C   UNL     1       1.486   2.667  21.733  0.00  0.00    +0.000 C 
ENDBRANCH   6  19
TORSDOF 4
ENDMDL
MODEL 6
REMARK VINA RESULT:      -6.4      3.121      4.412
REMARK  Name = 
REMARK  6 active torsions:
REMARK  status: ('A' for Active; 'I' for Inactive)
REMARK    1  A    between atoms: C_1  and  O_2
REMARK    2  A    between atoms: O_2  and  C_3
REMARK    3  A    between atoms: C_6  and  C_7
REMARK    4  A    between atoms: C_10  and  C_11
REMARK    5  A    between atoms: C_18  and  O_19
REMARK    6  A    between atoms: O_19  and  C_20
REMARK                            x       y       z     vdW  Elec       q    Type
REMARK                         _______ _______ _______ _____ _____    ______ ____
ROOT
ATOM      1  C   UNL     1       3.815   3.808  18.948  0.00  0.00    +0.000 A 
ATOM      2  C   UNL     1       3.951   4.707  17.877  0.00  0.00    +0.000 A 
ATOM      3  C   UNL     1       3.363   5.978  17.924  0.00  0.00    +0.000 A 
ATOM      4  C   UNL     1       2.606   6.362  19.031  0.00  0.00    +0.000 A 
ATOM      5  C   UNL     1       2.396   5.424  20.050  0.00  0.00    +0.000 A 
ATOM      6  C   UNL     1       2.989   4.153  20.025  0.00  0.00    +0.000 A 
ENDROOT
BRANCH   4   7
ATOM      7  C   UNL     1       2.069   7.719  19.129  0.00  0.00    +0.000 A 
ATOM      8  C   UNL     1       2.150   8.635  18.100  0.00  0.00    +0.000 A 
ATOM      9  S   UNL     1       1.401  10.100  18.555  0.00  0.00    +0.000 S 
ATOM     10  C   UNL     1       0.996   9.414  20.083  0.00  0.00    +0.000 A 
ATOM     11  N   UNL     1       1.389   8.163  20.252  0.00  0.00    +0.000 NA
BRANCH  10  12
ATOM     12  C   UNL     1       0.277  10.135  21.114  0.00  0.00    +0.000 A 
ATOM     13  C   UNL     1       0.019  11.496  21.127  0.00  0.00    +0.000 A 
ATOM     14  C   UNL     1      -0.717  11.912  22.278  0.00  0.00    +0.000 A 
ATOM     15  C   UNL     1      -0.997  10.858  23.115  0.00  0.00    +0.000 A 
ATOM     16  S   UNL     1      -0.378   9.385  22.515  0.00  0.00    +0.000 S 
ENDBRANCH  10  12
ENDBRANCH   4   7
BRANCH   1  18
ATOM     17  C   UNL     1       3.657   1.485  18.497  0.00  0.00    +0.000 C 
ATOM     18  O   UNL     1       4.443   2.592  18.937  0.00  0.00    +0.000 OA
ENDBRANCH   1  18
BRANCH   6  19
ATOM     19  O   UNL     1       2.667   3.425  21.139  0.00  0.00    +0.000 OA
ATOM     20  C   UNL     1       1.317   3.052  21.358  0.00  0.00    +0.000 C 
ENDBRANCH   6  19
TORSDOF 4
ENDMDL
MODEL 7
REMARK VINA RESULT:      -6.4      2.220      3.369
REMARK  Name = 
REMARK  6 active torsions:
REMARK  status: ('A' for Active; 'I' for Inactive)
REMARK    1  A    between atoms: C_1  and  O_2
REMARK    2  A    between atoms: O_2  and  C_3
REMARK    3  A    between atoms: C_6  and  C_7
REMARK    4  A    between atoms: C_10  and  C_11
REMARK    5  A    between atoms: C_18  and  O_19
REMARK    6  A    between atoms: O_19  and  C_20
REMARK                            x       y       z     vdW  Elec       q    Type
REMARK                         _______ _______ _______ _____ _____    ______ ____
ROOT
ATOM      1  C   UNL     1       4.754   4.696  16.615  0.00  0.00    +0.000 A 
ATOM      2  C   UNL     1       5.054   6.068  16.605  0.00  0.00    +0.000 A 
ATOM      3  C   UNL     1       4.252   6.986  17.296  0.00  0.00    +0.000 A 
ATOM      4  C   UNL     1       3.121   6.552  17.987  0.00  0.00    +0.000 A 
ATOM      5  C   UNL     1       2.776   5.196  17.911  0.00  0.00    +0.000 A 
ATOM      6  C   UNL     1       3.576   4.262  17.236  0.00  0.00    +0.000 A 
ENDROOT
BRANCH   4   7
ATOM      7  C   UNL     1       2.334   7.489  18.787  0.00  0.00    +0.000 A 
ATOM      8  C   UNL     1       2.126   7.330  20.142  0.00  0.00    +0.000 A 
ATOM      9  S   UNL     1       1.187   8.620  20.749  0.00  0.00    +0.000 S 
ATOM     10  C   UNL     1       1.138   9.321  19.176  0.00  0.00    +0.000 A 
ATOM     11  N   UNL     1       1.786   8.641  18.245  0.00  0.00    +0.000 NA
BRANCH  10  12
ATOM     12  C   UNL     1       0.450  10.560  18.878  0.00  0.00    +0.000 A 
ATOM     13  C   UNL     1      -0.856  10.680  18.432  0.00  0.00    +0.000 A 
ATOM     14  C   UNL     1      -1.253  12.036  18.230  0.00  0.00    +0.000 A 
ATOM     15  C   UNL     1      -0.239  12.915  18.522  0.00  0.00    +0.000 A 
ATOM     16  S   UNL     1       1.176  12.110  19.037  0.00  0.00    +0.000 S 
ENDBRANCH  10  12
ENDBRANCH   4   7
BRANCH   1  18
ATOM     17  C   UNL     1       6.450   4.307  15.003  0.00  0.00    +0.000 C 
ATOM     18  O   UNL     1       5.571   3.786  16.000  0.00  0.00    +0.000 OA
ENDBRANCH   1  18
BRANCH   6  19
ATOM     19  O   UNL     1       3.057   2.998  17.325  0.00  0.00    +0.000 OA
ATOM     20  C   UNL     1       3.267   2.242  18.505  0.00  0.00    +0.000 C 
ENDBRANCH   6  19
TORSDOF 4
ENDMDL
MODEL 8
REMARK VINA RESULT:      -6.3      3.843      7.509
REMARK  Name = 
REMARK  6 active torsions:
REMARK  status: ('A' for Active; 'I' for Inactive)
REMARK    1  A    between atoms: C_1  and  O_2
REMARK    2  A    between atoms: O_2  and  C_3
REMARK    3  A    between atoms: C_6  and  C_7
REMARK    4  A    between atoms: C_10  and  C_11
REMARK    5  A    between atoms: C_18  and  O_19
REMARK    6  A    between atoms: O_19  and  C_20
REMARK                            x       y       z     vdW  Elec       q    Type
REMARK                         _______ _______ _______ _____ _____    ______ ____
ROOT
ATOM      1  C   UNL     1       0.298   9.882  19.638  0.00  0.00    +0.000 A 
ATOM      2  C   UNL     1       1.099   9.843  18.485  0.00  0.00    +0.000 A 
ATOM      3  C   UNL     1       2.001   8.792  18.269  0.00  0.00    +0.000 A 
ATOM      4  C   UNL     1       2.137   7.777  19.216  0.00  0.00    +0.000 A 
ATOM      5  C   UNL     1       1.406   7.876  20.406  0.00  0.00    +0.000 A 
ATOM      6  C   UNL     1       0.489   8.913  20.631  0.00  0.00    +0.000 A 
ENDROOT
BRANCH   4   7
ATOM      7  C   UNL     1       3.005   6.629  18.954  0.00  0.00    +0.000 A 
ATOM      8  C   UNL     1       3.111   5.555  19.814  0.00  0.00    +0.000 A 
ATOM      9  S   UNL     1       4.191   4.396  19.179  0.00  0.00    +0.000 S 
ATOM     10  C   UNL     1       4.430   5.384  17.789  0.00  0.00    +0.000 A 
ATOM     11  N   UNL     1       3.744   6.515  17.787  0.00  0.00    +0.000 NA
BRANCH  10  12
ATOM     12  C   UNL     1       5.306   5.020  16.694  0.00  0.00    +0.000 A 
ATOM     13  C   UNL     1       4.982   4.192  15.631  0.00  0.00    +0.000 A 
ATOM     14  C   UNL     1       6.057   4.026  14.707  0.00  0.00    +0.000 A 
ATOM     15  C   UNL     1       7.174   4.728  15.090  0.00  0.00    +0.000 A 
ATOM     16  S   UNL     1       6.925   5.579  16.549  0.00  0.00    +0.000 S 
ENDBRANCH  10  12
ENDBRANCH   4   7
BRANCH   1  18
ATOM     17  C   UNL     1      -1.715  10.890  18.894  0.00  0.00    +0.000 C 
ATOM     18  O   UNL     1      -0.632  10.869  19.823  0.00  0.00    +0.000 OA
ENDBRANCH   1  18
BRANCH   6  19
ATOM     19  O   UNL     1      -0.129   8.784  21.847  0.00  0.00    +0.000 OA
ATOM     20  C   UNL     1       0.368   9.511  22.958  0.00  0.00    +0.000 C 
ENDBRANCH   6  19
TORSDOF 4
ENDMDL
MODEL 9
REMARK VINA RESULT:      -6.2      3.343      4.438
REMARK  Name = 
REMARK  6 active torsions:
REMARK  status: ('A' for Active; 'I' for Inactive)
REMARK    1  A    between atoms: C_1  and  O_2
REMARK    2  A    between atoms: O_2  and  C_3
REMARK    3  A    between atoms: C_6  and  C_7
REMARK    4  A    between atoms: C_10  and  C_11
REMARK    5  A    between atoms: C_18  and  O_19
REMARK    6  A    between atoms: O_19  and  C_20
REMARK                            x       y       z     vdW  Elec       q    Type
REMARK                         _______ _______ _______ _____ _____    ______ ____
ROOT
ATOM      1  C   UNL     1       3.833   3.586  18.874  0.00  0.00    +0.000 A 
ATOM      2  C   UNL     1       4.619   4.675  19.286  0.00  0.00    +0.000 A 
ATOM      3  C   UNL     1       4.108   5.979  19.274  0.00  0.00    +0.000 A 
ATOM      4  C   UNL     1       2.809   6.221  18.824  0.00  0.00    +0.000 A 
ATOM      5  C   UNL     1       2.068   5.143  18.325  0.00  0.00    +0.000 A 
ATOM      6  C   UNL     1       2.560   3.830  18.343  0.00  0.00    +0.000 A 
ENDROOT
BRANCH   4   7
ATOM      7  C   UNL     1       2.236   7.565  18.898  0.00  0.00    +0.000 A 
ATOM      8  C   UNL     1       2.277   8.458  17.847  0.00  0.00    +0.000 A 
ATOM      9  S   UNL     1       1.494   9.912  18.279  0.00  0.00    +0.000 S 
ATOM     10  C   UNL     1       1.129   9.252  19.827  0.00  0.00    +0.000 A 
ATOM     11  N   UNL     1       1.559   8.017  20.020  0.00  0.00    +0.000 NA
BRANCH  10  12
ATOM     12  C   UNL     1       0.405   9.977  20.851  0.00  0.00    +0.000 A 
ATOM     13  C   UNL     1      -0.191  11.219  20.703  0.00  0.00    +0.000 A 
ATOM     14  C   UNL     1      -0.836  11.672  21.894  0.00  0.00    +0.000 A 
ATOM     15  C   UNL     1      -0.711  10.768  22.920  0.00  0.00    +0.000 A 
ATOM     16  S   UNL     1       0.173   9.386  22.449  0.00  0.00    +0.000 S 
ENDBRANCH  10  12
ENDBRANCH   4   7
BRANCH   1  18
ATOM     17  C   UNL     1       4.597   1.817  20.256  0.00  0.00    +0.000 C 
ATOM     18  O   UNL     1       4.303   2.303  18.947  0.00  0.00    +0.000 OA
ENDBRANCH   1  18
BRANCH   6  19
ATOM     19  O   UNL     1       1.647   2.944  17.835  0.00  0.00    +0.000 OA
ATOM     20  C   UNL     1       0.704   2.343  18.705  0.00  0.00    +0.000 C 
ENDBRANCH   6  19
TORSDOF 4
ENDMDL
