MODEL 1
REMARK VINA RESULT:      -9.1      0.000      0.000
REMARK  Name = 
REMARK  4 active torsions:
REMARK  status: ('A' for Active; 'I' for Inactive)
REMARK    1  A    between atoms: C_1  and  C_2
REMARK    2  A    between atoms: C_3  and  C_4
REMARK    3  A    between atoms: C_10  and  C_12
REMARK    4  A    between atoms: C_12  and  C_13
REMARK                            x       y       z     vdW  Elec       q    Type
REMARK                         _______ _______ _______ _____ _____    ______ ____
ROOT
ATOM      1  C   UNL     1       6.030  15.242  19.109  0.00  0.00    +0.000 C 
ATOM      2  C   UNL     1       4.995  14.552  18.160  0.00  0.00    +0.000 C 
ATOM      3  N   UNL     1       3.642  14.368  18.701  0.00  0.00    +0.000 NA
ATOM      4  C   UNL     1       2.853  13.391  17.931  0.00  0.00    +0.000 C 
ATOM      5  C   UNL     1       1.392  13.376  18.423  0.00  0.00    +0.000 C 
ATOM      6  N   UNL     1       1.329  13.148  19.871  0.00  0.00    +0.000 N 
ATOM      7  C   UNL     1       0.687  12.112  20.523  0.00  0.00    +0.000 C 
ATOM      8  O   UNL     1       0.694  12.009  21.751  0.00  0.00    +0.000 OA
ATOM      9  C   UNL     1       2.156  14.082  20.649  0.00  0.00    +0.000 C 
ATOM     10  C   UNL     1       3.616  14.026  20.146  0.00  0.00    +0.000 C 
ATOM     11  C   UNL     1       4.508  14.983  20.960  0.00  0.00    +0.000 C 
ATOM     12  N   UNL     1       5.916  14.874  20.542  0.00  0.00    +0.000 NA
ATOM     13  H   UNL     1       6.192  13.903  20.659  0.00  0.00    +0.000 HD
ENDROOT
BRANCH   1  16
ATOM     14  C   UNL     1       7.947  17.552  18.454  0.00  0.00    +0.000 C 
ATOM     15  C   UNL     1       8.312  16.105  18.273  0.00  0.00    +0.000 A 
ATOM     16  C   UNL     1       7.444  15.020  18.560  0.00  0.00    +0.000 A 
ATOM     17  C   UNL     1       7.880  13.694  18.271  0.00  0.00    +0.000 A 
ATOM     18  C   UNL     1       9.160  13.425  17.784  0.00  0.00    +0.000 A 
ATOM     19  C   UNL     1       9.992  14.500  17.579  0.00  0.00    +0.000 A 
ATOM     20  C   UNL     1       9.596  15.803  17.806  0.00  0.00    +0.000 A 
ATOM     21  C   UNL     1      10.725  16.701  17.475  0.00  0.00    +0.000 C 
ATOM     22  O   UNL     1      11.769  15.801  17.052  0.00  0.00    +0.000 OA
ATOM     23  C   UNL     1      11.367  14.494  17.098  0.00  0.00    +0.000 C 
ATOM     24  O   UNL     1      12.026  13.523  16.793  0.00  0.00    +0.000 OA
ENDBRANCH   1  16
BRANCH   7  25
ATOM     25  C   UNL     1      -0.056  11.075  19.694  0.00  0.00    +0.000 C 
BRANCH  25  26
ATOM     26  C   UNL     1       0.785   9.861  19.412  0.00  0.00    +0.000 A 
ATOM     27  C   UNL     1       1.324   9.650  18.141  0.00  0.00    +0.000 A 
ATOM     28  C   UNL     1       2.134   8.544  17.903  0.00  0.00    +0.000 A 
ATOM     29  C   UNL     1       2.361   7.656  18.950  0.00  0.00    +0.000 A 
ATOM     30  N   UNL     1       3.174   6.522  18.727  0.00  0.00    +0.000 N 
ATOM     31  C   UNL     1       3.507   5.546  19.624  0.00  0.00    +0.000 A 
ATOM     32  N   UNL     1       4.278   4.661  19.036  0.00  0.00    +0.000 NA
ATOM     33  N   UNL     1       4.423   5.097  17.743  0.00  0.00    +0.000 NA
ATOM     34  N   UNL     1       3.756   6.227  17.542  0.00  0.00    +0.000 NA
ATOM     35  N   UNL     1       1.836   7.828  20.199  0.00  0.00    +0.000 NA
ATOM     36  C   UNL     1       1.063   8.919  20.391  0.00  0.00    +0.000 A 
ENDBRANCH  25  26
ENDBRANCH   7  25
TORSDOF 3
ENDMDL
MODEL 2
REMARK VINA RESULT:      -8.9      0.619      1.036
REMARK  Name = 
REMARK  4 active torsions:
REMARK  status: ('A' for Active; 'I' for Inactive)
REMARK    1  A    between atoms: C_1  and  C_2
REMARK    2  A    between atoms: C_3  and  C_4
REMARK    3  A    between atoms: C_10  and  C_12
REMARK    4  A    between atoms: C_12  and  C_13
REMARK                            x       y       z     vdW  Elec       q    Type
REMARK                         _______ _______ _______ _____ _____    ______ ____
ROOT
ATOM      1  C   UNL     1       5.951  15.275  19.053  0.00  0.00    +0.000 C 
ATOM      2  C   UNL     1       4.929  14.527  18.135  0.00  0.00    +0.000 C 
ATOM      3  N   UNL     1       3.571  14.370  18.672  0.00  0.00    +0.000 NA
ATOM      4  C   UNL     1       2.793  13.346  17.953  0.00  0.00    +0.000 C 
ATOM      5  C   UNL     1       1.327  13.354  18.429  0.00  0.00    +0.000 C 
ATOM      6  N   UNL     1       1.249  13.212  19.888  0.00  0.00    +0.000 N 
ATOM      7  C   UNL     1       0.604  12.214  20.593  0.00  0.00    +0.000 C 
ATOM      8  O   UNL     1       0.598  12.184  21.825  0.00  0.00    +0.000 OA
ATOM      9  C   UNL     1       2.065  14.193  20.618  0.00  0.00    +0.000 C 
ATOM     10  C   UNL     1       3.531  14.113  20.134  0.00  0.00    +0.000 C 
ATOM     11  C   UNL     1       4.411  15.119  20.899  0.00  0.00    +0.000 C 
ATOM     12  N   UNL     1       5.824  14.992  20.503  0.00  0.00    +0.000 NA
ATOM     13  H   UNL     1       6.101  14.030  20.680  0.00  0.00    +0.000 HD
ENDROOT
BRANCH   1  16
ATOM     14  C   UNL     1       7.936  17.547  18.469  0.00  0.00    +0.000 C 
ATOM     15  C   UNL     1       8.271  16.094  18.278  0.00  0.00    +0.000 A 
ATOM     16  C   UNL     1       7.372  15.026  18.532  0.00  0.00    +0.000 A 
ATOM     17  C   UNL     1       7.783  13.694  18.236  0.00  0.00    +0.000 A 
ATOM     18  C   UNL     1       9.067  13.401  17.775  0.00  0.00    +0.000 A 
ATOM     19  C   UNL     1       9.929  14.458  17.602  0.00  0.00    +0.000 A 
ATOM     20  C   UNL     1       9.558  15.767  17.836  0.00  0.00    +0.000 A 
ATOM     21  C   UNL     1      10.715  16.642  17.541  0.00  0.00    +0.000 C 
ATOM     22  O   UNL     1      11.746  15.723  17.131  0.00  0.00    +0.000 OA
ATOM     23  C   UNL     1      11.314  14.425  17.151  0.00  0.00    +0.000 C 
ATOM     24  O   UNL     1      11.956  13.443  16.849  0.00  0.00    +0.000 OA
ENDBRANCH   1  16
BRANCH   7  25
ATOM     25  C   UNL     1      -0.127  11.127  19.819  0.00  0.00    +0.000 C 
BRANCH  25  26
ATOM     26  C   UNL     1       0.725   9.906  19.607  0.00  0.00    +0.000 A 
ATOM     27  C   UNL     1       0.916   8.986  20.640  0.00  0.00    +0.000 A 
ATOM     28  C   UNL     1       1.674   7.839  20.421  0.00  0.00    +0.000 A 
ATOM     29  C   UNL     1       2.246   7.658  19.165  0.00  0.00    +0.000 A 
ATOM     30  N   UNL     1       3.025   6.505  18.924  0.00  0.00    +0.000 N 
ATOM     31  C   UNL     1       3.662   6.158  17.766  0.00  0.00    +0.000 A 
ATOM     32  N   UNL     1       4.283   5.014  17.938  0.00  0.00    +0.000 NA
ATOM     33  N   UNL     1       4.029   4.647  19.236  0.00  0.00    +0.000 NA
ATOM     34  N   UNL     1       3.265   5.545  19.846  0.00  0.00    +0.000 NA
ATOM     35  N   UNL     1       2.088   8.548  18.140  0.00  0.00    +0.000 NA
ATOM     36  C   UNL     1       1.338   9.643  18.392  0.00  0.00    +0.000 A 
ENDBRANCH  25  26
ENDBRANCH   7  25
TORSDOF 3
ENDMDL
MODEL 3
REMARK VINA RESULT:      -8.1      1.105      1.477
REMARK  Name = 
REMARK  4 active torsions:
REMARK  status: ('A' for Active; 'I' for Inactive)
REMARK    1  A    between atoms: C_1  and  C_2
REMARK    2  A    between atoms: C_3  and  C_4
REMARK    3  A    between atoms: C_10  and  C_12
REMARK    4  A    between atoms: C_12  and  C_13
REMARK                            x       y       z     vdW  Elec       q    Type
REMARK                         _______ _______ _______ _____ _____    ______ ____
ROOT
ATOM      1  C   UNL     1       5.058  15.571  19.617  0.00  0.00    +0.000 C 
ATOM      2  C   UNL     1       4.135  14.779  18.633  0.00  0.00    +0.000 C 
ATOM      3  N   UNL     1       2.828  14.368  19.161  0.00  0.00    +0.000 NA
ATOM      4  C   UNL     1       2.192  13.320  18.343  0.00  0.00    +0.000 C 
ATOM      5  C   UNL     1       0.752  13.063  18.829  0.00  0.00    +0.000 C 
ATOM      6  N   UNL     1       0.729  12.761  20.265  0.00  0.00    +0.000 N 
ATOM      7  C   UNL     1       0.252  11.611  20.865  0.00  0.00    +0.000 C 
ATOM      8  O   UNL     1       0.280  11.453  22.088  0.00  0.00    +0.000 OA
ATOM      9  C   UNL     1       1.409  13.771  21.088  0.00  0.00    +0.000 C 
ATOM     10  C   UNL     1       2.859  13.959  20.588  0.00  0.00    +0.000 C 
ATOM     11  C   UNL     1       3.600  15.000  21.448  0.00  0.00    +0.000 C 
ATOM     12  N   UNL     1       5.007  15.124  21.030  0.00  0.00    +0.000 NA
ATOM     13  H   UNL     1       5.426  14.201  21.103  0.00  0.00    +0.000 HD
ENDROOT
BRANCH   1  16
ATOM     14  C   UNL     1       6.979  17.932  20.037  0.00  0.00    +0.000 C 
ATOM     15  C   UNL     1       7.357  16.691  19.278  0.00  0.00    +0.000 A 
ATOM     16  C   UNL     1       6.488  15.590  19.062  0.00  0.00    +0.000 A 
ATOM     17  C   UNL     1       6.938  14.504  18.257  0.00  0.00    +0.000 A 
ATOM     18  C   UNL     1       8.232  14.455  17.736  0.00  0.00    +0.000 A 
ATOM     19  C   UNL     1       9.064  15.512  18.021  0.00  0.00    +0.000 A 
ATOM     20  C   UNL     1       8.654  16.603  18.761  0.00  0.00    +0.000 A 
ATOM     21  C   UNL     1       9.787  17.550  18.865  0.00  0.00    +0.000 C 
ATOM     22  O   UNL     1      10.846  16.903  18.133  0.00  0.00    +0.000 OA
ATOM     23  C   UNL     1      10.451  15.700  17.618  0.00  0.00    +0.000 C 
ATOM     24  O   UNL     1      11.123  14.941  16.953  0.00  0.00    +0.000 OA
ENDBRANCH   1  16
BRANCH   7  25
ATOM     25  C   UNL     1      -0.329  10.513  19.986  0.00  0.00    +0.000 C 
BRANCH  25  26
ATOM     26  C   UNL     1       0.685   9.457  19.646  0.00  0.00    +0.000 A 
ATOM     27  C   UNL     1       1.046   8.491  20.588  0.00  0.00    +0.000 A 
ATOM     28  C   UNL     1       1.956   7.493  20.249  0.00  0.00    +0.000 A 
ATOM     29  C   UNL     1       2.504   7.509  18.969  0.00  0.00    +0.000 A 
ATOM     30  N   UNL     1       3.436   6.510  18.608  0.00  0.00    +0.000 N 
ATOM     31  C   UNL     1       4.076   6.363  17.410  0.00  0.00    +0.000 A 
ATOM     32  N   UNL     1       4.864   5.315  17.464  0.00  0.00    +0.000 NA
ATOM     33  N   UNL     1       4.713   4.804  18.728  0.00  0.00    +0.000 NA
ATOM     34  N   UNL     1       3.847   5.521  19.434  0.00  0.00    +0.000 NA
ATOM     35  N   UNL     1       2.181   8.449  18.033  0.00  0.00    +0.000 NA
ATOM     36  C   UNL     1       1.288   9.394  18.399  0.00  0.00    +0.000 A 
ENDBRANCH  25  26
ENDBRANCH   7  25
TORSDOF 3
ENDMDL
MODEL 4
REMARK VINA RESULT:      -8.1      4.177      8.683
REMARK  Name = 
REMARK  4 active torsions:
REMARK  status: ('A' for Active; 'I' for Inactive)
REMARK    1  A    between atoms: C_1  and  C_2
REMARK    2  A    between atoms: C_3  and  C_4
REMARK    3  A    between atoms: C_10  and  C_12
REMARK    4  A    between atoms: C_12  and  C_13
REMARK                            x       y       z     vdW  Elec       q    Type
REMARK                         _______ _______ _______ _____ _____    ______ ____
ROOT
ATOM      1  C   UNL     1       0.541  10.265  19.400  0.00  0.00    +0.000 C 
ATOM      2  C   UNL     1       1.407  11.310  20.179  0.00  0.00    +0.000 C 
ATOM      3  N   UNL     1       0.866  12.673  20.251  0.00  0.00    +0.000 NA
ATOM      4  C   UNL     1       1.883  13.665  20.643  0.00  0.00    +0.000 C 
ATOM      5  C   UNL     1       1.225  15.038  20.887  0.00  0.00    +0.000 C 
ATOM      6  N   UNL     1       0.437  15.456  19.721  0.00  0.00    +0.000 N 
ATOM      7  C   UNL     1       0.612  16.601  18.967  0.00  0.00    +0.000 C 
ATOM      8  O   UNL     1      -0.108  16.861  18.000  0.00  0.00    +0.000 OA
ATOM      9  C   UNL     1      -0.544  14.452  19.285  0.00  0.00    +0.000 C 
ATOM     10  C   UNL     1       0.171  13.109  19.014  0.00  0.00    +0.000 C 
ATOM     11  C   UNL     1      -0.834  12.045  18.536  0.00  0.00    +0.000 C 
ATOM     12  N   UNL     1      -0.148  10.787  18.195  0.00  0.00    +0.000 NA
ATOM     13  H   UNL     1       0.545  11.004  17.484  0.00  0.00    +0.000 HD
ENDROOT
BRANCH   1  16
ATOM     14  C   UNL     1       0.901   7.951  21.391  0.00  0.00    +0.000 C 
ATOM     15  C   UNL     1       1.539   7.971  20.030  0.00  0.00    +0.000 A 
ATOM     16  C   UNL     1       1.396   9.029  19.095  0.00  0.00    +0.000 A 
ATOM     17  C   UNL     1       2.116   8.965  17.867  0.00  0.00    +0.000 A 
ATOM     18  C   UNL     1       2.899   7.862  17.524  0.00  0.00    +0.000 A 
ATOM     19  C   UNL     1       2.960   6.829  18.430  0.00  0.00    +0.000 A 
ATOM     20  C   UNL     1       2.312   6.869  19.648  0.00  0.00    +0.000 A 
ATOM     21  C   UNL     1       2.599   5.610  20.372  0.00  0.00    +0.000 C 
ATOM     22  O   UNL     1       3.448   4.877  19.467  0.00  0.00    +0.000 OA
ATOM     23  C   UNL     1       3.684   5.571  18.312  0.00  0.00    +0.000 C 
ATOM     24  O   UNL     1       4.366   5.210  17.377  0.00  0.00    +0.000 OA
ENDBRANCH   1  16
BRANCH   7  25
ATOM     25  C   UNL     1       1.721  17.568  19.351  0.00  0.00    +0.000 C 
BRANCH  25  26
ATOM     26  C   UNL     1       3.087  16.959  19.203  0.00  0.00    +0.000 A 
ATOM     27  C   UNL     1       4.083  17.210  20.149  0.00  0.00    +0.000 A 
ATOM     28  C   UNL     1       5.332  16.608  20.023  0.00  0.00    +0.000 A 
ATOM     29  C   UNL     1       5.557  15.782  18.925  0.00  0.00    +0.000 A 
ATOM     30  N   UNL     1       6.820  15.168  18.775  0.00  0.00    +0.000 N 
ATOM     31  C   UNL     1       7.225  14.333  17.771  0.00  0.00    +0.000 A 
ATOM     32  N   UNL     1       8.469  13.971  17.984  0.00  0.00    +0.000 NA
ATOM     33  N   UNL     1       8.844  14.600  19.144  0.00  0.00    +0.000 NA
ATOM     34  N   UNL     1       7.851  15.331  19.635  0.00  0.00    +0.000 NA
ATOM     35  N   UNL     1       4.607  15.529  17.977  0.00  0.00    +0.000 NA
ATOM     36  C   UNL     1       3.406  16.126  18.141  0.00  0.00    +0.000 A 
ENDBRANCH  25  26
ENDBRANCH   7  25
TORSDOF 3
ENDMDL
MODEL 5
REMARK VINA RESULT:      -8.0      4.307      8.741
REMARK  Name = 
REMARK  4 active torsions:
REMARK  status: ('A' for Active; 'I' for Inactive)
REMARK    1  A    between atoms: C_1  and  C_2
REMARK    2  A    between atoms: C_3  and  C_4
REMARK    3  A    between atoms: C_10  and  C_12
REMARK    4  A    between atoms: C_12  and  C_13
REMARK                            x       y       z     vdW  Elec       q    Type
REMARK                         _______ _______ _______ _____ _____    ______ ____
ROOT
ATOM      1  C   UNL     1       0.360  10.398  19.400  0.00  0.00    +0.000 C 
ATOM      2  C   UNL     1       1.225  11.457  20.161  0.00  0.00    +0.000 C 
ATOM      3  N   UNL     1       0.665  12.812  20.243  0.00  0.00    +0.000 NA
ATOM      4  C   UNL     1       1.674  13.819  20.614  0.00  0.00    +0.000 C 
ATOM      5  C   UNL     1       1.000  15.182  20.870  0.00  0.00    +0.000 C 
ATOM      6  N   UNL     1       0.183  15.587  19.720  0.00  0.00    +0.000 N 
ATOM      7  C   UNL     1       0.325  16.734  18.962  0.00  0.00    +0.000 C 
ATOM      8  O   UNL     1      -0.418  16.982  18.009  0.00  0.00    +0.000 OA
ATOM      9  C   UNL     1      -0.792  14.568  19.304  0.00  0.00    +0.000 C 
ATOM     10  C   UNL     1      -0.061  13.236  19.019  0.00  0.00    +0.000 C 
ATOM     11  C   UNL     1      -1.059  12.156  18.562  0.00  0.00    +0.000 C 
ATOM     12  N   UNL     1      -0.360  10.908  18.208  0.00  0.00    +0.000 NA
ATOM     13  H   UNL     1       0.315  11.135  17.483  0.00  0.00    +0.000 HD
ENDROOT
BRANCH   1  16
ATOM     14  C   UNL     1       0.844   8.121  21.407  0.00  0.00    +0.000 C 
ATOM     15  C   UNL     1       1.428   8.134  20.021  0.00  0.00    +0.000 A 
ATOM     16  C   UNL     1       1.228   9.175  19.079  0.00  0.00    +0.000 A 
ATOM     17  C   UNL     1       1.902   9.108  17.825  0.00  0.00    +0.000 A 
ATOM     18  C   UNL     1       2.693   8.016  17.467  0.00  0.00    +0.000 A 
ATOM     19  C   UNL     1       2.810   6.998  18.383  0.00  0.00    +0.000 A 
ATOM     20  C   UNL     1       2.209   7.042  19.625  0.00  0.00    +0.000 A 
ATOM     21  C   UNL     1       2.549   5.800  20.355  0.00  0.00    +0.000 C 
ATOM     22  O   UNL     1       3.377   5.071  19.427  0.00  0.00    +0.000 OA
ATOM     23  C   UNL     1       3.555   5.753  18.255  0.00  0.00    +0.000 C 
ATOM     24  O   UNL     1       4.207   5.392  17.299  0.00  0.00    +0.000 OA
ENDBRANCH   1  16
BRANCH   7  25
ATOM     25  C   UNL     1       1.426  17.719  19.323  0.00  0.00    +0.000 C 
BRANCH  25  26
ATOM     26  C   UNL     1       2.798  17.133  19.141  0.00  0.00    +0.000 A 
ATOM     27  C   UNL     1       3.102  16.376  18.007  0.00  0.00    +0.000 A 
ATOM     28  C   UNL     1       4.387  15.872  17.829  0.00  0.00    +0.000 A 
ATOM     29  C   UNL     1       5.335  16.122  18.816  0.00  0.00    +0.000 A 
ATOM     30  N   UNL     1       6.643  15.613  18.659  0.00  0.00    +0.000 N 
ATOM     31  C   UNL     1       7.700  15.752  19.514  0.00  0.00    +0.000 A 
ATOM     32  N   UNL     1       8.746  15.135  19.016  0.00  0.00    +0.000 NA
ATOM     33  N   UNL     1       8.326  14.596  17.827  0.00  0.00    +0.000 NA
ATOM     34  N   UNL     1       7.049  14.879  17.597  0.00  0.00    +0.000 NA
ATOM     35  N   UNL     1       5.064  16.846  19.942  0.00  0.00    +0.000 NA
ATOM     36  C   UNL     1       3.807  17.325  20.072  0.00  0.00    +0.000 A 
ENDBRANCH  25  26
ENDBRANCH   7  25
TORSDOF 3
ENDMDL
MODEL 6
REMARK VINA RESULT:      -7.9      1.359      1.590
REMARK  Name = 
REMARK  4 active torsions:
REMARK  status: ('A' for Active; 'I' for Inactive)
REMARK    1  A    between atoms: C_1  and  C_2
REMARK    2  A    between atoms: C_3  and  C_4
REMARK    3  A    between atoms: C_10  and  C_12
REMARK    4  A    between atoms: C_12  and  C_13
REMARK                            x       y       z     vdW  Elec       q    Type
REMARK                         _______ _______ _______ _____ _____    ______ ____
ROOT
ATOM      1  C   UNL     1       5.799  15.360  20.501  0.00  0.00    +0.000 C 
ATOM      2  C   UNL     1       4.958  14.738  19.337  0.00  0.00    +0.000 C 
ATOM      3  N   UNL     1       3.537  14.499  19.622  0.00  0.00    +0.000 NA
ATOM      4  C   UNL     1       2.914  13.578  18.655  0.00  0.00    +0.000 C 
ATOM      5  C   UNL     1       1.391  13.511  18.885  0.00  0.00    +0.000 C 
ATOM      6  N   UNL     1       1.086  13.169  20.279  0.00  0.00    +0.000 N 
ATOM      7  C   UNL     1       0.366  12.079  20.730  0.00  0.00    +0.000 C 
ATOM      8  O   UNL     1       0.165  11.881  21.930  0.00  0.00    +0.000 OA
ATOM      9  C   UNL     1       1.746  14.047  21.257  0.00  0.00    +0.000 C 
ATOM     10  C   UNL     1       3.272  14.045  21.010  0.00  0.00    +0.000 C 
ATOM     11  C   UNL     1       3.989  14.942  22.036  0.00  0.00    +0.000 C 
ATOM     12  N   UNL     1       5.450  14.880  21.860  0.00  0.00    +0.000 NA
ATOM     13  H   UNL     1       5.724  13.905  21.949  0.00  0.00    +0.000 HD
ENDROOT
BRANCH   1  16
ATOM     14  C   UNL     1       7.344  17.285  18.669  0.00  0.00    +0.000 C 
ATOM     15  C   UNL     1       7.982  16.103  19.345  0.00  0.00    +0.000 A 
ATOM     16  C   UNL     1       7.292  15.195  20.189  0.00  0.00    +0.000 A 
ATOM     17  C   UNL     1       7.992  14.068  20.707  0.00  0.00    +0.000 A 
ATOM     18  C   UNL     1       9.353  13.869  20.472  0.00  0.00    +0.000 A 
ATOM     19  C   UNL     1      10.000  14.806  19.702  0.00  0.00    +0.000 A 
ATOM     20  C   UNL     1       9.351  15.890  19.146  0.00  0.00    +0.000 A 
ATOM     21  C   UNL     1      10.336  16.682  18.375  0.00  0.00    +0.000 C 
ATOM     22  O   UNL     1      11.570  15.959  18.548  0.00  0.00    +0.000 OA
ATOM     23  C   UNL     1      11.406  14.844  19.323  0.00  0.00    +0.000 C 
ATOM     24  O   UNL     1      12.263  14.043  19.629  0.00  0.00    +0.000 OA
ENDBRANCH   1  16
BRANCH   7  25
ATOM     25  C   UNL     1      -0.200  11.104  19.709  0.00  0.00    +0.000 C 
BRANCH  25  26
ATOM     26  C   UNL     1       0.700   9.920  19.492  0.00  0.00    +0.000 A 
ATOM     27  C   UNL     1       0.914   8.994  20.515  0.00  0.00    +0.000 A 
ATOM     28  C   UNL     1       1.718   7.879  20.289  0.00  0.00    +0.000 A 
ATOM     29  C   UNL     1       2.310   7.737  19.038  0.00  0.00    +0.000 A 
ATOM     30  N   UNL     1       3.136   6.618  18.791  0.00  0.00    +0.000 N 
ATOM     31  C   UNL     1       3.799   6.311  17.636  0.00  0.00    +0.000 A 
ATOM     32  N   UNL     1       4.461   5.189  17.801  0.00  0.00    +0.000 NA
ATOM     33  N   UNL     1       4.207   4.795  19.090  0.00  0.00    +0.000 NA
ATOM     34  N   UNL     1       3.402   5.655  19.703  0.00  0.00    +0.000 NA
ATOM     35  N   UNL     1       2.131   8.634  18.023  0.00  0.00    +0.000 NA
ATOM     36  C   UNL     1       1.337   9.696  18.281  0.00  0.00    +0.000 A 
ENDBRANCH  25  26
ENDBRANCH   7  25
TORSDOF 3
ENDMDL
MODEL 7
REMARK VINA RESULT:      -7.8      4.792      9.206
REMARK  Name = 
REMARK  4 active torsions:
REMARK  status: ('A' for Active; 'I' for Inactive)
REMARK    1  A    between atoms: C_1  and  C_2
REMARK    2  A    between atoms: C_3  and  C_4
REMARK    3  A    between atoms: C_10  and  C_12
REMARK    4  A    between atoms: C_12  and  C_13
REMARK                            x       y       z     vdW  Elec       q    Type
REMARK                         _______ _______ _______ _____ _____    ______ ____
ROOT
ATOM      1  C   UNL     1       0.856   8.464  20.019  0.00  0.00    +0.000 C 
ATOM      2  C   UNL     1       1.844   8.483  18.806  0.00  0.00    +0.000 C 
ATOM      3  N   UNL     1       2.474   7.202  18.464  0.00  0.00    +0.000 NA
ATOM      4  C   UNL     1       3.653   7.366  17.594  0.00  0.00    +0.000 C 
ATOM      5  C   UNL     1       4.160   5.991  17.115  0.00  0.00    +0.000 C 
ATOM      6  N   UNL     1       4.408   5.098  18.253  0.00  0.00    +0.000 N 
ATOM      7  C   UNL     1       5.605   4.495  18.591  0.00  0.00    +0.000 C 
ATOM      8  O   UNL     1       5.710   3.758  19.574  0.00  0.00    +0.000 OA
ATOM      9  C   UNL     1       3.258   4.968  19.159  0.00  0.00    +0.000 C 
ATOM     10  C   UNL     1       2.818   6.369  19.644  0.00  0.00    +0.000 C 
ATOM     11  C   UNL     1       1.625   6.258  20.612  0.00  0.00    +0.000 C 
ATOM     12  N   UNL     1       1.253   7.581  21.143  0.00  0.00    +0.000 NA
ATOM     13  H   UNL     1       2.077   7.967  21.595  0.00  0.00    +0.000 HD
ENDROOT
BRANCH   1  16
ATOM     14  C   UNL     1      -0.839   9.143  22.490  0.00  0.00    +0.000 C 
ATOM     15  C   UNL     1      -0.193  10.189  21.624  0.00  0.00    +0.000 A 
ATOM     16  C   UNL     1       0.587   9.903  20.474  0.00  0.00    +0.000 A 
ATOM     17  C   UNL     1       1.080  10.986  19.690  0.00  0.00    +0.000 A 
ATOM     18  C   UNL     1       0.883  12.317  20.058  0.00  0.00    +0.000 A 
ATOM     19  C   UNL     1       0.175  12.551  21.214  0.00  0.00    +0.000 A 
ATOM     20  C   UNL     1      -0.356  11.532  21.980  0.00  0.00    +0.000 A 
ATOM     21  C   UNL     1      -1.059  12.133  23.136  0.00  0.00    +0.000 C 
ATOM     22  O   UNL     1      -0.876  13.551  22.952  0.00  0.00    +0.000 OA
ATOM     23  C   UNL     1      -0.155  13.831  21.824  0.00  0.00    +0.000 C 
ATOM     24  O   UNL     1       0.146  14.931  21.412  0.00  0.00    +0.000 OA
ENDBRANCH   1  16
BRANCH   7  25
ATOM     25  C   UNL     1       6.823   4.746  17.715  0.00  0.00    +0.000 C 
BRANCH  25  26
ATOM     26  C   UNL     1       7.395   6.122  17.914  0.00  0.00    +0.000 A 
ATOM     27  C   UNL     1       7.171   7.126  16.970  0.00  0.00    +0.000 A 
ATOM     28  C   UNL     1       7.672   8.408  17.183  0.00  0.00    +0.000 A 
ATOM     29  C   UNL     1       8.413   8.641  18.338  0.00  0.00    +0.000 A 
ATOM     30  N   UNL     1       8.937   9.933  18.570  0.00  0.00    +0.000 N 
ATOM     31  C   UNL     1       9.683  10.349  19.636  0.00  0.00    +0.000 A 
ATOM     32  N   UNL     1       9.980  11.619  19.488  0.00  0.00    +0.000 NA
ATOM     33  N   UNL     1       9.409  11.997  18.299  0.00  0.00    +0.000 NA
ATOM     34  N   UNL     1       8.771  10.980  17.731  0.00  0.00    +0.000 NA
ATOM     35  N   UNL     1       8.660   7.675  19.272  0.00  0.00    +0.000 NA
ATOM     36  C   UNL     1       8.149   6.448  19.031  0.00  0.00    +0.000 A 
ENDBRANCH  25  26
ENDBRANCH   7  25
TORSDOF 3
ENDMDL
MODEL 8
REMARK VINA RESULT:      -7.8      1.047      1.512
REMARK  Name = 
REMARK  4 active torsions:
REMARK  status: ('A' for Active; 'I' for Inactive)
REMARK    1  A    between atoms: C_1  and  C_2
REMARK    2  A    between atoms: C_3  and  C_4
REMARK    3  A    between atoms: C_10  and  C_12
REMARK    4  A    between atoms: C_12  and  C_13
REMARK                            x       y       z     vdW  Elec       q    Type
REMARK                         _______ _______ _______ _____ _____    ______ ____
ROOT
ATOM      1  C   UNL     1       5.720  15.415  19.883  0.00  0.00    +0.000 C 
ATOM      2  C   UNL     1       4.785  14.772  18.806  0.00  0.00    +0.000 C 
ATOM      3  N   UNL     1       3.417  14.460  19.240  0.00  0.00    +0.000 NA
ATOM      4  C   UNL     1       2.733  13.527  18.327  0.00  0.00    +0.000 C 
ATOM      5  C   UNL     1       1.250  13.382  18.722  0.00  0.00    +0.000 C 
ATOM      6  N   UNL     1       1.118  13.003  20.134  0.00  0.00    +0.000 N 
ATOM      7  C   UNL     1       0.503  11.872  20.636  0.00  0.00    +0.000 C 
ATOM      8  O   UNL     1       0.446  11.644  21.847  0.00  0.00    +0.000 OA
ATOM      9  C   UNL     1       1.841  13.895  21.052  0.00  0.00    +0.000 C 
ATOM     10  C   UNL     1       3.328  13.970  20.639  0.00  0.00    +0.000 C 
ATOM     11  C   UNL     1       4.113  14.884  21.599  0.00  0.00    +0.000 C 
ATOM     12  N   UNL     1       5.547  14.896  21.262  0.00  0.00    +0.000 NA
ATOM     13  H   UNL     1       5.873  13.934  21.299  0.00  0.00    +0.000 HD
ENDROOT
BRANCH   1  16
ATOM     14  C   UNL     1       7.868  13.787  21.361  0.00  0.00    +0.000 C 
ATOM     15  C   UNL     1       8.145  14.562  20.102  0.00  0.00    +0.000 A 
ATOM     16  C   UNL     1       7.175  15.327  19.405  0.00  0.00    +0.000 A 
ATOM     17  C   UNL     1       7.581  16.082  18.267  0.00  0.00    +0.000 A 
ATOM     18  C   UNL     1       8.885  16.034  17.773  0.00  0.00    +0.000 A 
ATOM     19  C   UNL     1       9.779  15.230  18.440  0.00  0.00    +0.000 A 
ATOM     20  C   UNL     1       9.438  14.516  19.571  0.00  0.00    +0.000 A 
ATOM     21  C   UNL     1      10.632  13.774  20.035  0.00  0.00    +0.000 C 
ATOM     22  O   UNL     1      11.651  14.130  19.079  0.00  0.00    +0.000 OA
ATOM     23  C   UNL     1      11.182  14.992  18.127  0.00  0.00    +0.000 C 
ATOM     24  O   UNL     1      11.812  15.466  17.207  0.00  0.00    +0.000 OA
ENDBRANCH   1  16
BRANCH   7  25
ATOM     25  C   UNL     1      -0.128  10.888  19.663  0.00  0.00    +0.000 C 
BRANCH  25  26
ATOM     26  C   UNL     1       0.773   9.721  19.369  0.00  0.00    +0.000 A 
ATOM     27  C   UNL     1       1.330   9.556  18.098  0.00  0.00    +0.000 A 
ATOM     28  C   UNL     1       2.194   8.494  17.848  0.00  0.00    +0.000 A 
ATOM     29  C   UNL     1       2.459   7.602  18.884  0.00  0.00    +0.000 A 
ATOM     30  N   UNL     1       3.327   6.513  18.648  0.00  0.00    +0.000 N 
ATOM     31  C   UNL     1       3.702   5.541  19.533  0.00  0.00    +0.000 A 
ATOM     32  N   UNL     1       4.519   4.704  18.937  0.00  0.00    +0.000 NA
ATOM     33  N   UNL     1       4.649   5.166  17.651  0.00  0.00    +0.000 NA
ATOM     34  N   UNL     1       3.930   6.266  17.463  0.00  0.00    +0.000 NA
ATOM     35  N   UNL     1       1.918   7.729  20.131  0.00  0.00    +0.000 NA
ATOM     36  C   UNL     1       1.091   8.778  20.335  0.00  0.00    +0.000 A 
ENDBRANCH  25  26
ENDBRANCH   7  25
TORSDOF 3
ENDMDL
MODEL 9
REMARK VINA RESULT:      -7.8      3.821      9.073
REMARK  Name = 
REMARK  4 active torsions:
REMARK  status: ('A' for Active; 'I' for Inactive)
REMARK    1  A    between atoms: C_1  and  C_2
REMARK    2  A    between atoms: C_3  and  C_4
REMARK    3  A    between atoms: C_10  and  C_12
REMARK    4  A    between atoms: C_12  and  C_13
REMARK                            x       y       z     vdW  Elec       q    Type
REMARK                         _______ _______ _______ _____ _____    ______ ____
ROOT
ATOM      1  C   UNL     1       1.320   8.242  18.779  0.00  0.00    +0.000 C 
ATOM      2  C   UNL     1       1.551   9.134  20.043  0.00  0.00    +0.000 C 
ATOM      3  N   UNL     1       0.681  10.310  20.172  0.00  0.00    +0.000 NA
ATOM      4  C   UNL     1       1.197  11.291  21.144  0.00  0.00    +0.000 C 
ATOM      5  C   UNL     1       0.161  12.407  21.379  0.00  0.00    +0.000 C 
ATOM      6  N   UNL     1      -0.248  13.019  20.110  0.00  0.00    +0.000 N 
ATOM      7  C   UNL     1      -0.128  14.348  19.751  0.00  0.00    +0.000 C 
ATOM      8  O   UNL     1      -0.504  14.765  18.653  0.00  0.00    +0.000 OA
ATOM      9  C   UNL     1      -0.714  12.046  19.111  0.00  0.00    +0.000 C 
ATOM     10  C   UNL     1       0.377  10.976  18.880  0.00  0.00    +0.000 C 
ATOM     11  C   UNL     1      -0.079   9.954  17.822  0.00  0.00    +0.000 C 
ATOM     12  N   UNL     1       0.987   8.980  17.535  0.00  0.00    +0.000 NA
ATOM     13  H   UNL     1       1.802   9.505  17.232  0.00  0.00    +0.000 HD
ENDROOT
BRANCH   1  16
ATOM     14  C   UNL     1       1.714   5.691  20.448  0.00  0.00    +0.000 C 
ATOM     15  C   UNL     1       2.674   6.129  19.376  0.00  0.00    +0.000 A 
ATOM     16  C   UNL     1       2.520   7.304  18.597  0.00  0.00    +0.000 A 
ATOM     17  C   UNL     1       3.542   7.651  17.666  0.00  0.00    +0.000 A 
ATOM     18  C   UNL     1       4.650   6.833  17.443  0.00  0.00    +0.000 A 
ATOM     19  C   UNL     1       4.729   5.671  18.173  0.00  0.00    +0.000 A 
ATOM     20  C   UNL     1       3.784   5.318  19.116  0.00  0.00    +0.000 A 
ATOM     21  C   UNL     1       4.181   4.025  19.716  0.00  0.00    +0.000 C 
ATOM     22  O   UNL     1       5.408   3.692  19.037  0.00  0.00    +0.000 OA
ATOM     23  C   UNL     1       5.762   4.646  18.123  0.00  0.00    +0.000 C 
ATOM     24  O   UNL     1       6.746   4.639  17.414  0.00  0.00    +0.000 OA
ENDBRANCH   1  16
BRANCH   7  25
ATOM     25  C   UNL     1       0.480  15.323  20.748  0.00  0.00    +0.000 C 
BRANCH  25  26
ATOM     26  C   UNL     1       1.861  15.761  20.348  0.00  0.00    +0.000 A 
ATOM     27  C   UNL     1       2.295  17.064  20.604  0.00  0.00    +0.000 A 
ATOM     28  C   UNL     1       3.590  17.446  20.265  0.00  0.00    +0.000 A 
ATOM     29  C   UNL     1       4.414  16.508  19.650  0.00  0.00    +0.000 A 
ATOM     30  N   UNL     1       5.729  16.879  19.291  0.00  0.00    +0.000 N 
ATOM     31  C   UNL     1       6.676  16.104  18.683  0.00  0.00    +0.000 A 
ATOM     32  N   UNL     1       7.772  16.807  18.516  0.00  0.00    +0.000 NA
ATOM     33  N   UNL     1       7.495  18.050  19.028  0.00  0.00    +0.000 NA
ATOM     34  N   UNL     1       6.256  18.107  19.502  0.00  0.00    +0.000 NA
ATOM     35  N   UNL     1       4.013  15.232  19.374  0.00  0.00    +0.000 NA
ATOM     36  C   UNL     1       2.752  14.899  19.727  0.00  0.00    +0.000 A 
ENDBRANCH  25  26
ENDBRANCH   7  25
TORSDOF 3
ENDMDL
