MODEL 1
REMARK VINA RESULT:      -5.8      0.000      0.000
REMARK  Name = 
REMARK  4 active torsions:
REMARK  status: ('A' for Active; 'I' for Inactive)
REMARK    1  A    between atoms: C_2  and  O_3
REMARK    2  A    between atoms: C_2  and  C_4
REMARK    3  A    between atoms: C_4  and  C_5
REMARK    4  A    between atoms: C_8  and  C_9
REMARK                            x       y       z     vdW  Elec       q    Type
REMARK                         _______ _______ _______ _____ _____    ______ ____
ROOT
ATOM      1  C   UNL     1       2.822   4.392  18.879  0.00  0.00    +0.000 A 
ATOM      2  C   UNL     1       3.688   4.883  19.837  0.00  0.00    +0.000 A 
ATOM      3  S   UNL     1       5.179   5.311  19.121  0.00  0.00    +0.000 S 
ATOM      4  C   UNL     1       4.603   4.774  17.588  0.00  0.00    +0.000 A 
ATOM      5  N   UNL     1       3.342   4.379  17.590  0.00  0.00    +0.000 NA
ENDROOT
BRANCH   4   6
ATOM      6  C   UNL     1       5.417   4.720  16.390  0.00  0.00    +0.000 A 
ATOM      7  C   UNL     1       5.059   4.136  15.184  0.00  0.00    +0.000 A 
ATOM      8  C   UNL     1       6.101   4.201  14.225  0.00  0.00    +0.000 A 
ATOM      9 BR   UNL     1       5.923   3.468  12.497  0.00  0.00    +0.000 Br
ATOM     10  C   UNL     1       7.225   4.832  14.689  0.00  0.00    +0.000 A 
ATOM     11  S   UNL     1       7.015   5.360  16.300  0.00  0.00    +0.000 S 
ENDBRANCH   4   6
BRANCH   1  12
ATOM     12  C   UNL     1       1.443   3.858  19.101  0.00  0.00    +0.000 C 
BRANCH  12  14
ATOM     13  O   UNL     1       0.143   1.975  18.358  0.00  0.00    +0.000 OA
ATOM     14  C   UNL     1       1.245   2.437  18.634  0.00  0.00    +0.000 C 
BRANCH  14  15
ATOM     15  O   UNL     1       2.357   1.669  18.604  0.00  0.00    +0.000 OA
ATOM     16  H   UNL     1       2.498   1.193  17.761  0.00  0.00    +0.000 HD
ENDBRANCH  14  15
ENDBRANCH  12  14
ENDBRANCH   1  12
TORSDOF 4
ENDMDL
MODEL 2
REMARK VINA RESULT:      -5.8      1.485      1.644
REMARK  Name = 
REMARK  4 active torsions:
REMARK  status: ('A' for Active; 'I' for Inactive)
REMARK    1  A    between atoms: C_2  and  O_3
REMARK    2  A    between atoms: C_2  and  C_4
REMARK    3  A    between atoms: C_4  and  C_5
REMARK    4  A    between atoms: C_8  and  C_9
REMARK                            x       y       z     vdW  Elec       q    Type
REMARK                         _______ _______ _______ _____ _____    ______ ____
ROOT
ATOM      1  C   UNL     1       3.288   3.611  19.391  0.00  0.00    +0.000 A 
ATOM      2  C   UNL     1       3.284   4.917  19.842  0.00  0.00    +0.000 A 
ATOM      3  S   UNL     1       4.132   5.921  18.749  0.00  0.00    +0.000 S 
ATOM      4  C   UNL     1       4.495   4.554  17.766  0.00  0.00    +0.000 A 
ATOM      5  N   UNL     1       3.943   3.426  18.179  0.00  0.00    +0.000 NA
ENDROOT
BRANCH   4   6
ATOM      6  C   UNL     1       5.353   4.600  16.598  0.00  0.00    +0.000 A 
ATOM      7  C   UNL     1       5.075   4.044  15.358  0.00  0.00    +0.000 A 
ATOM      8  C   UNL     1       6.145   4.213  14.442  0.00  0.00    +0.000 A 
ATOM      9 BR   UNL     1       6.075   3.542  12.682  0.00  0.00    +0.000 Br
ATOM     10  C   UNL     1       7.209   4.894  14.972  0.00  0.00    +0.000 A 
ATOM     11  S   UNL     1       6.908   5.341  16.594  0.00  0.00    +0.000 S 
ENDBRANCH   4   6
BRANCH   1  12
ATOM     12  C   UNL     1       2.706   2.419  20.081  0.00  0.00    +0.000 C 
BRANCH  12  14
ATOM     13  O   UNL     1       1.516   2.606  22.163  0.00  0.00    +0.000 OA
ATOM     14  C   UNL     1       1.506   2.727  20.943  0.00  0.00    +0.000 C 
BRANCH  14  15
ATOM     15  O   UNL     1       0.382   3.080  20.281  0.00  0.00    +0.000 OA
ATOM     16  H   UNL     1      -0.321   2.399  20.284  0.00  0.00    +0.000 HD
ENDBRANCH  14  15
ENDBRANCH  12  14
ENDBRANCH   1  12
TORSDOF 4
ENDMDL
MODEL 3
REMARK VINA RESULT:      -5.5      4.760      6.478
REMARK  Name = 
REMARK  4 active torsions:
REMARK  status: ('A' for Active; 'I' for Inactive)
REMARK    1  A    between atoms: C_2  and  O_3
REMARK    2  A    between atoms: C_2  and  C_4
REMARK    3  A    between atoms: C_4  and  C_5
REMARK    4  A    between atoms: C_8  and  C_9
REMARK                            x       y       z     vdW  Elec       q    Type
REMARK                         _______ _______ _______ _____ _____    ______ ____
ROOT
ATOM      1  C   UNL     1       6.937   5.568  17.966  0.00  0.00    +0.000 A 
ATOM      2  C   UNL     1       7.029   5.070  16.680  0.00  0.00    +0.000 A 
ATOM      3  S   UNL     1       5.645   4.141  16.306  0.00  0.00    +0.000 S 
ATOM      4  C   UNL     1       5.026   4.415  17.891  0.00  0.00    +0.000 A 
ATOM      5  N   UNL     1       5.765   5.225  18.629  0.00  0.00    +0.000 NA
ENDROOT
BRANCH   4   6
ATOM      6  C   UNL     1       3.820   3.801  18.407  0.00  0.00    +0.000 A 
ATOM      7  C   UNL     1       3.450   3.720  19.742  0.00  0.00    +0.000 A 
ATOM      8  C   UNL     1       2.239   3.005  19.921  0.00  0.00    +0.000 A 
ATOM      9 BR   UNL     1       1.493   2.705  21.627  0.00  0.00    +0.000 Br
ATOM     10  C   UNL     1       1.692   2.561  18.746  0.00  0.00    +0.000 A 
ATOM     11  S   UNL     1       2.651   3.022  17.408  0.00  0.00    +0.000 S 
ENDBRANCH   4   6
BRANCH   1  12
ATOM     12  C   UNL     1       7.961   6.381  18.692  0.00  0.00    +0.000 C 
BRANCH  12  14
ATOM     13  O   UNL     1       7.557   8.204  17.176  0.00  0.00    +0.000 OA
ATOM     14  C   UNL     1       8.069   7.809  18.218  0.00  0.00    +0.000 C 
BRANCH  14  15
ATOM     15  O   UNL     1       8.832   8.624  18.979  0.00  0.00    +0.000 OA
ATOM     16  H   UNL     1       9.730   8.283  19.164  0.00  0.00    +0.000 HD
ENDBRANCH  14  15
ENDBRANCH  12  14
ENDBRANCH   1  12
TORSDOF 4
ENDMDL
MODEL 4
REMARK VINA RESULT:      -5.5      1.821      2.240
REMARK  Name = 
REMARK  4 active torsions:
REMARK  status: ('A' for Active; 'I' for Inactive)
REMARK    1  A    between atoms: C_2  and  O_3
REMARK    2  A    between atoms: C_2  and  C_4
REMARK    3  A    between atoms: C_4  and  C_5
REMARK    4  A    between atoms: C_8  and  C_9
REMARK                            x       y       z     vdW  Elec       q    Type
REMARK                         _______ _______ _______ _____ _____    ______ ____
ROOT
ATOM      1  C   UNL     1       3.703   3.703  19.447  0.00  0.00    +0.000 A 
ATOM      2  C   UNL     1       3.213   4.992  19.546  0.00  0.00    +0.000 A 
ATOM      3  S   UNL     1       3.682   5.909  18.182  0.00  0.00    +0.000 S 
ATOM      4  C   UNL     1       4.549   4.555  17.563  0.00  0.00    +0.000 A 
ATOM      5  N   UNL     1       4.425   3.454  18.285  0.00  0.00    +0.000 NA
ENDROOT
BRANCH   4   6
ATOM      6  C   UNL     1       5.374   4.596  16.372  0.00  0.00    +0.000 A 
ATOM      7  C   UNL     1       5.070   4.023  15.146  0.00  0.00    +0.000 A 
ATOM      8  C   UNL     1       6.113   4.193  14.201  0.00  0.00    +0.000 A 
ATOM      9 BR   UNL     1       6.004   3.501  12.450  0.00  0.00    +0.000 Br
ATOM     10  C   UNL     1       7.183   4.892  14.694  0.00  0.00    +0.000 A 
ATOM     11  S   UNL     1       6.921   5.355  16.318  0.00  0.00    +0.000 S 
ENDBRANCH   4   6
BRANCH   1  12
ATOM     12  C   UNL     1       3.564   2.607  20.453  0.00  0.00    +0.000 C 
BRANCH  12  14
ATOM     13  O   UNL     1       5.487   1.415  21.272  0.00  0.00    +0.000 OA
ATOM     14  C   UNL     1       4.652   1.562  20.387  0.00  0.00    +0.000 C 
BRANCH  14  15
ATOM     15  O   UNL     1       4.698   0.836  19.248  0.00  0.00    +0.000 OA
ATOM     16  H   UNL     1       3.905   0.920  18.681  0.00  0.00    +0.000 HD
ENDBRANCH  14  15
ENDBRANCH  12  14
ENDBRANCH   1  12
TORSDOF 4
ENDMDL
MODEL 5
REMARK VINA RESULT:      -5.5      1.658      1.809
REMARK  Name = 
REMARK  4 active torsions:
REMARK  status: ('A' for Active; 'I' for Inactive)
REMARK    1  A    between atoms: C_2  and  O_3
REMARK    2  A    between atoms: C_2  and  C_4
REMARK    3  A    between atoms: C_4  and  C_5
REMARK    4  A    between atoms: C_8  and  C_9
REMARK                            x       y       z     vdW  Elec       q    Type
REMARK                         _______ _______ _______ _____ _____    ______ ____
ROOT
ATOM      1  C   UNL     1       2.407   4.747  19.168  0.00  0.00    +0.000 A 
ATOM      2  C   UNL     1       2.389   6.128  19.226  0.00  0.00    +0.000 A 
ATOM      3  S   UNL     1       3.482   6.781  18.086  0.00  0.00    +0.000 S 
ATOM      4  C   UNL     1       3.951   5.191  17.617  0.00  0.00    +0.000 A 
ATOM      5  N   UNL     1       3.270   4.227  18.211  0.00  0.00    +0.000 NA
ENDROOT
BRANCH   4   6
ATOM      6  C   UNL     1       5.016   4.905  16.677  0.00  0.00    +0.000 A 
ATOM      7  C   UNL     1       4.857   4.505  15.358  0.00  0.00    +0.000 A 
ATOM      8  C   UNL     1       6.098   4.249  14.721  0.00  0.00    +0.000 A 
ATOM      9 BR   UNL     1       6.206   3.664  12.932  0.00  0.00    +0.000 Br
ATOM     10  C   UNL     1       7.179   4.462  15.535  0.00  0.00    +0.000 A 
ATOM     11  S   UNL     1       6.689   4.985  17.086  0.00  0.00    +0.000 S 
ENDBRANCH   4   6
BRANCH   1  12
ATOM     12  C   UNL     1       1.641   3.800  20.034  0.00  0.00    +0.000 C 
BRANCH  12  14
ATOM     13  O   UNL     1       2.199   3.009  22.236  0.00  0.00    +0.000 OA
ATOM     14  C   UNL     1       2.485   3.063  21.045  0.00  0.00    +0.000 C 
BRANCH  14  15
ATOM     15  O   UNL     1       3.627   2.519  20.571  0.00  0.00    +0.000 OA
ATOM     16  H   UNL     1       3.496   1.831  19.888  0.00  0.00    +0.000 HD
ENDBRANCH  14  15
ENDBRANCH  12  14
ENDBRANCH   1  12
TORSDOF 4
ENDMDL
MODEL 6
REMARK VINA RESULT:      -5.5      1.796      1.948
REMARK  Name = 
REMARK  4 active torsions:
REMARK  status: ('A' for Active; 'I' for Inactive)
REMARK    1  A    between atoms: C_2  and  O_3
REMARK    2  A    between atoms: C_2  and  C_4
REMARK    3  A    between atoms: C_4  and  C_5
REMARK    4  A    between atoms: C_8  and  C_9
REMARK                            x       y       z     vdW  Elec       q    Type
REMARK                         _______ _______ _______ _____ _____    ______ ____
ROOT
ATOM      1  C   UNL     1       2.700   5.499  19.825  0.00  0.00    +0.000 A 
ATOM      2  C   UNL     1       2.411   6.778  19.389  0.00  0.00    +0.000 A 
ATOM      3  S   UNL     1       3.290   7.129  17.966  0.00  0.00    +0.000 S 
ATOM      4  C   UNL     1       4.040   5.580  18.040  0.00  0.00    +0.000 A 
ATOM      5  N   UNL     1       3.597   4.809  19.018  0.00  0.00    +0.000 NA
ENDROOT
BRANCH   4   6
ATOM      6  C   UNL     1       5.088   5.143  17.140  0.00  0.00    +0.000 A 
ATOM      7  C   UNL     1       4.930   4.802  15.805  0.00  0.00    +0.000 A 
ATOM      8  C   UNL     1       6.142   4.360  15.217  0.00  0.00    +0.000 A 
ATOM      9 BR   UNL     1       6.240   3.801  13.418  0.00  0.00    +0.000 Br
ATOM     10  C   UNL     1       7.203   4.376  16.083  0.00  0.00    +0.000 A 
ATOM     11  S   UNL     1       6.730   4.940  17.625  0.00  0.00    +0.000 S 
ENDBRANCH   4   6
BRANCH   1  12
ATOM     12  C   UNL     1       2.184   4.831  21.059  0.00  0.00    +0.000 C 
BRANCH  12  14
ATOM     13  O   UNL     1       1.198   2.718  21.651  0.00  0.00    +0.000 OA
ATOM     14  C   UNL     1       1.385   3.577  20.797  0.00  0.00    +0.000 C 
BRANCH  14  15
ATOM     15  O   UNL     1       0.941   3.419  19.530  0.00  0.00    +0.000 OA
ATOM     16  H   UNL     1      -0.002   3.644  19.401  0.00  0.00    +0.000 HD
ENDBRANCH  14  15
ENDBRANCH  12  14
ENDBRANCH   1  12
TORSDOF 4
ENDMDL
MODEL 7
REMARK VINA RESULT:      -5.5      4.058      6.171
REMARK  Name = 
REMARK  4 active torsions:
REMARK  status: ('A' for Active; 'I' for Inactive)
REMARK    1  A    between atoms: C_2  and  O_3
REMARK    2  A    between atoms: C_2  and  C_4
REMARK    3  A    between atoms: C_4  and  C_5
REMARK    4  A    between atoms: C_8  and  C_9
REMARK                            x       y       z     vdW  Elec       q    Type
REMARK                         _______ _______ _______ _____ _____    ______ ____
ROOT
ATOM      1  C   UNL     1       5.745   5.384  16.313  0.00  0.00    +0.000 A 
ATOM      2  C   UNL     1       6.846   5.599  17.121  0.00  0.00    +0.000 A 
ATOM      3  S   UNL     1       6.411   5.438  18.766  0.00  0.00    +0.000 S 
ATOM      4  C   UNL     1       4.776   5.141  18.310  0.00  0.00    +0.000 A 
ATOM      5  N   UNL     1       4.579   5.077  17.005  0.00  0.00    +0.000 NA
ENDROOT
BRANCH   4   6
ATOM      6  C   UNL     1       3.685   4.999  19.253  0.00  0.00    +0.000 A 
ATOM      7  C   UNL     1       3.336   3.840  19.931  0.00  0.00    +0.000 A 
ATOM      8  C   UNL     1       2.184   4.016  20.739  0.00  0.00    +0.000 A 
ATOM      9 BR   UNL     1       1.450   2.612  21.761  0.00  0.00    +0.000 Br
ATOM     10  C   UNL     1       1.673   5.286  20.684  0.00  0.00    +0.000 A 
ATOM     11  S   UNL     1       2.603   6.281  19.651  0.00  0.00    +0.000 S 
ENDBRANCH   4   6
BRANCH   1  12
ATOM     12  C   UNL     1       5.689   5.485  14.822  0.00  0.00    +0.000 C 
BRANCH  12  14
ATOM     13  O   UNL     1       7.880   5.349  13.838  0.00  0.00    +0.000 OA
ATOM     14  C   UNL     1       6.824   4.789  14.111  0.00  0.00    +0.000 C 
BRANCH  14  15
ATOM     15  O   UNL     1       6.581   3.517  13.722  0.00  0.00    +0.000 OA
ATOM     16  H   UNL     1       6.437   2.889  14.459  0.00  0.00    +0.000 HD
ENDBRANCH  14  15
ENDBRANCH  12  14
ENDBRANCH   1  12
TORSDOF 4
ENDMDL
MODEL 8
REMARK VINA RESULT:      -5.5      4.611      6.259
REMARK  Name = 
REMARK  4 active torsions:
REMARK  status: ('A' for Active; 'I' for Inactive)
REMARK    1  A    between atoms: C_2  and  O_3
REMARK    2  A    between atoms: C_2  and  C_4
REMARK    3  A    between atoms: C_4  and  C_5
REMARK    4  A    between atoms: C_8  and  C_9
REMARK                            x       y       z     vdW  Elec       q    Type
REMARK                         _______ _______ _______ _____ _____    ______ ____
ROOT
ATOM      1  C   UNL     1       4.661   4.311  17.235  0.00  0.00    +0.000 A 
ATOM      2  C   UNL     1       4.204   3.373  18.141  0.00  0.00    +0.000 A 
ATOM      3  S   UNL     1       3.050   4.076  19.187  0.00  0.00    +0.000 S 
ATOM      4  C   UNL     1       3.261   5.598  18.407  0.00  0.00    +0.000 A 
ATOM      5  N   UNL     1       4.078   5.566  17.368  0.00  0.00    +0.000 NA
ENDROOT
BRANCH   4   6
ATOM      6  C   UNL     1       2.634   6.828  18.846  0.00  0.00    +0.000 A 
ATOM      7  C   UNL     1       2.102   7.070  20.104  0.00  0.00    +0.000 A 
ATOM      8  C   UNL     1       1.507   8.354  20.197  0.00  0.00    +0.000 A 
ATOM      9 BR   UNL     1       0.676   8.963  21.776  0.00  0.00    +0.000 Br
ATOM     10  C   UNL     1       1.595   9.078  19.038  0.00  0.00    +0.000 A 
ATOM     11  S   UNL     1       2.414   8.197  17.823  0.00  0.00    +0.000 S 
ENDBRANCH   4   6
BRANCH   1  12
ATOM     12  C   UNL     1       5.711   4.115  16.189  0.00  0.00    +0.000 C 
BRANCH  12  14
ATOM     13  O   UNL     1       7.996   4.316  16.915  0.00  0.00    +0.000 OA
ATOM     14  C   UNL     1       6.998   4.859  16.456  0.00  0.00    +0.000 C 
BRANCH  14  15
ATOM     15  O   UNL     1       6.964   6.190  16.224  0.00  0.00    +0.000 OA
ATOM     16  H   UNL     1       7.275   6.739  16.972  0.00  0.00    +0.000 HD
ENDBRANCH  14  15
ENDBRANCH  12  14
ENDBRANCH   1  12
TORSDOF 4
ENDMDL
MODEL 9
REMARK VINA RESULT:      -5.5      5.099      6.599
REMARK  Name = 
REMARK  4 active torsions:
REMARK  status: ('A' for Active; 'I' for Inactive)
REMARK    1  A    between atoms: C_2  and  O_3
REMARK    2  A    between atoms: C_2  and  C_4
REMARK    3  A    between atoms: C_4  and  C_5
REMARK    4  A    between atoms: C_8  and  C_9
REMARK                            x       y       z     vdW  Elec       q    Type
REMARK                         _______ _______ _______ _____ _____    ______ ____
ROOT
ATOM      1  C   UNL     1       3.001   4.781  19.485  0.00  0.00    +0.000 A 
ATOM      2  C   UNL     1       3.608   5.226  18.326  0.00  0.00    +0.000 A 
ATOM      3  S   UNL     1       3.318   6.896  18.111  0.00  0.00    +0.000 S 
ATOM      4  C   UNL     1       2.363   6.921  19.545  0.00  0.00    +0.000 A 
ATOM      5  N   UNL     1       2.333   5.771  20.197  0.00  0.00    +0.000 NA
ENDROOT
BRANCH   4   6
ATOM      6  C   UNL     1       1.622   8.078  20.006  0.00  0.00    +0.000 A 
ATOM      7  C   UNL     1       1.100   8.261  21.278  0.00  0.00    +0.000 A 
ATOM      8  C   UNL     1       0.378   9.476  21.392  0.00  0.00    +0.000 A 
ATOM      9 BR   UNL     1      -0.471   9.993  22.995  0.00  0.00    +0.000 Br
ATOM     10  C   UNL     1       0.361  10.207  20.234  0.00  0.00    +0.000 A 
ATOM     11  S   UNL     1       1.235   9.419  18.995  0.00  0.00    +0.000 S 
ENDBRANCH   4   6
BRANCH   1  12
ATOM     12  C   UNL     1       2.968   3.379  20.004  0.00  0.00    +0.000 C 
BRANCH  12  14
ATOM     13  O   UNL     1       2.372   2.917  22.288  0.00  0.00    +0.000 OA
ATOM     14  C   UNL     1       2.004   3.163  21.144  0.00  0.00    +0.000 C 
BRANCH  14  15
ATOM     15  O   UNL     1       0.693   3.185  20.816  0.00  0.00    +0.000 OA
ATOM     16  H   UNL     1       0.292   4.077  20.808  0.00  0.00    +0.000 HD
ENDBRANCH  14  15
ENDBRANCH  12  14
ENDBRANCH   1  12
TORSDOF 4
ENDMDL
