MODEL 1
REMARK VINA RESULT:      -8.6      0.000      0.000
REMARK  Name = 
REMARK  3 active torsions:
REMARK  status: ('A' for Active; 'I' for Inactive)
REMARK    1  A    between atoms: C_5  and  C_6
REMARK    2  A    between atoms: C_6  and  N_7
REMARK    3  A    between atoms: C_8  and  C_9
REMARK                            x       y       z     vdW  Elec       q    Type
REMARK                         _______ _______ _______ _____ _____    ______ ____
ROOT
ATOM      1  N   UNL     1       3.201   5.571  18.742  0.00  0.00    +0.000 N 
ATOM      2  C   UNL     1       2.418   4.503  18.330  0.00  0.00    +0.000 A 
ATOM      3  N   UNL     1       2.977   3.922  17.281  0.00  0.00    +0.000 NA
ATOM      4  C   UNL     1       4.148   4.592  17.034  0.00  0.00    +0.000 A 
ATOM      5  C   UNL     1       5.096   4.397  16.016  0.00  0.00    +0.000 A 
ATOM      6  C   UNL     1       6.210   5.247  15.965  0.00  0.00    +0.000 A 
ATOM      7 CL   UNL     1       7.328   5.010  14.664  0.00  0.00    +0.000 Cl
ATOM      8  C   UNL     1       6.395   6.252  16.922  0.00  0.00    +0.000 A 
ATOM      9 CL   UNL     1       7.744   7.337  16.883  0.00  0.00    +0.000 Cl
ATOM     10  C   UNL     1       5.469   6.439  17.954  0.00  0.00    +0.000 A 
ATOM     11  C   UNL     1       4.341   5.598  17.959  0.00  0.00    +0.000 A 
ENDROOT
BRANCH   2  12
ATOM     12  C   UNL     1       1.152   4.023  19.018  0.00  0.00    +0.000 C 
ATOM     13  C   UNL     1       1.084   4.423  20.503  0.00  0.00    +0.000 C 
ATOM     14  C   UNL     1       1.970   3.563  21.410  0.00  0.00    +0.000 C 
ATOM     15  N   UNL     1       1.770   2.125  21.243  0.00  0.00    +0.000 NA
ATOM     16  C   UNL     1       1.815   1.697  19.848  0.00  0.00    +0.000 C 
ATOM     17  C   UNL     1       0.920   2.513  18.914  0.00  0.00    +0.000 C 
ATOM     18  H   UNL     1       0.901   1.833  21.684  0.00  0.00    +0.000 HD
ENDBRANCH   2  12
BRANCH   1  19
ATOM     19  C   UNL     1       2.943   6.529  19.808  0.00  0.00    +0.000 C 
BRANCH  19  24
ATOM     20  F   UNL     1      -0.050  11.138  18.455  0.00  0.00    +0.000 F 
ATOM     21  C   UNL     1       0.655  10.039  18.753  0.00  0.00    +0.000 A 
ATOM     22  C   UNL     1       0.646   9.552  20.053  0.00  0.00    +0.000 A 
ATOM     23  C   UNL     1       1.385   8.409  20.368  0.00  0.00    +0.000 A 
ATOM     24  C   UNL     1       2.125   7.734  19.382  0.00  0.00    +0.000 A 
ATOM     25  C   UNL     1       2.131   8.265  18.077  0.00  0.00    +0.000 A 
ATOM     26  C   UNL     1       1.392   9.409  17.761  0.00  0.00    +0.000 A 
ENDBRANCH  19  24
ENDBRANCH   1  19
TORSDOF 3
ENDMDL
MODEL 2
REMARK VINA RESULT:      -8.1      3.602      5.962
REMARK  Name = 
REMARK  3 active torsions:
REMARK  status: ('A' for Active; 'I' for Inactive)
REMARK    1  A    between atoms: C_5  and  C_6
REMARK    2  A    between atoms: C_6  and  N_7
REMARK    3  A    between atoms: C_8  and  C_9
REMARK                            x       y       z     vdW  Elec       q    Type
REMARK                         _______ _______ _______ _____ _____    ______ ____
ROOT
ATOM      1  N   UNL     1       2.630   6.939  18.627  0.00  0.00    +0.000 N 
ATOM      2  C   UNL     1       2.456   5.950  19.583  0.00  0.00    +0.000 A 
ATOM      3  N   UNL     1       1.815   6.450  20.627  0.00  0.00    +0.000 NA
ATOM      4  C   UNL     1       1.538   7.760  20.331  0.00  0.00    +0.000 A 
ATOM      5  C   UNL     1       0.906   8.742  21.112  0.00  0.00    +0.000 A 
ATOM      6  C   UNL     1       0.767  10.034  20.582  0.00  0.00    +0.000 A 
ATOM      7 CL   UNL     1       0.033  11.230  21.595  0.00  0.00    +0.000 Cl
ATOM      8  C   UNL     1       1.221  10.338  19.293  0.00  0.00    +0.000 A 
ATOM      9 CL   UNL     1       1.091  11.923  18.610  0.00  0.00    +0.000 Cl
ATOM     10  C   UNL     1       1.831   9.360  18.499  0.00  0.00    +0.000 A 
ATOM     11  C   UNL     1       1.992   8.084  19.068  0.00  0.00    +0.000 A 
ENDROOT
BRANCH   2  12
ATOM     12  C   UNL     1       2.869   4.496  19.431  0.00  0.00    +0.000 C 
ATOM     13  C   UNL     1       1.812   3.642  18.709  0.00  0.00    +0.000 C 
ATOM     14  C   UNL     1       0.618   3.268  19.592  0.00  0.00    +0.000 C 
ATOM     15  N   UNL     1       0.991   2.671  20.873  0.00  0.00    +0.000 NA
ATOM     16  C   UNL     1       2.002   3.441  21.593  0.00  0.00    +0.000 C 
ATOM     17  C   UNL     1       3.225   3.809  20.752  0.00  0.00    +0.000 C 
ATOM     18  H   UNL     1       1.294   1.709  20.742  0.00  0.00    +0.000 HD
ENDBRANCH   2  12
BRANCH   1  19
ATOM     19  C   UNL     1       3.334   6.859  17.355  0.00  0.00    +0.000 C 
BRANCH  19  24
ATOM     20  F   UNL     1       8.280   4.107  17.339  0.00  0.00    +0.000 F 
ATOM     21  C   UNL     1       7.114   4.764  17.365  0.00  0.00    +0.000 A 
ATOM     22  C   UNL     1       6.065   4.328  16.567  0.00  0.00    +0.000 A 
ATOM     23  C   UNL     1       4.849   5.015  16.588  0.00  0.00    +0.000 A 
ATOM     24  C   UNL     1       4.666   6.133  17.421  0.00  0.00    +0.000 A 
ATOM     25  C   UNL     1       5.755   6.563  18.204  0.00  0.00    +0.000 A 
ATOM     26  C   UNL     1       6.973   5.877  18.182  0.00  0.00    +0.000 A 
ENDBRANCH  19  24
ENDBRANCH   1  19
TORSDOF 3
ENDMDL
MODEL 3
REMARK VINA RESULT:      -8.1      3.341      5.495
REMARK  Name = 
REMARK  3 active torsions:
REMARK  status: ('A' for Active; 'I' for Inactive)
REMARK    1  A    between atoms: C_5  and  C_6
REMARK    2  A    between atoms: C_6  and  N_7
REMARK    3  A    between atoms: C_8  and  C_9
REMARK                            x       y       z     vdW  Elec       q    Type
REMARK                         _______ _______ _______ _____ _____    ______ ____
ROOT
ATOM      1  N   UNL     1       2.991   5.662  18.961  0.00  0.00    +0.000 N 
ATOM      2  C   UNL     1       2.593   4.811  19.981  0.00  0.00    +0.000 A 
ATOM      3  N   UNL     1       1.820   5.468  20.831  0.00  0.00    +0.000 NA
ATOM      4  C   UNL     1       1.685   6.741  20.340  0.00  0.00    +0.000 A 
ATOM      5  C   UNL     1       0.997   7.842  20.877  0.00  0.00    +0.000 A 
ATOM      6  C   UNL     1       1.035   9.061  20.184  0.00  0.00    +0.000 A 
ATOM      7 CL   UNL     1       0.220  10.408  20.905  0.00  0.00    +0.000 Cl
ATOM      8  C   UNL     1       1.718   9.178  18.968  0.00  0.00    +0.000 A 
ATOM      9 CL   UNL     1       1.810  10.669  18.091  0.00  0.00    +0.000 Cl
ATOM     10  C   UNL     1       2.387   8.081  18.412  0.00  0.00    +0.000 A 
ATOM     11  C   UNL     1       2.365   6.881  19.147  0.00  0.00    +0.000 A 
ENDROOT
BRANCH   2  12
ATOM     12  C   UNL     1       2.929   3.333  20.075  0.00  0.00    +0.000 C 
ATOM     13  C   UNL     1       3.435   2.744  18.747  0.00  0.00    +0.000 C 
ATOM     14  C   UNL     1       2.322   2.484  17.727  0.00  0.00    +0.000 C 
ATOM     15  N   UNL     1       1.204   1.704  18.256  0.00  0.00    +0.000 NA
ATOM     16  C   UNL     1       0.695   2.218  19.524  0.00  0.00    +0.000 C 
ATOM     17  C   UNL     1       1.773   2.463  20.580  0.00  0.00    +0.000 C 
ATOM     18  H   UNL     1       1.463   0.725  18.340  0.00  0.00    +0.000 HD
ENDBRANCH   2  12
BRANCH   1  19
ATOM     19  C   UNL     1       3.893   5.390  17.851  0.00  0.00    +0.000 C 
BRANCH  19  24
ATOM     20  F   UNL     1       9.074   7.553  18.560  0.00  0.00    +0.000 F 
ATOM     21  C   UNL     1       7.857   7.020  18.399  0.00  0.00    +0.000 A 
ATOM     22  C   UNL     1       6.997   7.553  17.447  0.00  0.00    +0.000 A 
ATOM     23  C   UNL     1       5.724   7.003  17.281  0.00  0.00    +0.000 A 
ATOM     24  C   UNL     1       5.307   5.904  18.052  0.00  0.00    +0.000 A 
ATOM     25  C   UNL     1       6.194   5.398  19.023  0.00  0.00    +0.000 A 
ATOM     26  C   UNL     1       7.468   5.950  19.191  0.00  0.00    +0.000 A 
ENDBRANCH  19  24
ENDBRANCH   1  19
TORSDOF 3
ENDMDL
MODEL 4
REMARK VINA RESULT:      -7.6      3.704      6.339
REMARK  Name = 
REMARK  3 active torsions:
REMARK  status: ('A' for Active; 'I' for Inactive)
REMARK    1  A    between atoms: C_5  and  C_6
REMARK    2  A    between atoms: C_6  and  N_7
REMARK    3  A    between atoms: C_8  and  C_9
REMARK                            x       y       z     vdW  Elec       q    Type
REMARK                         _______ _______ _______ _____ _____    ______ ____
ROOT
ATOM      1  N   UNL     1       3.558   6.395  18.919  0.00  0.00    +0.000 N 
ATOM      2  C   UNL     1       4.262   6.660  17.755  0.00  0.00    +0.000 A 
ATOM      3  N   UNL     1       3.813   7.779  17.210  0.00  0.00    +0.000 NA
ATOM      4  C   UNL     1       2.838   8.262  18.045  0.00  0.00    +0.000 A 
ATOM      5  C   UNL     1       2.025   9.400  17.912  0.00  0.00    +0.000 A 
ATOM      6  C   UNL     1       1.071   9.663  18.905  0.00  0.00    +0.000 A 
ATOM      7 CL   UNL     1       0.051  11.044  18.678  0.00  0.00    +0.000 Cl
ATOM      8  C   UNL     1       0.945   8.830  20.023  0.00  0.00    +0.000 A 
ATOM      9 CL   UNL     1      -0.235   9.105  21.261  0.00  0.00    +0.000 Cl
ATOM     10  C   UNL     1       1.766   7.707  20.177  0.00  0.00    +0.000 A 
ATOM     11  C   UNL     1       2.688   7.445  19.147  0.00  0.00    +0.000 A 
ENDROOT
BRANCH   2  12
ATOM     12  C   UNL     1       5.422   5.838  17.220  0.00  0.00    +0.000 C 
ATOM     13  C   UNL     1       6.116   4.998  18.307  0.00  0.00    +0.000 C 
ATOM     14  C   UNL     1       7.041   5.814  19.215  0.00  0.00    +0.000 C 
ATOM     15  N   UNL     1       8.006   6.639  18.491  0.00  0.00    +0.000 NA
ATOM     16  C   UNL     1       7.395   7.448  17.440  0.00  0.00    +0.000 C 
ATOM     17  C   UNL     1       6.487   6.662  16.493  0.00  0.00    +0.000 C 
ATOM     18  H   UNL     1       8.755   6.063  18.115  0.00  0.00    +0.000 HD
ENDBRANCH   2  12
BRANCH   1  19
ATOM     19  C   UNL     1       3.668   5.244  19.805  0.00  0.00    +0.000 C 
BRANCH  19  24
ATOM     20  F   UNL     1       0.052   1.088  18.509  0.00  0.00    +0.000 F 
ATOM     21  C   UNL     1       0.925   2.056  18.809  0.00  0.00    +0.000 A 
ATOM     22  C   UNL     1       0.642   2.938  19.843  0.00  0.00    +0.000 A 
ATOM     23  C   UNL     1       1.548   3.954  20.154  0.00  0.00    +0.000 A 
ATOM     24  C   UNL     1       2.754   4.086  19.445  0.00  0.00    +0.000 A 
ATOM     25  C   UNL     1       3.004   3.190  18.387  0.00  0.00    +0.000 A 
ATOM     26  C   UNL     1       2.097   2.173  18.075  0.00  0.00    +0.000 A 
ENDBRANCH  19  24
ENDBRANCH   1  19
TORSDOF 3
ENDMDL
MODEL 5
REMARK VINA RESULT:      -7.4      5.171      8.377
REMARK  Name = 
REMARK  3 active torsions:
REMARK  status: ('A' for Active; 'I' for Inactive)
REMARK    1  A    between atoms: C_5  and  C_6
REMARK    2  A    between atoms: C_6  and  N_7
REMARK    3  A    between atoms: C_8  and  C_9
REMARK                            x       y       z     vdW  Elec       q    Type
REMARK                         _______ _______ _______ _____ _____    ______ ____
ROOT
ATOM      1  N   UNL     1      -0.351  11.229  19.533  0.00  0.00    +0.000 N 
ATOM      2  C   UNL     1      -1.389  11.404  18.631  0.00  0.00    +0.000 A 
ATOM      3  N   UNL     1      -1.400  12.657  18.206  0.00  0.00    +0.000 NA
ATOM      4  C   UNL     1      -0.342  13.289  18.807  0.00  0.00    +0.000 A 
ATOM      5  C   UNL     1       0.070  14.629  18.721  0.00  0.00    +0.000 A 
ATOM      6  C   UNL     1       1.186  15.037  19.467  0.00  0.00    +0.000 A 
ATOM      7 CL   UNL     1       1.630  16.708  19.378  0.00  0.00    +0.000 Cl
ATOM      8  C   UNL     1       1.896  14.128  20.259  0.00  0.00    +0.000 A 
ATOM      9 CL   UNL     1       3.265  14.594  21.212  0.00  0.00    +0.000 Cl
ATOM     10  C   UNL     1       1.508  12.785  20.333  0.00  0.00    +0.000 A 
ATOM     11  C   UNL     1       0.363  12.411  19.606  0.00  0.00    +0.000 A 
ENDROOT
BRANCH   2  12
ATOM     12  C   UNL     1      -2.326  10.313  18.144  0.00  0.00    +0.000 C 
ATOM     13  C   UNL     1      -2.060   9.896  16.687  0.00  0.00    +0.000 C 
ATOM     14  C   UNL     1      -2.597  10.893  15.656  0.00  0.00    +0.000 C 
ATOM     15  N   UNL     1      -4.000  11.252  15.852  0.00  0.00    +0.000 NA
ATOM     16  C   UNL     1      -4.305  11.646  17.225  0.00  0.00    +0.000 C 
ATOM     17  C   UNL     1      -3.812  10.659  18.284  0.00  0.00    +0.000 C 
ATOM     18  H   UNL     1      -4.606  10.494  15.550  0.00  0.00    +0.000 HD
ENDBRANCH   2  12
BRANCH   1  19
ATOM     19  C   UNL     1      -0.003  10.039  20.297  0.00  0.00    +0.000 C 
BRANCH  19  24
ATOM     20  F   UNL     1       3.589   6.410  17.857  0.00  0.00    +0.000 F 
ATOM     21  C   UNL     1       2.748   7.286  18.420  0.00  0.00    +0.000 A 
ATOM     22  C   UNL     1       2.354   7.104  19.739  0.00  0.00    +0.000 A 
ATOM     23  C   UNL     1       1.472   8.013  20.328  0.00  0.00    +0.000 A 
ATOM     24  C   UNL     1       0.990   9.121  19.609  0.00  0.00    +0.000 A 
ATOM     25  C   UNL     1       1.393   9.267  18.267  0.00  0.00    +0.000 A 
ATOM     26  C   UNL     1       2.275   8.356  17.676  0.00  0.00    +0.000 A 
ENDBRANCH  19  24
ENDBRANCH   1  19
TORSDOF 3
ENDMDL
MODEL 6
REMARK VINA RESULT:      -7.4      3.368      5.565
REMARK  Name = 
REMARK  3 active torsions:
REMARK  status: ('A' for Active; 'I' for Inactive)
REMARK    1  A    between atoms: C_5  and  C_6
REMARK    2  A    between atoms: C_6  and  N_7
REMARK    3  A    between atoms: C_8  and  C_9
REMARK                            x       y       z     vdW  Elec       q    Type
REMARK                         _______ _______ _______ _____ _____    ______ ____
ROOT
ATOM      1  N   UNL     1       2.404   5.730  18.437  0.00  0.00    +0.000 N 
ATOM      2  C   UNL     1       2.005   4.845  19.428  0.00  0.00    +0.000 A 
ATOM      3  N   UNL     1       1.513   5.521  20.454  0.00  0.00    +0.000 NA
ATOM      4  C   UNL     1       1.558   6.848  20.113  0.00  0.00    +0.000 A 
ATOM      5  C   UNL     1       1.189   7.979  20.859  0.00  0.00    +0.000 A 
ATOM      6  C   UNL     1       1.361   9.247  20.285  0.00  0.00    +0.000 A 
ATOM      7 CL   UNL     1       0.946  10.619  21.256  0.00  0.00    +0.000 Cl
ATOM      8  C   UNL     1       1.863   9.389  18.986  0.00  0.00    +0.000 A 
ATOM      9 CL   UNL     1       2.113  10.935  18.247  0.00  0.00    +0.000 Cl
ATOM     10  C   UNL     1       2.212   8.267  18.225  0.00  0.00    +0.000 A 
ATOM     11  C   UNL     1       2.065   7.009  18.839  0.00  0.00    +0.000 A 
ENDROOT
BRANCH   2  12
ATOM     12  C   UNL     1       2.053   3.331  19.326  0.00  0.00    +0.000 C 
ATOM     13  C   UNL     1       1.074   2.631  20.285  0.00  0.00    +0.000 C 
ATOM     14  C   UNL     1       1.554   2.604  21.740  0.00  0.00    +0.000 C 
ATOM     15  N   UNL     1       2.912   2.090  21.907  0.00  0.00    +0.000 NA
ATOM     16  C   UNL     1       3.878   2.718  21.009  0.00  0.00    +0.000 C 
ATOM     17  C   UNL     1       3.448   2.737  19.542  0.00  0.00    +0.000 C 
ATOM     18  H   UNL     1       2.924   1.079  21.803  0.00  0.00    +0.000 HD
ENDBRANCH   2  12
BRANCH   1  19
ATOM     19  C   UNL     1       3.056   5.439  17.168  0.00  0.00    +0.000 C 
BRANCH  19  24
ATOM     20  F   UNL     1       8.563   4.322  17.842  0.00  0.00    +0.000 F 
ATOM     21  C   UNL     1       7.265   4.589  17.659  0.00  0.00    +0.000 A 
ATOM     22  C   UNL     1       6.548   5.223  18.665  0.00  0.00    +0.000 A 
ATOM     23  C   UNL     1       5.191   5.497  18.480  0.00  0.00    +0.000 A 
ATOM     24  C   UNL     1       4.543   5.155  17.280  0.00  0.00    +0.000 A 
ATOM     25  C   UNL     1       5.292   4.495  16.286  0.00  0.00    +0.000 A 
ATOM     26  C   UNL     1       6.650   4.219  16.471  0.00  0.00    +0.000 A 
ENDBRANCH  19  24
ENDBRANCH   1  19
TORSDOF 3
ENDMDL
MODEL 7
REMARK VINA RESULT:      -7.4      3.877      6.595
REMARK  Name = 
REMARK  3 active torsions:
REMARK  status: ('A' for Active; 'I' for Inactive)
REMARK    1  A    between atoms: C_5  and  C_6
REMARK    2  A    between atoms: C_6  and  N_7
REMARK    3  A    between atoms: C_8  and  C_9
REMARK                            x       y       z     vdW  Elec       q    Type
REMARK                         _______ _______ _______ _____ _____    ______ ____
ROOT
ATOM      1  N   UNL     1       2.670   6.585  19.369  0.00  0.00    +0.000 N 
ATOM      2  C   UNL     1       3.519   6.581  18.273  0.00  0.00    +0.000 A 
ATOM      3  N   UNL     1       3.393   7.720  17.611  0.00  0.00    +0.000 NA
ATOM      4  C   UNL     1       2.487   8.482  18.302  0.00  0.00    +0.000 A 
ATOM      5  C   UNL     1       1.976   9.757  18.008  0.00  0.00    +0.000 A 
ATOM      6  C   UNL     1       1.024  10.315  18.873  0.00  0.00    +0.000 A 
ATOM      7 CL   UNL     1       0.378  11.864  18.448  0.00  0.00    +0.000 Cl
ATOM      8  C   UNL     1       0.607   9.634  20.023  0.00  0.00    +0.000 A 
ATOM      9 CL   UNL     1      -0.582  10.276  21.106  0.00  0.00    +0.000 Cl
ATOM     10  C   UNL     1       1.127   8.373  20.338  0.00  0.00    +0.000 A 
ATOM     11  C   UNL     1       2.052   7.820  19.433  0.00  0.00    +0.000 A 
ENDROOT
BRANCH   2  12
ATOM     12  C   UNL     1       4.498   5.475  17.921  0.00  0.00    +0.000 C 
ATOM     13  C   UNL     1       5.931   5.761  18.406  0.00  0.00    +0.000 C 
ATOM     14  C   UNL     1       6.680   6.777  17.538  0.00  0.00    +0.000 C 
ATOM     15  N   UNL     1       6.661   6.465  16.110  0.00  0.00    +0.000 NA
ATOM     16  C   UNL     1       5.322   6.174  15.604  0.00  0.00    +0.000 C 
ATOM     17  C   UNL     1       4.552   5.141  16.428  0.00  0.00    +0.000 C 
ATOM     18  H   UNL     1       7.299   5.701  15.904  0.00  0.00    +0.000 HD
ENDBRANCH   2  12
BRANCH   1  19
ATOM     19  C   UNL     1       2.429   5.522  20.335  0.00  0.00    +0.000 C 
BRANCH  19  24
ATOM     20  F   UNL     1       3.786   0.427  18.277  0.00  0.00    +0.000 F 
ATOM     21  C   UNL     1       3.474   1.626  18.785  0.00  0.00    +0.000 A 
ATOM     22  C   UNL     1       2.365   2.307  18.301  0.00  0.00    +0.000 A 
ATOM     23  C   UNL     1       2.041   3.560  18.825  0.00  0.00    +0.000 A 
ATOM     24  C   UNL     1       2.812   4.136  19.849  0.00  0.00    +0.000 A 
ATOM     25  C   UNL     1       3.943   3.429  20.305  0.00  0.00    +0.000 A 
ATOM     26  C   UNL     1       4.269   2.175  19.780  0.00  0.00    +0.000 A 
ENDBRANCH  19  24
ENDBRANCH   1  19
TORSDOF 3
ENDMDL
MODEL 8
REMARK VINA RESULT:      -7.3      3.255      5.365
REMARK  Name = 
REMARK  3 active torsions:
REMARK  status: ('A' for Active; 'I' for Inactive)
REMARK    1  A    between atoms: C_5  and  C_6
REMARK    2  A    between atoms: C_6  and  N_7
REMARK    3  A    between atoms: C_8  and  C_9
REMARK                            x       y       z     vdW  Elec       q    Type
REMARK                         _______ _______ _______ _____ _____    ______ ____
ROOT
ATOM      1  N   UNL     1       2.579   5.703  18.597  0.00  0.00    +0.000 N 
ATOM      2  C   UNL     1       1.979   4.796  19.457  0.00  0.00    +0.000 A 
ATOM      3  N   UNL     1       1.252   5.446  20.351  0.00  0.00    +0.000 NA
ATOM      4  C   UNL     1       1.349   6.780  20.046  0.00  0.00    +0.000 A 
ATOM      5  C   UNL     1       0.797   7.893  20.701  0.00  0.00    +0.000 A 
ATOM      6  C   UNL     1       1.072   9.173  20.198  0.00  0.00    +0.000 A 
ATOM      7 CL   UNL     1       0.419  10.522  21.064  0.00  0.00    +0.000 Cl
ATOM      8  C   UNL     1       1.857   9.344  19.051  0.00  0.00    +0.000 A 
ATOM      9 CL   UNL     1       2.241  10.905  18.410  0.00  0.00    +0.000 Cl
ATOM     10  C   UNL     1       2.393   8.240  18.378  0.00  0.00    +0.000 A 
ATOM     11  C   UNL     1       2.133   6.970  18.926  0.00  0.00    +0.000 A 
ENDROOT
BRANCH   2  12
ATOM     12  C   UNL     1       2.079   3.284  19.351  0.00  0.00    +0.000 C 
ATOM     13  C   UNL     1       1.162   2.548  20.345  0.00  0.00    +0.000 C 
ATOM     14  C   UNL     1       1.697   2.538  21.780  0.00  0.00    +0.000 C 
ATOM     15  N   UNL     1       3.078   2.074  21.896  0.00  0.00    +0.000 NA
ATOM     16  C   UNL     1       3.986   2.736  20.963  0.00  0.00    +0.000 C 
ATOM     17  C   UNL     1       3.501   2.741  19.513  0.00  0.00    +0.000 C 
ATOM     18  H   UNL     1       3.123   1.064  21.789  0.00  0.00    +0.000 HD
ENDBRANCH   2  12
BRANCH   1  19
ATOM     19  C   UNL     1       3.511   5.443  17.509  0.00  0.00    +0.000 C 
BRANCH  19  24
ATOM     20  F   UNL     1       8.814   7.100  18.587  0.00  0.00    +0.000 F 
ATOM     21  C   UNL     1       7.566   6.686  18.340  0.00  0.00    +0.000 A 
ATOM     22  C   UNL     1       6.850   7.256  17.296  0.00  0.00    +0.000 A 
ATOM     23  C   UNL     1       5.544   6.831  17.039  0.00  0.00    +0.000 A 
ATOM     24  C   UNL     1       4.950   5.820  17.814  0.00  0.00    +0.000 A 
ATOM     25  C   UNL     1       5.694   5.275  18.879  0.00  0.00    +0.000 A 
ATOM     26  C   UNL     1       7.000   5.701  19.137  0.00  0.00    +0.000 A 
ENDBRANCH  19  24
ENDBRANCH   1  19
TORSDOF 3
ENDMDL
MODEL 9
REMARK VINA RESULT:      -7.3      3.727      6.408
REMARK  Name = 
REMARK  3 active torsions:
REMARK  status: ('A' for Active; 'I' for Inactive)
REMARK    1  A    between atoms: C_5  and  C_6
REMARK    2  A    between atoms: C_6  and  N_7
REMARK    3  A    between atoms: C_8  and  C_9
REMARK                            x       y       z     vdW  Elec       q    Type
REMARK                         _______ _______ _______ _____ _____    ______ ____
ROOT
ATOM      1  N   UNL     1       3.021   6.409  19.331  0.00  0.00    +0.000 N 
ATOM      2  C   UNL     1       3.706   6.419  18.125  0.00  0.00    +0.000 A 
ATOM      3  N   UNL     1       3.400   7.514  17.450  0.00  0.00    +0.000 NA
ATOM      4  C   UNL     1       2.542   8.238  18.238  0.00  0.00    +0.000 A 
ATOM      5  C   UNL     1       1.897   9.458  17.977  0.00  0.00    +0.000 A 
ATOM      6  C   UNL     1       1.034   9.984  18.950  0.00  0.00    +0.000 A 
ATOM      7 CL   UNL     1       0.216  11.461  18.569  0.00  0.00    +0.000 Cl
ATOM      8  C   UNL     1       0.837   9.326  20.170  0.00  0.00    +0.000 A 
ATOM      9 CL   UNL     1      -0.236   9.927  21.389  0.00  0.00    +0.000 Cl
ATOM     10  C   UNL     1       1.493   8.122  20.450  0.00  0.00    +0.000 A 
ATOM     11  C   UNL     1       2.323   7.598  19.441  0.00  0.00    +0.000 A 
ENDROOT
BRANCH   2  12
ATOM     12  C   UNL     1       4.710   5.372  17.675  0.00  0.00    +0.000 C 
ATOM     13  C   UNL     1       6.075   5.507  18.374  0.00  0.00    +0.000 C 
ATOM     14  C   UNL     1       6.935   6.649  17.825  0.00  0.00    +0.000 C 
ATOM     15  N   UNL     1       7.088   6.630  16.371  0.00  0.00    +0.000 NA
ATOM     16  C   UNL     1       5.819   6.493  15.662  0.00  0.00    +0.000 C 
ATOM     17  C   UNL     1       4.943   5.343  16.162  0.00  0.00    +0.000 C 
ATOM     18  H   UNL     1       7.740   5.901  16.092  0.00  0.00    +0.000 HD
ENDBRANCH   2  12
BRANCH   1  19
ATOM     19  C   UNL     1       3.002   5.375  20.357  0.00  0.00    +0.000 C 
BRANCH  19  24
ATOM     20  F   UNL     1       0.472   0.637  18.574  0.00  0.00    +0.000 F 
ATOM     21  C   UNL     1       1.088   1.744  19.005  0.00  0.00    +0.000 A 
ATOM     22  C   UNL     1       0.333   2.860  19.343  0.00  0.00    +0.000 A 
ATOM     23  C   UNL     1       0.973   4.019  19.787  0.00  0.00    +0.000 A 
ATOM     24  C   UNL     1       2.373   4.067  19.915  0.00  0.00    +0.000 A 
ATOM     25  C   UNL     1       3.112   2.926  19.546  0.00  0.00    +0.000 A 
ATOM     26  C   UNL     1       2.472   1.766  19.100  0.00  0.00    +0.000 A 
ENDBRANCH  19  24
ENDBRANCH   1  19
TORSDOF 3
ENDMDL
