MODEL 1
REMARK VINA RESULT:      -8.9      0.000      0.000
REMARK  Name = 
REMARK  6 active torsions:
REMARK  status: ('A' for Active; 'I' for Inactive)
REMARK    1  A    between atoms: C_2  and  C_3
REMARK    2  A    between atoms: C_3  and  O_4
REMARK    3  A    between atoms: O_4  and  C_5
REMARK    4  A    between atoms: N_15  and  N_16
REMARK    5  A    between atoms: C_17  and  C_18
REMARK    6  A    between atoms: C_22  and  N_23
REMARK                            x       y       z     vdW  Elec       q    Type
REMARK                         _______ _______ _______ _____ _____    ______ ____
ROOT
ATOM      1  O   UNL     1       7.857   6.055  18.629  0.00  0.00    +0.000 OA
ATOM      2  C   UNL     1       7.472   6.613  17.603  0.00  0.00    +0.000 C 
ATOM      3  N   UNL     1       7.695   7.949  17.286  0.00  0.00    +0.000 N 
ATOM      4  H   UNL     1       7.322   8.346  16.431  0.00  0.00    +0.000 HD
ENDROOT
BRANCH   3   5
ATOM      5  N   UNL     1       8.417   8.734  18.136  0.00  0.00    +0.000 NA
ATOM      6  C   UNL     1       8.488   9.988  17.829  0.00  0.00    +0.000 C 
BRANCH   6   7
ATOM      7  C   UNL     1       9.243  10.946  18.666  0.00  0.00    +0.000 A 
ATOM      8  C   UNL     1       9.400  10.725  20.039  0.00  0.00    +0.000 A 
ATOM      9  C   UNL     1      10.117  11.636  20.818  0.00  0.00    +0.000 A 
ATOM     10  C   UNL     1      10.678  12.771  20.230  0.00  0.00    +0.000 A 
ATOM     11  C   UNL     1      10.514  12.988  18.856  0.00  0.00    +0.000 A 
ATOM     12  C   UNL     1       9.800  12.077  18.064  0.00  0.00    +0.000 A 
BRANCH  11  13
ATOM     13  N   UNL     1      11.096  14.186  18.234  0.00  0.00    +0.000 N 
ATOM     14  O   UNL     1      10.317  15.037  17.782  0.00  0.00    +0.000 OA
ATOM     15  O   UNL     1      12.331  14.272  18.198  0.00  0.00    +0.000 OA
ENDBRANCH  11  13
ENDBRANCH   6   7
ENDBRANCH   3   5
BRANCH   2  16
ATOM     16  C   UNL     1       6.705   5.860  16.518  0.00  0.00    +0.000 C 
BRANCH  16  17
ATOM     17  O   UNL     1       5.828   4.913  17.109  0.00  0.00    +0.000 OA
BRANCH  17  18
ATOM     18  C   UNL     1       4.575   5.354  17.473  0.00  0.00    +0.000 A 
ATOM     19  C   UNL     1       4.224   6.706  17.570  0.00  0.00    +0.000 A 
ATOM     20  C   UNL     1       2.938   7.078  17.959  0.00  0.00    +0.000 A 
ATOM     21  C   UNL     1       1.985   6.104  18.245  0.00  0.00    +0.000 A 
ATOM     22  C   UNL     1       2.304   4.743  18.153  0.00  0.00    +0.000 A 
ATOM     23  C   UNL     1       1.332   3.766  18.436  0.00  0.00    +0.000 A 
ATOM     24  C   UNL     1       1.633   2.410  18.345  0.00  0.00    +0.000 A 
ATOM     25  C   UNL     1       2.911   2.010  17.976  0.00  0.00    +0.000 A 
ATOM     26  C   UNL     1       3.887   2.969  17.689  0.00  0.00    +0.000 A 
ATOM     27  C   UNL     1       3.611   4.352  17.766  0.00  0.00    +0.000 A 
ENDBRANCH  17  18
ENDBRANCH  16  17
ENDBRANCH   2  16
TORSDOF 6
ENDMDL
MODEL 2
REMARK VINA RESULT:      -8.7      1.235      1.315
REMARK  Name = 
REMARK  6 active torsions:
REMARK  status: ('A' for Active; 'I' for Inactive)
REMARK    1  A    between atoms: C_2  and  C_3
REMARK    2  A    between atoms: C_3  and  O_4
REMARK    3  A    between atoms: O_4  and  C_5
REMARK    4  A    between atoms: N_15  and  N_16
REMARK    5  A    between atoms: C_17  and  C_18
REMARK    6  A    between atoms: C_22  and  N_23
REMARK                            x       y       z     vdW  Elec       q    Type
REMARK                         _______ _______ _______ _____ _____    ______ ____
ROOT
ATOM      1  O   UNL     1       7.895   5.867  19.118  0.00  0.00    +0.000 OA
ATOM      2  C   UNL     1       7.488   6.340  18.058  0.00  0.00    +0.000 C 
ATOM      3  N   UNL     1       7.701   7.647  17.631  0.00  0.00    +0.000 N 
ATOM      4  H   UNL     1       7.311   7.974  16.755  0.00  0.00    +0.000 HD
ENDROOT
BRANCH   3   5
ATOM      5  N   UNL     1       8.439   8.497  18.401  0.00  0.00    +0.000 NA
ATOM      6  C   UNL     1       8.570   9.702  17.950  0.00  0.00    +0.000 C 
BRANCH   6   7
ATOM      7  C   UNL     1       9.349  10.722  18.686  0.00  0.00    +0.000 A 
ATOM      8  C   UNL     1       9.419  10.695  20.084  0.00  0.00    +0.000 A 
ATOM      9  C   UNL     1      10.159  11.662  20.768  0.00  0.00    +0.000 A 
ATOM     10  C   UNL     1      10.831  12.660  20.060  0.00  0.00    +0.000 A 
ATOM     11  C   UNL     1      10.754  12.683  18.661  0.00  0.00    +0.000 A 
ATOM     12  C   UNL     1      10.017  11.714  17.964  0.00  0.00    +0.000 A 
BRANCH  11  13
ATOM     13  N   UNL     1      11.453  13.737  17.912  0.00  0.00    +0.000 N 
ATOM     14  O   UNL     1      11.377  14.897  18.342  0.00  0.00    +0.000 OA
ATOM     15  O   UNL     1      12.074  13.403  16.893  0.00  0.00    +0.000 OA
ENDBRANCH  11  13
ENDBRANCH   6   7
ENDBRANCH   3   5
BRANCH   2  16
ATOM     16  C   UNL     1       6.700   5.502  17.053  0.00  0.00    +0.000 C 
BRANCH  16  17
ATOM     17  O   UNL     1       5.613   4.860  17.701  0.00  0.00    +0.000 OA
BRANCH  17  18
ATOM     18  C   UNL     1       4.530   5.639  18.041  0.00  0.00    +0.000 A 
ATOM     19  C   UNL     1       4.256   6.885  17.464  0.00  0.00    +0.000 A 
ATOM     20  C   UNL     1       3.146   7.626  17.869  0.00  0.00    +0.000 A 
ATOM     21  C   UNL     1       2.292   7.125  18.848  0.00  0.00    +0.000 A 
ATOM     22  C   UNL     1       2.535   5.879  19.441  0.00  0.00    +0.000 A 
ATOM     23  C   UNL     1       1.662   5.379  20.423  0.00  0.00    +0.000 A 
ATOM     24  C   UNL     1       1.889   4.142  21.020  0.00  0.00    +0.000 A 
ATOM     25  C   UNL     1       2.996   3.389  20.647  0.00  0.00    +0.000 A 
ATOM     26  C   UNL     1       3.872   3.872  19.671  0.00  0.00    +0.000 A 
ATOM     27  C   UNL     1       3.665   5.121  19.043  0.00  0.00    +0.000 A 
ENDBRANCH  17  18
ENDBRANCH  16  17
ENDBRANCH   2  16
TORSDOF 6
ENDMDL
MODEL 3
REMARK VINA RESULT:      -8.5      1.099      2.082
REMARK  Name = 
REMARK  6 active torsions:
REMARK  status: ('A' for Active; 'I' for Inactive)
REMARK    1  A    between atoms: C_2  and  C_3
REMARK    2  A    between atoms: C_3  and  O_4
REMARK    3  A    between atoms: O_4  and  C_5
REMARK    4  A    between atoms: N_15  and  N_16
REMARK    5  A    between atoms: C_17  and  C_18
REMARK    6  A    between atoms: C_22  and  N_23
REMARK                            x       y       z     vdW  Elec       q    Type
REMARK                         _______ _______ _______ _____ _____    ______ ____
ROOT
ATOM      1  O   UNL     1       7.256   6.307  18.903  0.00  0.00    +0.000 OA
ATOM      2  C   UNL     1       6.925   6.770  17.813  0.00  0.00    +0.000 C 
ATOM      3  N   UNL     1       7.445   7.928  17.245  0.00  0.00    +0.000 N 
ATOM      4  H   UNL     1       7.103   8.264  16.351  0.00  0.00    +0.000 HD
ENDROOT
BRANCH   3   5
ATOM      5  N   UNL     1       8.422   8.622  17.897  0.00  0.00    +0.000 NA
ATOM      6  C   UNL     1       8.211   9.888  18.054  0.00  0.00    +0.000 C 
BRANCH   6   7
ATOM      7  C   UNL     1       9.193  10.755  18.741  0.00  0.00    +0.000 A 
ATOM      8  C   UNL     1       9.371  10.673  20.127  0.00  0.00    +0.000 A 
ATOM      9  C   UNL     1      10.303  11.496  20.764  0.00  0.00    +0.000 A 
ATOM     10  C   UNL     1      11.058  12.405  20.021  0.00  0.00    +0.000 A 
ATOM     11  C   UNL     1      10.872  12.485  18.635  0.00  0.00    +0.000 A 
ATOM     12  C   UNL     1       9.943  11.660  17.985  0.00  0.00    +0.000 A 
BRANCH  11  13
ATOM     13  N   UNL     1      11.659  13.446  17.850  0.00  0.00    +0.000 N 
ATOM     14  O   UNL     1      12.332  13.007  16.907  0.00  0.00    +0.000 OA
ATOM     15  O   UNL     1      11.603  14.639  18.180  0.00  0.00    +0.000 OA
ENDBRANCH  11  13
ENDBRANCH   6   7
ENDBRANCH   3   5
BRANCH   2  16
ATOM     16  C   UNL     1       5.891   6.080  16.926  0.00  0.00    +0.000 C 
BRANCH  16  17
ATOM     17  O   UNL     1       4.623   6.083  17.565  0.00  0.00    +0.000 OA
BRANCH  17  18
ATOM     18  C   UNL     1       3.972   4.875  17.683  0.00  0.00    +0.000 A 
ATOM     19  C   UNL     1       4.239   3.765  16.872  0.00  0.00    +0.000 A 
ATOM     20  C   UNL     1       3.529   2.577  17.041  0.00  0.00    +0.000 A 
ATOM     21  C   UNL     1       2.552   2.481  18.028  0.00  0.00    +0.000 A 
ATOM     22  C   UNL     1       2.265   3.572  18.859  0.00  0.00    +0.000 A 
ATOM     23  C   UNL     1       1.282   3.463  19.858  0.00  0.00    +0.000 A 
ATOM     24  C   UNL     1       0.987   4.537  20.693  0.00  0.00    +0.000 A 
ATOM     25  C   UNL     1       1.668   5.739  20.538  0.00  0.00    +0.000 A 
ATOM     26  C   UNL     1       2.649   5.862  19.550  0.00  0.00    +0.000 A 
ATOM     27  C   UNL     1       2.975   4.788  18.691  0.00  0.00    +0.000 A 
ENDBRANCH  17  18
ENDBRANCH  16  17
ENDBRANCH   2  16
TORSDOF 6
ENDMDL
MODEL 4
REMARK VINA RESULT:      -8.3      1.854      2.527
REMARK  Name = 
REMARK  6 active torsions:
REMARK  status: ('A' for Active; 'I' for Inactive)
REMARK    1  A    between atoms: C_2  and  C_3
REMARK    2  A    between atoms: C_3  and  O_4
REMARK    3  A    between atoms: O_4  and  C_5
REMARK    4  A    between atoms: N_15  and  N_16
REMARK    5  A    between atoms: C_17  and  C_18
REMARK    6  A    between atoms: C_22  and  N_23
REMARK                            x       y       z     vdW  Elec       q    Type
REMARK                         _______ _______ _______ _____ _____    ______ ____
ROOT
ATOM      1  O   UNL     1       7.362   7.199  16.692  0.00  0.00    +0.000 OA
ATOM      2  C   UNL     1       7.644   7.060  17.881  0.00  0.00    +0.000 C 
ATOM      3  N   UNL     1       8.271   8.017  18.672  0.00  0.00    +0.000 N 
ATOM      4  H   UNL     1       8.496   7.821  19.641  0.00  0.00    +0.000 HD
ENDROOT
BRANCH   3   5
ATOM      5  N   UNL     1       8.591   9.231  18.138  0.00  0.00    +0.000 NA
ATOM      6  C   UNL     1       9.333   9.996  18.870  0.00  0.00    +0.000 C 
BRANCH   6   7
ATOM      7  C   UNL     1       9.749  11.339  18.410  0.00  0.00    +0.000 A 
ATOM      8  C   UNL     1      11.030  11.550  17.887  0.00  0.00    +0.000 A 
ATOM      9  C   UNL     1      11.410  12.822  17.454  0.00  0.00    +0.000 A 
ATOM     10  C   UNL     1      10.514  13.889  17.543  0.00  0.00    +0.000 A 
ATOM     11  C   UNL     1       9.234  13.672  18.071  0.00  0.00    +0.000 A 
ATOM     12  C   UNL     1       8.841  12.397  18.504  0.00  0.00    +0.000 A 
BRANCH  11  13
ATOM     13  N   UNL     1       8.291  14.794  18.174  0.00  0.00    +0.000 N 
ATOM     14  O   UNL     1       7.271  14.629  18.859  0.00  0.00    +0.000 OA
ATOM     15  O   UNL     1       8.571  15.838  17.568  0.00  0.00    +0.000 OA
ENDBRANCH  11  13
ENDBRANCH   6   7
ENDBRANCH   3   5
BRANCH   2  16
ATOM     16  C   UNL     1       7.295   5.786  18.647  0.00  0.00    +0.000 C 
BRANCH  16  17
ATOM     17  O   UNL     1       5.928   5.806  19.031  0.00  0.00    +0.000 OA
BRANCH  17  18
ATOM     18  C   UNL     1       5.066   4.982  18.343  0.00  0.00    +0.000 A 
ATOM     19  C   UNL     1       5.397   4.336  17.145  0.00  0.00    +0.000 A 
ATOM     20  C   UNL     1       4.466   3.526  16.496  0.00  0.00    +0.000 A 
ATOM     21  C   UNL     1       3.198   3.343  17.042  0.00  0.00    +0.000 A 
ATOM     22  C   UNL     1       2.838   3.971  18.242  0.00  0.00    +0.000 A 
ATOM     23  C   UNL     1       1.559   3.774  18.790  0.00  0.00    +0.000 A 
ATOM     24  C   UNL     1       1.187   4.389  19.982  0.00  0.00    +0.000 A 
ATOM     25  C   UNL     1       2.089   5.214  20.643  0.00  0.00    +0.000 A 
ATOM     26  C   UNL     1       3.366   5.419  20.112  0.00  0.00    +0.000 A 
ATOM     27  C   UNL     1       3.774   4.804  18.907  0.00  0.00    +0.000 A 
ENDBRANCH  17  18
ENDBRANCH  16  17
ENDBRANCH   2  16
TORSDOF 6
ENDMDL
MODEL 5
REMARK VINA RESULT:      -8.2      1.901      2.604
REMARK  Name = 
REMARK  6 active torsions:
REMARK  status: ('A' for Active; 'I' for Inactive)
REMARK    1  A    between atoms: C_2  and  C_3
REMARK    2  A    between atoms: C_3  and  O_4
REMARK    3  A    between atoms: O_4  and  C_5
REMARK    4  A    between atoms: N_15  and  N_16
REMARK    5  A    between atoms: C_17  and  C_18
REMARK    6  A    between atoms: C_22  and  N_23
REMARK                            x       y       z     vdW  Elec       q    Type
REMARK                         _______ _______ _______ _____ _____    ______ ____
ROOT
ATOM      1  O   UNL     1       7.774   6.340  18.773  0.00  0.00    +0.000 OA
ATOM      2  C   UNL     1       7.244   6.955  17.850  0.00  0.00    +0.000 C 
ATOM      3  N   UNL     1       7.552   8.259  17.476  0.00  0.00    +0.000 N 
ATOM      4  H   UNL     1       7.053   8.712  16.719  0.00  0.00    +0.000 HD
ENDROOT
BRANCH   3   5
ATOM      5  N   UNL     1       8.534   8.938  18.138  0.00  0.00    +0.000 NA
ATOM      6  C   UNL     1       8.529  10.223  17.998  0.00  0.00    +0.000 C 
BRANCH   6   7
ATOM      7  C   UNL     1       9.541  11.075  18.659  0.00  0.00    +0.000 A 
ATOM      8  C   UNL     1      10.813  11.238  18.098  0.00  0.00    +0.000 A 
ATOM      9  C   UNL     1      11.760  12.047  18.731  0.00  0.00    +0.000 A 
ATOM     10  C   UNL     1      11.441  12.695  19.926  0.00  0.00    +0.000 A 
ATOM     11  C   UNL     1      10.167  12.525  20.484  0.00  0.00    +0.000 A 
ATOM     12  C   UNL     1       9.208  11.719  19.854  0.00  0.00    +0.000 A 
BRANCH  11  13
ATOM     13  N   UNL     1       9.830  13.198  21.745  0.00  0.00    +0.000 N 
ATOM     14  O   UNL     1       9.207  12.549  22.597  0.00  0.00    +0.000 OA
ATOM     15  O   UNL     1      10.188  14.377  21.881  0.00  0.00    +0.000 OA
ENDBRANCH  11  13
ENDBRANCH   6   7
ENDBRANCH   3   5
BRANCH   2  16
ATOM     16  C   UNL     1       6.172   6.318  16.969  0.00  0.00    +0.000 C 
BRANCH  16  17
ATOM     17  O   UNL     1       4.925   6.307  17.648  0.00  0.00    +0.000 OA
BRANCH  17  18
ATOM     18  C   UNL     1       4.198   5.139  17.616  0.00  0.00    +0.000 A 
ATOM     19  C   UNL     1       4.412   4.114  16.686  0.00  0.00    +0.000 A 
ATOM     20  C   UNL     1       3.625   2.963  16.706  0.00  0.00    +0.000 A 
ATOM     21  C   UNL     1       2.623   2.818  17.662  0.00  0.00    +0.000 A 
ATOM     22  C   UNL     1       2.387   3.823  18.609  0.00  0.00    +0.000 A 
ATOM     23  C   UNL     1       1.378   3.663  19.575  0.00  0.00    +0.000 A 
ATOM     24  C   UNL     1       1.134   4.652  20.525  0.00  0.00    +0.000 A 
ATOM     25  C   UNL     1       1.891   5.817  20.520  0.00  0.00    +0.000 A 
ATOM     26  C   UNL     1       2.899   5.989  19.566  0.00  0.00    +0.000 A 
ATOM     27  C   UNL     1       3.175   5.001  18.594  0.00  0.00    +0.000 A 
ENDBRANCH  17  18
ENDBRANCH  16  17
ENDBRANCH   2  16
TORSDOF 6
ENDMDL
MODEL 6
REMARK VINA RESULT:      -8.2      1.577      1.900
REMARK  Name = 
REMARK  6 active torsions:
REMARK  status: ('A' for Active; 'I' for Inactive)
REMARK    1  A    between atoms: C_2  and  C_3
REMARK    2  A    between atoms: C_3  and  O_4
REMARK    3  A    between atoms: O_4  and  C_5
REMARK    4  A    between atoms: N_15  and  N_16
REMARK    5  A    between atoms: C_17  and  C_18
REMARK    6  A    between atoms: C_22  and  N_23
REMARK                            x       y       z     vdW  Elec       q    Type
REMARK                         _______ _______ _______ _____ _____    ______ ____
ROOT
ATOM      1  O   UNL     1       7.507   5.878  19.918  0.00  0.00    +0.000 OA
ATOM      2  C   UNL     1       7.369   5.808  18.698  0.00  0.00    +0.000 C 
ATOM      3  N   UNL     1       7.701   6.815  17.797  0.00  0.00    +0.000 N 
ATOM      4  H   UNL     1       7.533   6.695  16.804  0.00  0.00    +0.000 HD
ENDROOT
BRANCH   3   5
ATOM      5  N   UNL     1       8.251   7.976  18.253  0.00  0.00    +0.000 NA
ATOM      6  C   UNL     1       7.893   9.055  17.637  0.00  0.00    +0.000 C 
BRANCH   6   7
ATOM      7  C   UNL     1       8.420  10.380  18.030  0.00  0.00    +0.000 A 
ATOM      8  C   UNL     1       8.054  11.532  17.325  0.00  0.00    +0.000 A 
ATOM      9  C   UNL     1       8.557  12.778  17.706  0.00  0.00    +0.000 A 
ATOM     10  C   UNL     1       9.429  12.878  18.792  0.00  0.00    +0.000 A 
ATOM     11  C   UNL     1       9.795  11.721  19.492  0.00  0.00    +0.000 A 
ATOM     12  C   UNL     1       9.291  10.466  19.119  0.00  0.00    +0.000 A 
BRANCH  11  13
ATOM     13  N   UNL     1      10.719  11.821  20.630  0.00  0.00    +0.000 N 
ATOM     14  O   UNL     1      10.240  12.097  21.739  0.00  0.00    +0.000 OA
ATOM     15  O   UNL     1      11.923  11.625  20.411  0.00  0.00    +0.000 OA
ENDBRANCH  11  13
ENDBRANCH   6   7
ENDBRANCH   3   5
BRANCH   2  16
ATOM     16  C   UNL     1       6.826   4.552  18.020  0.00  0.00    +0.000 C 
BRANCH  16  17
ATOM     17  O   UNL     1       5.905   4.909  17.000  0.00  0.00    +0.000 OA
BRANCH  17  18
ATOM     18  C   UNL     1       4.665   5.357  17.398  0.00  0.00    +0.000 A 
ATOM     19  C   UNL     1       4.329   6.712  17.519  0.00  0.00    +0.000 A 
ATOM     20  C   UNL     1       3.056   7.091  17.941  0.00  0.00    +0.000 A 
ATOM     21  C   UNL     1       2.100   6.122  18.237  0.00  0.00    +0.000 A 
ATOM     22  C   UNL     1       2.404   4.759  18.121  0.00  0.00    +0.000 A 
ATOM     23  C   UNL     1       1.429   3.789  18.415  0.00  0.00    +0.000 A 
ATOM     24  C   UNL     1       1.715   2.431  18.302  0.00  0.00    +0.000 A 
ATOM     25  C   UNL     1       2.981   2.023  17.899  0.00  0.00    +0.000 A 
ATOM     26  C   UNL     1       3.959   2.976  17.602  0.00  0.00    +0.000 A 
ATOM     27  C   UNL     1       3.698   4.361  17.701  0.00  0.00    +0.000 A 
ENDBRANCH  17  18
ENDBRANCH  16  17
ENDBRANCH   2  16
TORSDOF 6
ENDMDL
MODEL 7
REMARK VINA RESULT:      -8.2      5.968      8.085
REMARK  Name = 
REMARK  6 active torsions:
REMARK  status: ('A' for Active; 'I' for Inactive)
REMARK    1  A    between atoms: C_2  and  C_3
REMARK    2  A    between atoms: C_3  and  O_4
REMARK    3  A    between atoms: O_4  and  C_5
REMARK    4  A    between atoms: N_15  and  N_16
REMARK    5  A    between atoms: C_17  and  C_18
REMARK    6  A    between atoms: C_22  and  N_23
REMARK                            x       y       z     vdW  Elec       q    Type
REMARK                         _______ _______ _______ _____ _____    ______ ____
ROOT
ATOM      1  O   UNL     1       0.915   4.324  20.509  0.00  0.00    +0.000 OA
ATOM      2  C   UNL     1       2.009   4.844  20.292  0.00  0.00    +0.000 C 
ATOM      3  N   UNL     1       2.307   6.189  20.483  0.00  0.00    +0.000 N 
ATOM      4  H   UNL     1       3.226   6.551  20.255  0.00  0.00    +0.000 HD
ENDROOT
BRANCH   3   5
ATOM      5  N   UNL     1       1.353   7.029  20.977  0.00  0.00    +0.000 NA
ATOM      6  C   UNL     1       1.563   8.293  20.799  0.00  0.00    +0.000 C 
BRANCH   6   7
ATOM      7  C   UNL     1       0.608   9.310  21.289  0.00  0.00    +0.000 A 
ATOM      8  C   UNL     1       0.215   9.332  22.633  0.00  0.00    +0.000 A 
ATOM      9  C   UNL     1      -0.686  10.298  23.085  0.00  0.00    +0.000 A 
ATOM     10  C   UNL     1      -1.200  11.246  22.198  0.00  0.00    +0.000 A 
ATOM     11  C   UNL     1      -0.805  11.217  20.854  0.00  0.00    +0.000 A 
ATOM     12  C   UNL     1       0.102  10.254  20.391  0.00  0.00    +0.000 A 
BRANCH  11  13
ATOM     13  N   UNL     1      -1.350  12.208  19.915  0.00  0.00    +0.000 N 
ATOM     14  O   UNL     1      -0.546  12.921  19.298  0.00  0.00    +0.000 OA
ATOM     15  O   UNL     1      -2.582  12.272  19.798  0.00  0.00    +0.000 OA
ENDBRANCH  11  13
ENDBRANCH   6   7
ENDBRANCH   3   5
BRANCH   2  16
ATOM     16  C   UNL     1       3.202   4.030  19.796  0.00  0.00    +0.000 C 
BRANCH  16  17
ATOM     17  O   UNL     1       3.619   4.501  18.523  0.00  0.00    +0.000 OA
BRANCH  17  18
ATOM     18  C   UNL     1       4.947   4.835  18.377  0.00  0.00    +0.000 A 
ATOM     19  C   UNL     1       5.762   5.265  19.431  0.00  0.00    +0.000 A 
ATOM     20  C   UNL     1       7.096   5.600  19.204  0.00  0.00    +0.000 A 
ATOM     21  C   UNL     1       7.633   5.499  17.923  0.00  0.00    +0.000 A 
ATOM     22  C   UNL     1       6.845   5.067  16.849  0.00  0.00    +0.000 A 
ATOM     23  C   UNL     1       7.400   4.961  15.561  0.00  0.00    +0.000 A 
ATOM     24  C   UNL     1       6.630   4.531  14.483  0.00  0.00    +0.000 A 
ATOM     25  C   UNL     1       5.293   4.205  14.677  0.00  0.00    +0.000 A 
ATOM     26  C   UNL     1       4.728   4.304  15.952  0.00  0.00    +0.000 A 
ATOM     27  C   UNL     1       5.485   4.731  17.066  0.00  0.00    +0.000 A 
ENDBRANCH  17  18
ENDBRANCH  16  17
ENDBRANCH   2  16
TORSDOF 6
ENDMDL
MODEL 8
REMARK VINA RESULT:      -8.1      1.569      1.743
REMARK  Name = 
REMARK  6 active torsions:
REMARK  status: ('A' for Active; 'I' for Inactive)
REMARK    1  A    between atoms: C_2  and  C_3
REMARK    2  A    between atoms: C_3  and  O_4
REMARK    3  A    between atoms: O_4  and  C_5
REMARK    4  A    between atoms: N_15  and  N_16
REMARK    5  A    between atoms: C_17  and  C_18
REMARK    6  A    between atoms: C_22  and  N_23
REMARK                            x       y       z     vdW  Elec       q    Type
REMARK                         _______ _______ _______ _____ _____    ______ ____
ROOT
ATOM      1  O   UNL     1       8.020   6.940  16.179  0.00  0.00    +0.000 OA
ATOM      2  C   UNL     1       7.654   6.918  17.353  0.00  0.00    +0.000 C 
ATOM      3  N   UNL     1       7.705   7.999  18.227  0.00  0.00    +0.000 N 
ATOM      4  H   UNL     1       7.410   7.898  19.191  0.00  0.00    +0.000 HD
ENDROOT
BRANCH   3   5
ATOM      5  N   UNL     1       8.161   9.206  17.784  0.00  0.00    +0.000 NA
ATOM      6  C   UNL     1       8.883   9.881  18.617  0.00  0.00    +0.000 C 
BRANCH   6   7
ATOM      7  C   UNL     1       9.435  11.207  18.263  0.00  0.00    +0.000 A 
ATOM      8  C   UNL     1      10.727  11.324  17.735  0.00  0.00    +0.000 A 
ATOM      9  C   UNL     1      11.236  12.581  17.402  0.00  0.00    +0.000 A 
ATOM     10  C   UNL     1      10.461  13.725  17.597  0.00  0.00    +0.000 A 
ATOM     11  C   UNL     1       9.171  13.602  18.129  0.00  0.00    +0.000 A 
ATOM     12  C   UNL     1       8.648  12.344  18.462  0.00  0.00    +0.000 A 
BRANCH  11  13
ATOM     13  N   UNL     1       8.355  14.804  18.344  0.00  0.00    +0.000 N 
ATOM     14  O   UNL     1       7.557  15.127  17.452  0.00  0.00    +0.000 OA
ATOM     15  O   UNL     1       8.514  15.425  19.404  0.00  0.00    +0.000 OA
ENDBRANCH  11  13
ENDBRANCH   6   7
ENDBRANCH   3   5
BRANCH   2  16
ATOM     16  C   UNL     1       7.060   5.663  17.987  0.00  0.00    +0.000 C 
BRANCH  16  17
ATOM     17  O   UNL     1       5.999   5.167  17.183  0.00  0.00    +0.000 OA
BRANCH  17  18
ATOM     18  C   UNL     1       4.725   5.597  17.482  0.00  0.00    +0.000 A 
ATOM     19  C   UNL     1       4.360   6.946  17.570  0.00  0.00    +0.000 A 
ATOM     20  C   UNL     1       3.052   7.306  17.892  0.00  0.00    +0.000 A 
ATOM     21  C   UNL     1       2.092   6.322  18.119  0.00  0.00    +0.000 A 
ATOM     22  C   UNL     1       2.425   4.964  18.034  0.00  0.00    +0.000 A 
ATOM     23  C   UNL     1       1.447   3.979  18.257  0.00  0.00    +0.000 A 
ATOM     24  C   UNL     1       1.762   2.626  18.174  0.00  0.00    +0.000 A 
ATOM     25  C   UNL     1       3.061   2.237  17.870  0.00  0.00    +0.000 A 
ATOM     26  C   UNL     1       4.044   3.205  17.644  0.00  0.00    +0.000 A 
ATOM     27  C   UNL     1       3.754   4.586  17.716  0.00  0.00    +0.000 A 
ENDBRANCH  17  18
ENDBRANCH  16  17
ENDBRANCH   2  16
TORSDOF 6
ENDMDL
MODEL 9
REMARK VINA RESULT:      -8.1      1.903      2.092
REMARK  Name = 
REMARK  6 active torsions:
REMARK  status: ('A' for Active; 'I' for Inactive)
REMARK    1  A    between atoms: C_2  and  C_3
REMARK    2  A    between atoms: C_3  and  O_4
REMARK    3  A    between atoms: O_4  and  C_5
REMARK    4  A    between atoms: N_15  and  N_16
REMARK    5  A    between atoms: C_17  and  C_18
REMARK    6  A    between atoms: C_22  and  N_23
REMARK                            x       y       z     vdW  Elec       q    Type
REMARK                         _______ _______ _______ _____ _____    ______ ____
ROOT
ATOM      1  O   UNL     1       7.713   6.724  16.315  0.00  0.00    +0.000 OA
ATOM      2  C   UNL     1       7.664   6.653  17.542  0.00  0.00    +0.000 C 
ATOM      3  N   UNL     1       7.989   7.684  18.417  0.00  0.00    +0.000 N 
ATOM      4  H   UNL     1       7.949   7.543  19.420  0.00  0.00    +0.000 HD
ENDROOT
BRANCH   3   5
ATOM      5  N   UNL     1       8.369   8.897  17.921  0.00  0.00    +0.000 NA
ATOM      6  C   UNL     1       8.922   9.707  18.763  0.00  0.00    +0.000 C 
BRANCH   6   7
ATOM      7  C   UNL     1       9.377  11.054  18.355  0.00  0.00    +0.000 A 
ATOM      8  C   UNL     1      10.625  11.233  17.747  0.00  0.00    +0.000 A 
ATOM      9  C   UNL     1      11.042  12.509  17.364  0.00  0.00    +0.000 A 
ATOM     10  C   UNL     1      10.217  13.612  17.587  0.00  0.00    +0.000 A 
ATOM     11  C   UNL     1       8.970  13.428  18.199  0.00  0.00    +0.000 A 
ATOM     12  C   UNL     1       8.539  12.149  18.583  0.00  0.00    +0.000 A 
BRANCH  11  13
ATOM     13  N   UNL     1       8.101  14.587  18.444  0.00  0.00    +0.000 N 
ATOM     14  O   UNL     1       7.473  14.622  19.512  0.00  0.00    +0.000 OA
ATOM     15  O   UNL     1       8.047  15.460  17.567  0.00  0.00    +0.000 OA
ENDBRANCH  11  13
ENDBRANCH   6   7
ENDBRANCH   3   5
BRANCH   2  16
ATOM     16  C   UNL     1       7.196   5.387  18.256  0.00  0.00    +0.000 C 
BRANCH  16  17
ATOM     17  O   UNL     1       6.034   4.871  17.624  0.00  0.00    +0.000 OA
BRANCH  17  18
ATOM     18  C   UNL     1       4.816   5.342  18.060  0.00  0.00    +0.000 A 
ATOM     19  C   UNL     1       4.262   6.562  17.652  0.00  0.00    +0.000 A 
ATOM     20  C   UNL     1       3.027   6.980  18.148  0.00  0.00    +0.000 A 
ATOM     21  C   UNL     1       2.328   6.180  19.048  0.00  0.00    +0.000 A 
ATOM     22  C   UNL     1       2.854   4.952  19.471  0.00  0.00    +0.000 A 
ATOM     23  C   UNL     1       2.136   4.148  20.374  0.00  0.00    +0.000 A 
ATOM     24  C   UNL     1       2.643   2.924  20.802  0.00  0.00    +0.000 A 
ATOM     25  C   UNL     1       3.879   2.488  20.337  0.00  0.00    +0.000 A 
ATOM     26  C   UNL     1       4.603   3.276  19.438  0.00  0.00    +0.000 A 
ATOM     27  C   UNL     1       4.111   4.519  18.980  0.00  0.00    +0.000 A 
ENDBRANCH  17  18
ENDBRANCH  16  17
ENDBRANCH   2  16
TORSDOF 6
ENDMDL
