MODEL 1
REMARK VINA RESULT:      -8.4      0.000      0.000
REMARK  Name = 
REMARK  9 active torsions:
REMARK  status: ('A' for Active; 'I' for Inactive)
REMARK    1  A    between atoms: C_1  and  O_2
REMARK    2  A    between atoms: O_2  and  C_3
REMARK    3  A    between atoms: C_6  and  C_7
REMARK    4  A    between atoms: C_10  and  S_11
REMARK    5  A    between atoms: S_11  and  N_14
REMARK    6  A    between atoms: N_14  and  C_15
REMARK    7  A    between atoms: C_15  and  C_16
REMARK    8  A    between atoms: C_15  and  C_19
REMARK    9  A    between atoms: C_16  and  O_18
REMARK                            x       y       z     vdW  Elec       q    Type
REMARK                         _______ _______ _______ _____ _____    ______ ____
ROOT
ATOM      1  S   UNL     1       0.499  10.492  20.571  0.00  0.00    +0.000 S 
ATOM      2  O   UNL     1      -0.737   9.940  21.069  0.00  0.00    +0.000 OA
ATOM      3  O   UNL     1       1.477  11.137  21.427  0.00  0.00    +0.000 OA
ENDROOT
BRANCH   1   7
ATOM      4  C   UNL     1       2.803   7.241  18.308  0.00  0.00    +0.000 A 
ATOM      5  C   UNL     1       2.387   7.054  19.639  0.00  0.00    +0.000 A 
ATOM      6  C   UNL     1       1.650   8.027  20.313  0.00  0.00    +0.000 A 
ATOM      7  C   UNL     1       1.339   9.225  19.671  0.00  0.00    +0.000 A 
ATOM      8  C   UNL     1       1.696   9.433  18.346  0.00  0.00    +0.000 A 
ATOM      9  C   UNL     1       2.409   8.436  17.668  0.00  0.00    +0.000 A 
BRANCH   4  13
ATOM     10  C   UNL     1       5.212   4.329  16.215  0.00  0.00    +0.000 A 
ATOM     11  C   UNL     1       5.481   5.689  16.081  0.00  0.00    +0.000 A 
ATOM     12  C   UNL     1       4.739   6.635  16.798  0.00  0.00    +0.000 A 
ATOM     13  C   UNL     1       3.678   6.250  17.637  0.00  0.00    +0.000 A 
ATOM     14  C   UNL     1       3.430   4.871  17.756  0.00  0.00    +0.000 A 
ATOM     15  C   UNL     1       4.187   3.922  17.062  0.00  0.00    +0.000 A 
BRANCH  10  17
ATOM     16  C   UNL     1       6.234   3.963  14.120  0.00  0.00    +0.000 C 
ATOM     17  O   UNL     1       5.969   3.498  15.439  0.00  0.00    +0.000 OA
ENDBRANCH  10  17
ENDBRANCH   4  13
ENDBRANCH   1   7
BRANCH   1  18
ATOM     18  N   UNL     1       0.079  11.624  19.391  0.00  0.00    +0.000 NA
ATOM     19  H   UNL     1       0.277  11.241  18.464  0.00  0.00    +0.000 HD
BRANCH  18  20
ATOM     20  C   UNL     1      -1.236  12.319  19.530  0.00  0.00    +0.000 C 
BRANCH  20  21
ATOM     21  C   UNL     1      -2.219  11.808  18.446  0.00  0.00    +0.000 C 
ATOM     22  C   UNL     1      -1.613  10.607  17.689  0.00  0.00    +0.000 C 
ATOM     23  C   UNL     1      -2.535  10.064  16.601  0.00  0.00    +0.000 C 
ATOM     24  C   UNL     1      -3.930   9.771  17.139  0.00  0.00    +0.000 C 
ATOM     25  C   UNL     1      -4.550  10.996  17.809  0.00  0.00    +0.000 C 
ATOM     26  C   UNL     1      -3.645  11.506  18.943  0.00  0.00    +0.000 C 
ATOM     27  O   UNL     1      -4.711  12.039  16.843  0.00  0.00    +0.000 OA
ATOM     28  C   UNL     1      -5.992  12.612  17.078  0.00  0.00    +0.000 C 
ATOM     29  C   UNL     1      -6.691  11.733  18.083  0.00  0.00    +0.000 C 
ATOM     30  O   UNL     1      -5.824  10.635  18.336  0.00  0.00    +0.000 OA
ENDBRANCH  20  21
BRANCH  20  31
ATOM     31  C   UNL     1      -1.072  13.848  19.613  0.00  0.00    +0.000 C 
ATOM     32  O   UNL     1      -0.484  14.550  18.808  0.00  0.00    +0.000 OA
BRANCH  31  33
ATOM     33  O   UNL     1      -1.656  14.385  20.715  0.00  0.00    +0.000 OA
ATOM     34  H   UNL     1      -1.623  15.369  20.750  0.00  0.00    +0.000 HD
ENDBRANCH  31  33
ENDBRANCH  20  31
ENDBRANCH  18  20
ENDBRANCH   1  18
TORSDOF 8
ENDMDL
MODEL 2
REMARK VINA RESULT:      -8.3      2.606      3.373
REMARK  Name = 
REMARK  9 active torsions:
REMARK  status: ('A' for Active; 'I' for Inactive)
REMARK    1  A    between atoms: C_1  and  O_2
REMARK    2  A    between atoms: O_2  and  C_3
REMARK    3  A    between atoms: C_6  and  C_7
REMARK    4  A    between atoms: C_10  and  S_11
REMARK    5  A    between atoms: S_11  and  N_14
REMARK    6  A    between atoms: N_14  and  C_15
REMARK    7  A    between atoms: C_15  and  C_16
REMARK    8  A    between atoms: C_15  and  C_19
REMARK    9  A    between atoms: C_16  and  O_18
REMARK                            x       y       z     vdW  Elec       q    Type
REMARK                         _______ _______ _______ _____ _____    ______ ____
ROOT
ATOM      1  S   UNL     1       0.579   9.153  21.451  0.00  0.00    +0.000 S 
ATOM      2  O   UNL     1      -0.643   8.459  21.780  0.00  0.00    +0.000 OA
ATOM      3  O   UNL     1       1.528   9.597  22.455  0.00  0.00    +0.000 OA
ENDROOT
BRANCH   1   7
ATOM      4  C   UNL     1       3.006   6.628  18.497  0.00  0.00    +0.000 A 
ATOM      5  C   UNL     1       2.620   6.121  19.751  0.00  0.00    +0.000 A 
ATOM      6  C   UNL     1       1.846   6.874  20.632  0.00  0.00    +0.000 A 
ATOM      7  C   UNL     1       1.467   8.170  20.283  0.00  0.00    +0.000 A 
ATOM      8  C   UNL     1       1.793   8.693  19.039  0.00  0.00    +0.000 A 
ATOM      9  C   UNL     1       2.545   7.915  18.148  0.00  0.00    +0.000 A 
BRANCH   4  13
ATOM     10  C   UNL     1       5.511   4.357  15.808  0.00  0.00    +0.000 A 
ATOM     11  C   UNL     1       5.510   5.748  15.758  0.00  0.00    +0.000 A 
ATOM     12  C   UNL     1       4.742   6.492  16.663  0.00  0.00    +0.000 A 
ATOM     13  C   UNL     1       3.919   5.863  17.615  0.00  0.00    +0.000 A 
ATOM     14  C   UNL     1       3.942   4.458  17.644  0.00  0.00    +0.000 A 
ATOM     15  C   UNL     1       4.729   3.712  16.760  0.00  0.00    +0.000 A 
BRANCH  10  17
ATOM     16  C   UNL     1       5.885   3.992  13.507  0.00  0.00    +0.000 C 
ATOM     17  O   UNL     1       6.264   3.733  14.854  0.00  0.00    +0.000 OA
ENDBRANCH  10  17
ENDBRANCH   4  13
ENDBRANCH   1   7
BRANCH   1  18
ATOM     18  N   UNL     1       0.132  10.526  20.577  0.00  0.00    +0.000 NA
ATOM     19  H   UNL     1      -0.767  10.362  20.118  0.00  0.00    +0.000 HD
BRANCH  18  20
ATOM     20  C   UNL     1       0.277  11.854  21.245  0.00  0.00    +0.000 C 
BRANCH  20  21
ATOM     21  C   UNL     1      -1.116  12.512  21.418  0.00  0.00    +0.000 C 
ATOM     22  C   UNL     1      -1.899  12.477  20.088  0.00  0.00    +0.000 C 
ATOM     23  C   UNL     1      -3.280  13.119  20.196  0.00  0.00    +0.000 C 
ATOM     24  C   UNL     1      -4.080  12.545  21.359  0.00  0.00    +0.000 C 
ATOM     25  C   UNL     1      -3.325  12.667  22.682  0.00  0.00    +0.000 C 
ATOM     26  C   UNL     1      -1.958  11.968  22.588  0.00  0.00    +0.000 C 
ATOM     27  O   UNL     1      -3.117  14.048  22.989  0.00  0.00    +0.000 OA
ATOM     28  C   UNL     1      -3.386  14.197  24.378  0.00  0.00    +0.000 C 
ATOM     29  C   UNL     1      -3.974  12.895  24.856  0.00  0.00    +0.000 C 
ATOM     30  O   UNL     1      -4.104  12.063  23.711  0.00  0.00    +0.000 OA
ENDBRANCH  20  21
BRANCH  20  31
ATOM     31  C   UNL     1       1.346  12.727  20.562  0.00  0.00    +0.000 C 
ATOM     32  O   UNL     1       1.579  12.768  19.366  0.00  0.00    +0.000 OA
BRANCH  31  33
ATOM     33  O   UNL     1       2.054  13.484  21.440  0.00  0.00    +0.000 OA
ATOM     34  H   UNL     1       2.299  13.015  22.271  0.00  0.00    +0.000 HD
ENDBRANCH  31  33
ENDBRANCH  20  31
ENDBRANCH  18  20
ENDBRANCH   1  18
TORSDOF 8
ENDMDL
MODEL 3
REMARK VINA RESULT:      -8.2      1.615      2.497
REMARK  Name = 
REMARK  9 active torsions:
REMARK  status: ('A' for Active; 'I' for Inactive)
REMARK    1  A    between atoms: C_1  and  O_2
REMARK    2  A    between atoms: O_2  and  C_3
REMARK    3  A    between atoms: C_6  and  C_7
REMARK    4  A    between atoms: C_10  and  S_11
REMARK    5  A    between atoms: S_11  and  N_14
REMARK    6  A    between atoms: N_14  and  C_15
REMARK    7  A    between atoms: C_15  and  C_16
REMARK    8  A    between atoms: C_15  and  C_19
REMARK    9  A    between atoms: C_16  and  O_18
REMARK                            x       y       z     vdW  Elec       q    Type
REMARK                         _______ _______ _______ _____ _____    ______ ____
ROOT
ATOM      1  S   UNL     1       0.282  10.389  20.770  0.00  0.00    +0.000 S 
ATOM      2  O   UNL     1       0.049   9.861  22.092  0.00  0.00    +0.000 OA
ATOM      3  O   UNL     1       0.938  11.660  20.532  0.00  0.00    +0.000 OA
ENDROOT
BRANCH   1   7
ATOM      4  C   UNL     1       2.662   7.255  18.421  0.00  0.00    +0.000 A 
ATOM      5  C   UNL     1       2.312   7.052  19.769  0.00  0.00    +0.000 A 
ATOM      6  C   UNL     1       1.552   7.987  20.470  0.00  0.00    +0.000 A 
ATOM      7  C   UNL     1       1.151   9.164  19.839  0.00  0.00    +0.000 A 
ATOM      8  C   UNL     1       1.441   9.384  18.500  0.00  0.00    +0.000 A 
ATOM      9  C   UNL     1       2.178   8.424  17.795  0.00  0.00    +0.000 A 
BRANCH   4  13
ATOM     10  C   UNL     1       5.146   4.488  16.224  0.00  0.00    +0.000 A 
ATOM     11  C   UNL     1       5.430   5.850  16.207  0.00  0.00    +0.000 A 
ATOM     12  C   UNL     1       4.662   6.746  16.960  0.00  0.00    +0.000 A 
ATOM     13  C   UNL     1       3.560   6.309  17.718  0.00  0.00    +0.000 A 
ATOM     14  C   UNL     1       3.298   4.928  17.718  0.00  0.00    +0.000 A 
ATOM     15  C   UNL     1       4.080   4.027  16.988  0.00  0.00    +0.000 A 
BRANCH  10  17
ATOM     16  C   UNL     1       6.532   4.379  14.317  0.00  0.00    +0.000 C 
ATOM     17  O   UNL     1       5.933   3.711  15.421  0.00  0.00    +0.000 OA
ENDBRANCH  10  17
ENDBRANCH   4  13
ENDBRANCH   1   7
BRANCH   1  18
ATOM     18  N   UNL     1      -1.226  10.482  20.017  0.00  0.00    +0.000 NA
ATOM     19  H   UNL     1      -1.932  10.041  20.611  0.00  0.00    +0.000 HD
BRANCH  18  20
ATOM     20  C   UNL     1      -1.622  11.789  19.412  0.00  0.00    +0.000 C 
BRANCH  20  21
ATOM     21  C   UNL     1      -2.914  12.314  20.091  0.00  0.00    +0.000 C 
ATOM     22  C   UNL     1      -2.658  13.684  20.753  0.00  0.00    +0.000 C 
ATOM     23  C   UNL     1      -3.896  14.248  21.446  0.00  0.00    +0.000 C 
ATOM     24  C   UNL     1      -5.104  14.265  20.517  0.00  0.00    +0.000 C 
ATOM     25  C   UNL     1      -5.395  12.881  19.939  0.00  0.00    +0.000 C 
ATOM     26  C   UNL     1      -4.164  12.340  19.191  0.00  0.00    +0.000 C 
ATOM     27  O   UNL     1      -5.724  11.979  20.999  0.00  0.00    +0.000 OA
ATOM     28  C   UNL     1      -6.828  11.207  20.543  0.00  0.00    +0.000 C 
ATOM     29  C   UNL     1      -7.294  11.824  19.249  0.00  0.00    +0.000 C 
ATOM     30  O   UNL     1      -6.497  12.982  19.041  0.00  0.00    +0.000 OA
ENDBRANCH  20  21
BRANCH  20  31
ATOM     31  C   UNL     1      -1.657  11.724  17.875  0.00  0.00    +0.000 C 
ATOM     32  O   UNL     1      -2.046  10.780  17.207  0.00  0.00    +0.000 OA
BRANCH  31  33
ATOM     33  O   UNL     1      -1.190  12.854  17.284  0.00  0.00    +0.000 OA
ATOM     34  H   UNL     1      -1.219  13.652  17.860  0.00  0.00    +0.000 HD
ENDBRANCH  31  33
ENDBRANCH  20  31
ENDBRANCH  18  20
ENDBRANCH   1  18
TORSDOF 8
ENDMDL
MODEL 4
REMARK VINA RESULT:      -8.1      0.403      1.085
REMARK  Name = 
REMARK  9 active torsions:
REMARK  status: ('A' for Active; 'I' for Inactive)
REMARK    1  A    between atoms: C_1  and  O_2
REMARK    2  A    between atoms: O_2  and  C_3
REMARK    3  A    between atoms: C_6  and  C_7
REMARK    4  A    between atoms: C_10  and  S_11
REMARK    5  A    between atoms: S_11  and  N_14
REMARK    6  A    between atoms: N_14  and  C_15
REMARK    7  A    between atoms: C_15  and  C_16
REMARK    8  A    between atoms: C_15  and  C_19
REMARK    9  A    between atoms: C_16  and  O_18
REMARK                            x       y       z     vdW  Elec       q    Type
REMARK                         _______ _______ _______ _____ _____    ______ ____
ROOT
ATOM      1  S   UNL     1       0.270  10.124  20.344  0.00  0.00    +0.000 S 
ATOM      2  O   UNL     1      -0.947   9.394  20.606  0.00  0.00    +0.000 OA
ATOM      3  O   UNL     1       0.996  10.844  21.373  0.00  0.00    +0.000 OA
ENDROOT
BRANCH   1   7
ATOM      4  C   UNL     1       3.119   7.214  18.243  0.00  0.00    +0.000 A 
ATOM      5  C   UNL     1       2.722   8.418  17.636  0.00  0.00    +0.000 A 
ATOM      6  C   UNL     1       1.888   9.323  18.292  0.00  0.00    +0.000 A 
ATOM      7  C   UNL     1       1.410   9.021  19.567  0.00  0.00    +0.000 A 
ATOM      8  C   UNL     1       1.810   7.863  20.218  0.00  0.00    +0.000 A 
ATOM      9  C   UNL     1       2.673   6.975  19.561  0.00  0.00    +0.000 A 
BRANCH   4  13
ATOM     10  C   UNL     1       5.294   4.287  15.927  0.00  0.00    +0.000 A 
ATOM     11  C   UNL     1       5.679   5.625  15.906  0.00  0.00    +0.000 A 
ATOM     12  C   UNL     1       5.012   6.569  16.696  0.00  0.00    +0.000 A 
ATOM     13  C   UNL     1       3.914   6.210  17.497  0.00  0.00    +0.000 A 
ATOM     14  C   UNL     1       3.548   4.852  17.501  0.00  0.00    +0.000 A 
ATOM     15  C   UNL     1       4.229   3.901  16.733  0.00  0.00    +0.000 A 
BRANCH  10  17
ATOM     16  C   UNL     1       6.007   3.852  13.720  0.00  0.00    +0.000 C 
ATOM     17  O   UNL     1       5.985   3.460  15.087  0.00  0.00    +0.000 OA
ENDBRANCH  10  17
ENDBRANCH   4  13
ENDBRANCH   1   7
BRANCH   1  18
ATOM     18  N   UNL     1      -0.096  11.251  19.141  0.00  0.00    +0.000 NA
ATOM     19  H   UNL     1      -0.001  10.814  18.222  0.00  0.00    +0.000 HD
BRANCH  18  20
ATOM     20  C   UNL     1      -1.313  12.097  19.326  0.00  0.00    +0.000 C 
BRANCH  20  21
ATOM     21  C   UNL     1      -2.353  11.770  18.224  0.00  0.00    +0.000 C 
ATOM     22  C   UNL     1      -1.794  10.713  17.249  0.00  0.00    +0.000 C 
ATOM     23  C   UNL     1      -2.774  10.355  16.135  0.00  0.00    +0.000 C 
ATOM     24  C   UNL     1      -4.142   9.975  16.688  0.00  0.00    +0.000 C 
ATOM     25  C   UNL     1      -4.719  11.071  17.582  0.00  0.00    +0.000 C 
ATOM     26  C   UNL     1      -3.755  11.387  18.737  0.00  0.00    +0.000 C 
ATOM     27  O   UNL     1      -4.922  12.259  16.812  0.00  0.00    +0.000 OA
ATOM     28  C   UNL     1      -6.185  12.782  17.202  0.00  0.00    +0.000 C 
ATOM     29  C   UNL     1      -6.838  11.748  18.083  0.00  0.00    +0.000 C 
ATOM     30  O   UNL     1      -5.967  10.625  18.106  0.00  0.00    +0.000 OA
ENDBRANCH  20  21
BRANCH  20  31
ATOM     31  C   UNL     1      -0.959  13.586  19.489  0.00  0.00    +0.000 C 
ATOM     32  O   UNL     1      -0.961  14.212  20.536  0.00  0.00    +0.000 OA
BRANCH  31  33
ATOM     33  O   UNL     1      -0.636  14.187  18.315  0.00  0.00    +0.000 OA
ATOM     34  H   UNL     1       0.189  13.843  17.899  0.00  0.00    +0.000 HD
ENDBRANCH  31  33
ENDBRANCH  20  31
ENDBRANCH  18  20
ENDBRANCH   1  18
TORSDOF 8
ENDMDL
MODEL 5
REMARK VINA RESULT:      -8.1      3.519      9.913
REMARK  Name = 
REMARK  9 active torsions:
REMARK  status: ('A' for Active; 'I' for Inactive)
REMARK    1  A    between atoms: C_1  and  O_2
REMARK    2  A    between atoms: O_2  and  C_3
REMARK    3  A    between atoms: C_6  and  C_7
REMARK    4  A    between atoms: C_10  and  S_11
REMARK    5  A    between atoms: S_11  and  N_14
REMARK    6  A    between atoms: N_14  and  C_15
REMARK    7  A    between atoms: C_15  and  C_16
REMARK    8  A    between atoms: C_15  and  C_19
REMARK    9  A    between atoms: C_16  and  O_18
REMARK                            x       y       z     vdW  Elec       q    Type
REMARK                         _______ _______ _______ _____ _____    ______ ____
ROOT
ATOM      1  S   UNL     1       2.085   5.034  19.978  0.00  0.00    +0.000 S 
ATOM      2  O   UNL     1       3.185   4.890  20.901  0.00  0.00    +0.000 OA
ATOM      3  O   UNL     1       0.783   4.438  20.204  0.00  0.00    +0.000 OA
ENDROOT
BRANCH   1   7
ATOM      4  C   UNL     1       1.291   9.485  19.232  0.00  0.00    +0.000 A 
ATOM      5  C   UNL     1       1.053   8.898  20.487  0.00  0.00    +0.000 A 
ATOM      6  C   UNL     1       1.334   7.554  20.726  0.00  0.00    +0.000 A 
ATOM      7  C   UNL     1       1.835   6.760  19.694  0.00  0.00    +0.000 A 
ATOM      8  C   UNL     1       2.121   7.309  18.452  0.00  0.00    +0.000 A 
ATOM      9  C   UNL     1       1.864   8.669  18.233  0.00  0.00    +0.000 A 
BRANCH   4  13
ATOM     10  C   UNL     1       0.106  13.595  18.626  0.00  0.00    +0.000 A 
ATOM     11  C   UNL     1       1.437  13.219  18.467  0.00  0.00    +0.000 A 
ATOM     12  C   UNL     1       1.819  11.879  18.609  0.00  0.00    +0.000 A 
ATOM     13  C   UNL     1       0.887  10.884  18.956  0.00  0.00    +0.000 A 
ATOM     14  C   UNL     1      -0.450  11.292  19.108  0.00  0.00    +0.000 A 
ATOM     15  C   UNL     1      -0.840  12.625  18.940  0.00  0.00    +0.000 A 
BRANCH  10  17
ATOM     16  C   UNL     1       0.815  15.795  19.100  0.00  0.00    +0.000 C 
ATOM     17  O   UNL     1      -0.148  14.932  18.506  0.00  0.00    +0.000 OA
ENDBRANCH  10  17
ENDBRANCH   4  13
ENDBRANCH   1   7
BRANCH   1  18
ATOM     18  N   UNL     1       2.627   4.448  18.490  0.00  0.00    +0.000 NA
ATOM     19  H   UNL     1       2.731   5.225  17.834  0.00  0.00    +0.000 HD
BRANCH  18  20
ATOM     20  C   UNL     1       3.747   3.460  18.497  0.00  0.00    +0.000 C 
BRANCH  20  21
ATOM     21  C   UNL     1       4.934   4.004  17.661  0.00  0.00    +0.000 C 
ATOM     22  C   UNL     1       4.921   3.393  16.244  0.00  0.00    +0.000 C 
ATOM     23  C   UNL     1       6.075   3.887  15.375  0.00  0.00    +0.000 C 
ATOM     24  C   UNL     1       6.154   5.409  15.355  0.00  0.00    +0.000 C 
ATOM     25  C   UNL     1       6.253   5.992  16.763  0.00  0.00    +0.000 C 
ATOM     26  C   UNL     1       5.058   5.539  17.619  0.00  0.00    +0.000 C 
ATOM     27  O   UNL     1       7.461   5.543  17.383  0.00  0.00    +0.000 OA
ATOM     28  C   UNL     1       8.015   6.670  18.051  0.00  0.00    +0.000 C 
ATOM     29  C   UNL     1       7.208   7.872  17.631  0.00  0.00    +0.000 C 
ATOM     30  O   UNL     1       6.266   7.414  16.671  0.00  0.00    +0.000 OA
ENDBRANCH  20  21
BRANCH  20  31
ATOM     31  C   UNL     1       3.266   2.044  18.131  0.00  0.00    +0.000 C 
ATOM     32  O   UNL     1       3.858   1.004  18.367  0.00  0.00    +0.000 OA
BRANCH  31  33
ATOM     33  O   UNL     1       2.074   2.039  17.482  0.00  0.00    +0.000 OA
ATOM     34  H   UNL     1       1.304   1.809  18.053  0.00  0.00    +0.000 HD
ENDBRANCH  31  33
ENDBRANCH  20  31
ENDBRANCH  18  20
ENDBRANCH   1  18
TORSDOF 8
ENDMDL
MODEL 6
REMARK VINA RESULT:      -8.0      3.598     10.005
REMARK  Name = 
REMARK  9 active torsions:
REMARK  status: ('A' for Active; 'I' for Inactive)
REMARK    1  A    between atoms: C_1  and  O_2
REMARK    2  A    between atoms: O_2  and  C_3
REMARK    3  A    between atoms: C_6  and  C_7
REMARK    4  A    between atoms: C_10  and  S_11
REMARK    5  A    between atoms: S_11  and  N_14
REMARK    6  A    between atoms: N_14  and  C_15
REMARK    7  A    between atoms: C_15  and  C_16
REMARK    8  A    between atoms: C_15  and  C_19
REMARK    9  A    between atoms: C_16  and  O_18
REMARK                            x       y       z     vdW  Elec       q    Type
REMARK                         _______ _______ _______ _____ _____    ______ ____
ROOT
ATOM      1  S   UNL     1       2.088   5.082  19.940  0.00  0.00    +0.000 S 
ATOM      2  O   UNL     1       3.148   4.862  20.894  0.00  0.00    +0.000 OA
ATOM      3  O   UNL     1       0.775   4.480  20.068  0.00  0.00    +0.000 OA
ENDROOT
BRANCH   1   7
ATOM      4  C   UNL     1       1.342   9.582  19.499  0.00  0.00    +0.000 A 
ATOM      5  C   UNL     1       1.097   8.913  20.712  0.00  0.00    +0.000 A 
ATOM      6  C   UNL     1       1.363   7.552  20.858  0.00  0.00    +0.000 A 
ATOM      7  C   UNL     1       1.856   6.826  19.775  0.00  0.00    +0.000 A 
ATOM      8  C   UNL     1       2.150   7.456  18.574  0.00  0.00    +0.000 A 
ATOM      9  C   UNL     1       1.908   8.830  18.447  0.00  0.00    +0.000 A 
BRANCH   4  13
ATOM     10  C   UNL     1       0.165  13.677  18.786  0.00  0.00    +0.000 A 
ATOM     11  C   UNL     1      -0.697  12.804  19.445  0.00  0.00    +0.000 A 
ATOM     12  C   UNL     1      -0.300  11.491  19.728  0.00  0.00    +0.000 A 
ATOM     13  C   UNL     1       0.953  11.001  19.320  0.00  0.00    +0.000 A 
ATOM     14  C   UNL     1       1.804  11.904  18.659  0.00  0.00    +0.000 A 
ATOM     15  C   UNL     1       1.421  13.224  18.399  0.00  0.00    +0.000 A 
BRANCH  10  17
ATOM     16  C   UNL     1      -0.756  15.663  19.665  0.00  0.00    +0.000 C 
ATOM     17  O   UNL     1      -0.339  14.920  18.526  0.00  0.00    +0.000 OA
ENDBRANCH  10  17
ENDBRANCH   4  13
ENDBRANCH   1   7
BRANCH   1  18
ATOM     18  N   UNL     1       2.688   4.603  18.436  0.00  0.00    +0.000 NA
ATOM     19  H   UNL     1       2.862   5.429  17.859  0.00  0.00    +0.000 HD
BRANCH  18  20
ATOM     20  C   UNL     1       3.762   3.566  18.414  0.00  0.00    +0.000 C 
BRANCH  20  21
ATOM     21  C   UNL     1       4.991   4.098  17.632  0.00  0.00    +0.000 C 
ATOM     22  C   UNL     1       5.047   3.474  16.222  0.00  0.00    +0.000 C 
ATOM     23  C   UNL     1       6.243   3.956  15.407  0.00  0.00    +0.000 C 
ATOM     24  C   UNL     1       6.328   5.477  15.375  0.00  0.00    +0.000 C 
ATOM     25  C   UNL     1       6.360   6.074  16.781  0.00  0.00    +0.000 C 
ATOM     26  C   UNL     1       5.122   5.632  17.581  0.00  0.00    +0.000 C 
ATOM     27  O   UNL     1       7.534   5.627  17.465  0.00  0.00    +0.000 OA
ATOM     28  C   UNL     1       8.058   6.759  18.148  0.00  0.00    +0.000 C 
ATOM     29  C   UNL     1       7.277   7.960  17.677  0.00  0.00    +0.000 C 
ATOM     30  O   UNL     1       6.382   7.495  16.676  0.00  0.00    +0.000 OA
ENDBRANCH  20  21
BRANCH  20  31
ATOM     31  C   UNL     1       3.228   2.195  17.962  0.00  0.00    +0.000 C 
ATOM     32  O   UNL     1       2.198   1.998  17.338  0.00  0.00    +0.000 OA
BRANCH  31  33
ATOM     33  O   UNL     1       4.028   1.163  18.337  0.00  0.00    +0.000 OA
ATOM     34  H   UNL     1       3.719   0.684  19.141  0.00  0.00    +0.000 HD
ENDBRANCH  31  33
ENDBRANCH  20  31
ENDBRANCH  18  20
ENDBRANCH   1  18
TORSDOF 8
ENDMDL
MODEL 7
REMARK VINA RESULT:      -8.0      1.958      2.919
REMARK  Name = 
REMARK  9 active torsions:
REMARK  status: ('A' for Active; 'I' for Inactive)
REMARK    1  A    between atoms: C_1  and  O_2
REMARK    2  A    between atoms: O_2  and  C_3
REMARK    3  A    between atoms: C_6  and  C_7
REMARK    4  A    between atoms: C_10  and  S_11
REMARK    5  A    between atoms: S_11  and  N_14
REMARK    6  A    between atoms: N_14  and  C_15
REMARK    7  A    between atoms: C_15  and  C_16
REMARK    8  A    between atoms: C_15  and  C_19
REMARK    9  A    between atoms: C_16  and  O_18
REMARK                            x       y       z     vdW  Elec       q    Type
REMARK                         _______ _______ _______ _____ _____    ______ ____
ROOT
ATOM      1  S   UNL     1       0.294   9.796  21.243  0.00  0.00    +0.000 S 
ATOM      2  O   UNL     1      -0.424   8.958  22.172  0.00  0.00    +0.000 OA
ATOM      3  O   UNL     1       1.204  10.843  21.665  0.00  0.00    +0.000 OA
ENDROOT
BRANCH   1   7
ATOM      4  C   UNL     1       2.715   7.104  18.433  0.00  0.00    +0.000 A 
ATOM      5  C   UNL     1       2.408   6.706  19.746  0.00  0.00    +0.000 A 
ATOM      6  C   UNL     1       1.637   7.507  20.587  0.00  0.00    +0.000 A 
ATOM      7  C   UNL     1       1.179   8.743  20.133  0.00  0.00    +0.000 A 
ATOM      8  C   UNL     1       1.425   9.156  18.831  0.00  0.00    +0.000 A 
ATOM      9  C   UNL     1       2.176   8.329  17.984  0.00  0.00    +0.000 A 
BRANCH   4  13
ATOM     10  C   UNL     1       5.508   4.768  16.109  0.00  0.00    +0.000 A 
ATOM     11  C   UNL     1       4.467   4.142  16.789  0.00  0.00    +0.000 A 
ATOM     12  C   UNL     1       3.527   4.898  17.500  0.00  0.00    +0.000 A 
ATOM     13  C   UNL     1       3.626   6.298  17.586  0.00  0.00    +0.000 A 
ATOM     14  C   UNL     1       4.685   6.904  16.887  0.00  0.00    +0.000 A 
ATOM     15  C   UNL     1       5.610   6.154  16.153  0.00  0.00    +0.000 A 
BRANCH  10  17
ATOM     16  C   UNL     1       6.234   3.821  14.073  0.00  0.00    +0.000 C 
ATOM     17  O   UNL     1       6.390   3.933  15.483  0.00  0.00    +0.000 OA
ENDBRANCH  10  17
ENDBRANCH   4  13
ENDBRANCH   1   7
BRANCH   1  18
ATOM     18  N   UNL     1      -0.867  10.537  20.267  0.00  0.00    +0.000 NA
ATOM     19  H   UNL     1      -1.757  10.042  20.358  0.00  0.00    +0.000 HD
BRANCH  18  20
ATOM     20  C   UNL     1      -0.955  12.028  20.301  0.00  0.00    +0.000 C 
BRANCH  20  21
ATOM     21  C   UNL     1      -2.214  12.462  21.095  0.00  0.00    +0.000 C 
ATOM     22  C   UNL     1      -1.823  13.391  22.263  0.00  0.00    +0.000 C 
ATOM     23  C   UNL     1      -3.025  13.846  23.087  0.00  0.00    +0.000 C 
ATOM     24  C   UNL     1      -4.118  14.442  22.209  0.00  0.00    +0.000 C 
ATOM     25  C   UNL     1      -4.554  13.474  21.110  0.00  0.00    +0.000 C 
ATOM     26  C   UNL     1      -3.350  13.063  20.245  0.00  0.00    +0.000 C 
ATOM     27  O   UNL     1      -5.119  12.301  21.702  0.00  0.00    +0.000 OA
ATOM     28  C   UNL     1      -6.276  11.982  20.939  0.00  0.00    +0.000 C 
ATOM     29  C   UNL     1      -6.513  13.132  19.993  0.00  0.00    +0.000 C 
ATOM     30  O   UNL     1      -5.533  14.116  20.297  0.00  0.00    +0.000 OA
ENDBRANCH  20  21
BRANCH  20  31
ATOM     31  C   UNL     1      -0.806  12.645  18.899  0.00  0.00    +0.000 C 
ATOM     32  O   UNL     1      -0.463  13.790  18.654  0.00  0.00    +0.000 OA
BRANCH  31  33
ATOM     33  O   UNL     1      -1.108  11.775  17.901  0.00  0.00    +0.000 OA
ATOM     34  H   UNL     1      -1.006  12.150  16.995  0.00  0.00    +0.000 HD
ENDBRANCH  31  33
ENDBRANCH  20  31
ENDBRANCH  18  20
ENDBRANCH   1  18
TORSDOF 8
ENDMDL
MODEL 8
REMARK VINA RESULT:      -8.0      1.803      2.810
REMARK  Name = 
REMARK  9 active torsions:
REMARK  status: ('A' for Active; 'I' for Inactive)
REMARK    1  A    between atoms: C_1  and  O_2
REMARK    2  A    between atoms: O_2  and  C_3
REMARK    3  A    between atoms: C_6  and  C_7
REMARK    4  A    between atoms: C_10  and  S_11
REMARK    5  A    between atoms: S_11  and  N_14
REMARK    6  A    between atoms: N_14  and  C_15
REMARK    7  A    between atoms: C_15  and  C_16
REMARK    8  A    between atoms: C_15  and  C_19
REMARK    9  A    between atoms: C_16  and  O_18
REMARK                            x       y       z     vdW  Elec       q    Type
REMARK                         _______ _______ _______ _____ _____    ______ ____
ROOT
ATOM      1  S   UNL     1       0.436  11.032  20.872  0.00  0.00    +0.000 S 
ATOM      2  O   UNL     1       0.602  10.717  22.271  0.00  0.00    +0.000 OA
ATOM      3  O   UNL     1       0.886  12.281  20.287  0.00  0.00    +0.000 OA
ENDROOT
BRANCH   1   7
ATOM      4  C   UNL     1       2.415   7.656  18.488  0.00  0.00    +0.000 A 
ATOM      5  C   UNL     1       2.087   7.500  19.847  0.00  0.00    +0.000 A 
ATOM      6  C   UNL     1       1.448   8.512  20.561  0.00  0.00    +0.000 A 
ATOM      7  C   UNL     1       1.149   9.719  19.930  0.00  0.00    +0.000 A 
ATOM      8  C   UNL     1       1.418   9.899  18.580  0.00  0.00    +0.000 A 
ATOM      9  C   UNL     1       2.034   8.864  17.864  0.00  0.00    +0.000 A 
BRANCH   4  13
ATOM     10  C   UNL     1       4.820   4.648  16.531  0.00  0.00    +0.000 A 
ATOM     11  C   UNL     1       3.712   4.277  17.288  0.00  0.00    +0.000 A 
ATOM     12  C   UNL     1       2.897   5.249  17.881  0.00  0.00    +0.000 A 
ATOM     13  C   UNL     1       3.192   6.620  17.768  0.00  0.00    +0.000 A 
ATOM     14  C   UNL     1       4.314   6.966  16.996  0.00  0.00    +0.000 A 
ATOM     15  C   UNL     1       5.115   5.998  16.380  0.00  0.00    +0.000 A 
BRANCH  10  17
ATOM     16  C   UNL     1       6.759   3.997  15.355  0.00  0.00    +0.000 C 
ATOM     17  O   UNL     1       5.567   3.618  16.034  0.00  0.00    +0.000 OA
ENDBRANCH  10  17
ENDBRANCH   4  13
ENDBRANCH   1   7
BRANCH   1  18
ATOM     18  N   UNL     1      -1.217  10.922  20.547  0.00  0.00    +0.000 NA
ATOM     19  H   UNL     1      -1.721  10.704  21.410  0.00  0.00    +0.000 HD
BRANCH  18  20
ATOM     20  C   UNL     1      -1.831  11.984  19.696  0.00  0.00    +0.000 C 
BRANCH  20  21
ATOM     21  C   UNL     1      -3.160  12.465  20.333  0.00  0.00    +0.000 C 
ATOM     22  C   UNL     1      -2.968  13.837  21.014  0.00  0.00    +0.000 C 
ATOM     23  C   UNL     1      -4.245  14.359  21.666  0.00  0.00    +0.000 C 
ATOM     24  C   UNL     1      -5.420  14.349  20.696  0.00  0.00    +0.000 C 
ATOM     25  C   UNL     1      -5.650  12.963  20.097  0.00  0.00    +0.000 C 
ATOM     26  C   UNL     1      -4.378  12.464  19.389  0.00  0.00    +0.000 C 
ATOM     27  O   UNL     1      -5.990  12.042  21.138  0.00  0.00    +0.000 OA
ATOM     28  C   UNL     1      -7.055  11.243  20.637  0.00  0.00    +0.000 C 
ATOM     29  C   UNL     1      -7.493  11.858  19.333  0.00  0.00    +0.000 C 
ATOM     30  O   UNL     1      -6.722  13.040  19.161  0.00  0.00    +0.000 OA
ENDBRANCH  20  21
BRANCH  20  31
ATOM     31  C   UNL     1      -1.915  11.560  18.219  0.00  0.00    +0.000 C 
ATOM     32  O   UNL     1      -2.342  10.495  17.803  0.00  0.00    +0.000 OA
BRANCH  31  33
ATOM     33  O   UNL     1      -1.446  12.507  17.366  0.00  0.00    +0.000 OA
ATOM     34  H   UNL     1      -2.148  12.985  16.868  0.00  0.00    +0.000 HD
ENDBRANCH  31  33
ENDBRANCH  20  31
ENDBRANCH  18  20
ENDBRANCH   1  18
TORSDOF 8
ENDMDL
MODEL 9
REMARK VINA RESULT:      -8.0      1.969      3.055
REMARK  Name = 
REMARK  9 active torsions:
REMARK  status: ('A' for Active; 'I' for Inactive)
REMARK    1  A    between atoms: C_1  and  O_2
REMARK    2  A    between atoms: O_2  and  C_3
REMARK    3  A    between atoms: C_6  and  C_7
REMARK    4  A    between atoms: C_10  and  S_11
REMARK    5  A    between atoms: S_11  and  N_14
REMARK    6  A    between atoms: N_14  and  C_15
REMARK    7  A    between atoms: C_15  and  C_16
REMARK    8  A    between atoms: C_15  and  C_19
REMARK    9  A    between atoms: C_16  and  O_18
REMARK                            x       y       z     vdW  Elec       q    Type
REMARK                         _______ _______ _______ _____ _____    ______ ____
ROOT
ATOM      1  S   UNL     1       0.329  10.099  21.148  0.00  0.00    +0.000 S 
ATOM      2  O   UNL     1      -0.423   9.341  22.119  0.00  0.00    +0.000 OA
ATOM      3  O   UNL     1       1.293  11.118  21.518  0.00  0.00    +0.000 OA
ENDROOT
BRANCH   1   7
ATOM      4  C   UNL     1       2.590   7.173  18.443  0.00  0.00    +0.000 A 
ATOM      5  C   UNL     1       2.313   6.864  19.787  0.00  0.00    +0.000 A 
ATOM      6  C   UNL     1       1.589   7.737  20.598  0.00  0.00    +0.000 A 
ATOM      7  C   UNL     1       1.151   8.956  20.082  0.00  0.00    +0.000 A 
ATOM      8  C   UNL     1       1.369   9.281  18.750  0.00  0.00    +0.000 A 
ATOM      9  C   UNL     1       2.071   8.383  17.935  0.00  0.00    +0.000 A 
BRANCH   4  13
ATOM     10  C   UNL     1       5.251   4.626  16.186  0.00  0.00    +0.000 A 
ATOM     11  C   UNL     1       4.242   4.069  16.967  0.00  0.00    +0.000 A 
ATOM     12  C   UNL     1       3.343   4.890  17.658  0.00  0.00    +0.000 A 
ATOM     13  C   UNL     1       3.453   6.291  17.622  0.00  0.00    +0.000 A 
ATOM     14  C   UNL     1       4.479   6.826  16.823  0.00  0.00    +0.000 A 
ATOM     15  C   UNL     1       5.363   6.010  16.109  0.00  0.00    +0.000 A 
BRANCH  10  17
ATOM     16  C   UNL     1       6.442   4.025  14.239  0.00  0.00    +0.000 C 
ATOM     17  O   UNL     1       6.096   3.734  15.588  0.00  0.00    +0.000 OA
ENDBRANCH  10  17
ENDBRANCH   4  13
ENDBRANCH   1   7
BRANCH   1  18
ATOM     18  N   UNL     1      -0.802  10.854  20.148  0.00  0.00    +0.000 NA
ATOM     19  H   UNL     1      -1.719  10.421  20.281  0.00  0.00    +0.000 HD
BRANCH  18  20
ATOM     20  C   UNL     1      -0.799  12.347  20.096  0.00  0.00    +0.000 C 
BRANCH  20  21
ATOM     21  C   UNL     1      -2.233  12.885  20.336  0.00  0.00    +0.000 C 
ATOM     22  C   UNL     1      -3.261  12.065  19.528  0.00  0.00    +0.000 C 
ATOM     23  C   UNL     1      -4.693  12.555  19.720  0.00  0.00    +0.000 C 
ATOM     24  C   UNL     1      -5.061  12.660  21.195  0.00  0.00    +0.000 C 
ATOM     25  C   UNL     1      -4.082  13.546  21.963  0.00  0.00    +0.000 C 
ATOM     26  C   UNL     1      -2.645  13.015  21.815  0.00  0.00    +0.000 C 
ATOM     27  O   UNL     1      -4.136  14.879  21.448  0.00  0.00    +0.000 OA
ATOM     28  C   UNL     1      -4.118  15.748  22.573  0.00  0.00    +0.000 C 
ATOM     29  C   UNL     1      -4.268  14.885  23.800  0.00  0.00    +0.000 C 
ATOM     30  O   UNL     1      -4.452  13.553  23.340  0.00  0.00    +0.000 OA
ENDBRANCH  20  21
BRANCH  20  31
ATOM     31  C   UNL     1      -0.091  12.877  18.836  0.00  0.00    +0.000 C 
ATOM     32  O   UNL     1       1.115  12.972  18.679  0.00  0.00    +0.000 OA
BRANCH  31  33
ATOM     33  O   UNL     1      -0.956  13.259  17.861  0.00  0.00    +0.000 OA
ATOM     34  H   UNL     1      -1.906  13.128  18.090  0.00  0.00    +0.000 HD
ENDBRANCH  31  33
ENDBRANCH  20  31
ENDBRANCH  18  20
ENDBRANCH   1  18
TORSDOF 8
ENDMDL
