MODEL 1
REMARK VINA RESULT:      -8.9      0.000      0.000
REMARK  Name = 
REMARK  5 active torsions:
REMARK  status: ('A' for Active; 'I' for Inactive)
REMARK    1  A    between atoms: C_2  and  C_3
REMARK    2  A    between atoms: C_3  and  N_4
REMARK    3  A    between atoms: N_16  and  C_17
REMARK    4  A    between atoms: C_17  and  C_18
REMARK    5  A    between atoms: C_18  and  C_19
REMARK                            x       y       z     vdW  Elec       q    Type
REMARK                         _______ _______ _______ _____ _____    ______ ____
ROOT
ATOM      1  C   UNL     1       5.904   6.433  16.304  0.00  0.00    +0.000 C 
ENDROOT
BRANCH   1   2
ATOM      2  N   UNL     1       5.057   5.366  16.814  0.00  0.00    +0.000 N 
ATOM      3  C   UNL     1       5.400   4.060  16.515  0.00  0.00    +0.000 A 
ATOM      4  O   UNL     1       6.398   3.732  15.879  0.00  0.00    +0.000 OA
ATOM      5  N   UNL     1       4.542   3.086  16.942  0.00  0.00    +0.000 N 
ATOM      6  C   UNL     1       3.417   3.331  17.724  0.00  0.00    +0.000 A 
ATOM      7  C   UNL     1       2.644   2.265  18.184  0.00  0.00    +0.000 A 
ATOM      8  C   UNL     1       1.574   2.513  19.045  0.00  0.00    +0.000 A 
ATOM      9  C   UNL     1       1.267   3.821  19.426  0.00  0.00    +0.000 A 
ATOM     10  C   UNL     1       2.017   4.889  18.929  0.00  0.00    +0.000 A 
ATOM     11  C   UNL     1       3.096   4.637  18.076  0.00  0.00    +0.000 A 
ATOM     12  C   UNL     1       3.935   5.734  17.552  0.00  0.00    +0.000 A 
ATOM     13  O   UNL     1       3.635   6.903  17.789  0.00  0.00    +0.000 OA
ATOM     14  H   UNL     1       4.811   2.140  16.707  0.00  0.00    +0.000 HD
ENDBRANCH   1   2
BRANCH   1  16
ATOM     15  O   UNL     1       7.306   6.133  18.263  0.00  0.00    +0.000 OA
ATOM     16  C   UNL     1       6.925   6.868  17.356  0.00  0.00    +0.000 C 
ATOM     17  N   UNL     1       7.353   8.174  17.216  0.00  0.00    +0.000 N 
ATOM     18  H   UNL     1       6.775   8.797  16.649  0.00  0.00    +0.000 HD
BRANCH  17  19
ATOM     19  C   UNL     1       8.336   8.761  18.110  0.00  0.00    +0.000 C 
BRANCH  19  20
ATOM     20  C   UNL     1       8.303  10.291  18.072  0.00  0.00    +0.000 C 
BRANCH  20  21
ATOM     21  C   UNL     1       9.546  10.904  18.670  0.00  0.00    +0.000 A 
ATOM     22  C   UNL     1       9.630  11.125  20.052  0.00  0.00    +0.000 A 
ATOM     23  C   UNL     1      10.773  11.707  20.605  0.00  0.00    +0.000 A 
ATOM     24  C   UNL     1      11.838  12.077  19.784  0.00  0.00    +0.000 A 
ATOM     25  C   UNL     1      11.762  11.862  18.408  0.00  0.00    +0.000 A 
ATOM     26  C   UNL     1      10.621  11.282  17.852  0.00  0.00    +0.000 A 
ENDBRANCH  20  21
ENDBRANCH  19  20
ENDBRANCH  17  19
ENDBRANCH   1  16
TORSDOF 5
ENDMDL
MODEL 2
REMARK VINA RESULT:      -8.7      1.291      1.434
REMARK  Name = 
REMARK  5 active torsions:
REMARK  status: ('A' for Active; 'I' for Inactive)
REMARK    1  A    between atoms: C_2  and  C_3
REMARK    2  A    between atoms: C_3  and  N_4
REMARK    3  A    between atoms: N_16  and  C_17
REMARK    4  A    between atoms: C_17  and  C_18
REMARK    5  A    between atoms: C_18  and  C_19
REMARK                            x       y       z     vdW  Elec       q    Type
REMARK                         _______ _______ _______ _____ _____    ______ ____
ROOT
ATOM      1  C   UNL     1       7.497   5.571  17.838  0.00  0.00    +0.000 C 
ENDROOT
BRANCH   1   2
ATOM      2  N   UNL     1       6.171   4.989  17.701  0.00  0.00    +0.000 N 
ATOM      3  C   UNL     1       5.840   4.393  16.498  0.00  0.00    +0.000 A 
ATOM      4  O   UNL     1       6.605   4.282  15.543  0.00  0.00    +0.000 OA
ATOM      5  N   UNL     1       4.561   3.927  16.374  0.00  0.00    +0.000 N 
ATOM      6  C   UNL     1       3.628   3.938  17.406  0.00  0.00    +0.000 A 
ATOM      7  C   UNL     1       2.371   3.363  17.214  0.00  0.00    +0.000 A 
ATOM      8  C   UNL     1       1.476   3.294  18.282  0.00  0.00    +0.000 A 
ATOM      9  C   UNL     1       1.829   3.816  19.529  0.00  0.00    +0.000 A 
ATOM     10  C   UNL     1       3.071   4.429  19.706  0.00  0.00    +0.000 A 
ATOM     11  C   UNL     1       3.970   4.486  18.637  0.00  0.00    +0.000 A 
ATOM     12  C   UNL     1       5.307   5.097  18.788  0.00  0.00    +0.000 A 
ATOM     13  O   UNL     1       5.613   5.651  19.842  0.00  0.00    +0.000 OA
ATOM     14  H   UNL     1       4.342   3.499  15.484  0.00  0.00    +0.000 HD
ENDBRANCH   1   2
BRANCH   1  16
ATOM     15  O   UNL     1       6.764   7.564  16.661  0.00  0.00    +0.000 OA
ATOM     16  C   UNL     1       7.467   7.071  17.538  0.00  0.00    +0.000 C 
ATOM     17  N   UNL     1       8.328   7.816  18.321  0.00  0.00    +0.000 N 
ATOM     18  H   UNL     1       9.082   7.315  18.793  0.00  0.00    +0.000 HD
BRANCH  17  19
ATOM     19  C   UNL     1       8.424   9.260  18.195  0.00  0.00    +0.000 C 
BRANCH  19  20
ATOM     20  C   UNL     1       9.021   9.905  19.449  0.00  0.00    +0.000 C 
BRANCH  20  21
ATOM     21  C   UNL     1      10.020  10.985  19.115  0.00  0.00    +0.000 A 
ATOM     22  C   UNL     1      10.778  11.585  20.131  0.00  0.00    +0.000 A 
ATOM     23  C   UNL     1      11.692  12.596  19.827  0.00  0.00    +0.000 A 
ATOM     24  C   UNL     1      11.854  13.020  18.508  0.00  0.00    +0.000 A 
ATOM     25  C   UNL     1      11.103  12.431  17.492  0.00  0.00    +0.000 A 
ATOM     26  C   UNL     1      10.188  11.420  17.793  0.00  0.00    +0.000 A 
ENDBRANCH  20  21
ENDBRANCH  19  20
ENDBRANCH  17  19
ENDBRANCH   1  16
TORSDOF 5
ENDMDL
MODEL 3
REMARK VINA RESULT:      -8.7      1.383      1.842
REMARK  Name = 
REMARK  5 active torsions:
REMARK  status: ('A' for Active; 'I' for Inactive)
REMARK    1  A    between atoms: C_2  and  C_3
REMARK    2  A    between atoms: C_3  and  N_4
REMARK    3  A    between atoms: N_16  and  C_17
REMARK    4  A    between atoms: C_17  and  C_18
REMARK    5  A    between atoms: C_18  and  C_19
REMARK                            x       y       z     vdW  Elec       q    Type
REMARK                         _______ _______ _______ _____ _____    ______ ____
ROOT
ATOM      1  C   UNL     1       7.748   5.751  18.177  0.00  0.00    +0.000 C 
ENDROOT
BRANCH   1   2
ATOM      2  N   UNL     1       6.493   5.087  17.859  0.00  0.00    +0.000 N 
ATOM      3  C   UNL     1       6.351   4.527  16.602  0.00  0.00    +0.000 A 
ATOM      4  O   UNL     1       7.229   4.514  15.743  0.00  0.00    +0.000 OA
ATOM      5  N   UNL     1       5.133   3.981  16.308  0.00  0.00    +0.000 N 
ATOM      6  C   UNL     1       4.087   3.880  17.219  0.00  0.00    +0.000 A 
ATOM      7  C   UNL     1       2.907   3.231  16.854  0.00  0.00    +0.000 A 
ATOM      8  C   UNL     1       1.900   3.051  17.804  0.00  0.00    +0.000 A 
ATOM      9  C   UNL     1       2.064   3.536  19.103  0.00  0.00    +0.000 A 
ATOM     10  C   UNL     1       3.229   4.223  19.452  0.00  0.00    +0.000 A 
ATOM     11  C   UNL     1       4.241   4.392  18.502  0.00  0.00    +0.000 A 
ATOM     12  C   UNL     1       5.502   5.084  18.837  0.00  0.00    +0.000 A 
ATOM     13  O   UNL     1       5.640   5.608  19.941  0.00  0.00    +0.000 OA
ATOM     14  H   UNL     1       5.052   3.582  15.381  0.00  0.00    +0.000 HD
ENDBRANCH   1   2
BRANCH   1  16
ATOM     15  O   UNL     1       6.982   7.680  16.917  0.00  0.00    +0.000 OA
ATOM     16  C   UNL     1       7.681   7.238  17.824  0.00  0.00    +0.000 C 
ATOM     17  N   UNL     1       8.507   8.034  18.595  0.00  0.00    +0.000 N 
ATOM     18  H   UNL     1       9.266   7.572  19.098  0.00  0.00    +0.000 HD
BRANCH  17  19
ATOM     19  C   UNL     1       8.565   9.475  18.420  0.00  0.00    +0.000 C 
BRANCH  19  20
ATOM     20  C   UNL     1       9.263  10.166  19.595  0.00  0.00    +0.000 C 
BRANCH  20  21
ATOM     21  C   UNL     1      10.267  11.196  19.137  0.00  0.00    +0.000 A 
ATOM     22  C   UNL     1      10.364  11.533  17.780  0.00  0.00    +0.000 A 
ATOM     23  C   UNL     1      11.302  12.474  17.351  0.00  0.00    +0.000 A 
ATOM     24  C   UNL     1      12.156  13.081  18.273  0.00  0.00    +0.000 A 
ATOM     25  C   UNL     1      12.068  12.750  19.625  0.00  0.00    +0.000 A 
ATOM     26  C   UNL     1      11.131  11.809  20.056  0.00  0.00    +0.000 A 
ENDBRANCH  20  21
ENDBRANCH  19  20
ENDBRANCH  17  19
ENDBRANCH   1  16
TORSDOF 5
ENDMDL
MODEL 4
REMARK VINA RESULT:      -8.6      1.606      2.231
REMARK  Name = 
REMARK  5 active torsions:
REMARK  status: ('A' for Active; 'I' for Inactive)
REMARK    1  A    between atoms: C_2  and  C_3
REMARK    2  A    between atoms: C_3  and  N_4
REMARK    3  A    between atoms: N_16  and  C_17
REMARK    4  A    between atoms: C_17  and  C_18
REMARK    5  A    between atoms: C_18  and  C_19
REMARK                            x       y       z     vdW  Elec       q    Type
REMARK                         _______ _______ _______ _____ _____    ______ ____
ROOT
ATOM      1  C   UNL     1       7.067   5.261  17.090  0.00  0.00    +0.000 C 
ENDROOT
BRANCH   1   2
ATOM      2  N   UNL     1       5.988   4.674  17.869  0.00  0.00    +0.000 N 
ATOM      3  C   UNL     1       6.092   4.691  19.248  0.00  0.00    +0.000 A 
ATOM      4  O   UNL     1       7.018   5.208  19.868  0.00  0.00    +0.000 OA
ATOM      5  N   UNL     1       5.101   4.062  19.947  0.00  0.00    +0.000 N 
ATOM      6  C   UNL     1       3.973   3.500  19.358  0.00  0.00    +0.000 A 
ATOM      7  C   UNL     1       2.971   2.951  20.159  0.00  0.00    +0.000 A 
ATOM      8  C   UNL     1       1.800   2.475  19.566  0.00  0.00    +0.000 A 
ATOM      9  C   UNL     1       1.643   2.529  18.179  0.00  0.00    +0.000 A 
ATOM     10  C   UNL     1       2.666   3.039  17.378  0.00  0.00    +0.000 A 
ATOM     11  C   UNL     1       3.833   3.526  17.975  0.00  0.00    +0.000 A 
ATOM     12  C   UNL     1       4.927   4.103  17.168  0.00  0.00    +0.000 A 
ATOM     13  O   UNL     1       4.864   4.078  15.941  0.00  0.00    +0.000 OA
ATOM     14  H   UNL     1       5.202   4.084  20.953  0.00  0.00    +0.000 HD
ENDBRANCH   1   2
BRANCH   1  16
ATOM     15  O   UNL     1       6.054   7.329  16.325  0.00  0.00    +0.000 OA
ATOM     16  C   UNL     1       6.914   6.781  17.007  0.00  0.00    +0.000 C 
ATOM     17  N   UNL     1       7.852   7.480  17.741  0.00  0.00    +0.000 N 
ATOM     18  H   UNL     1       8.697   6.978  18.019  0.00  0.00    +0.000 HD
BRANCH  17  19
ATOM     19  C   UNL     1       7.854   8.931  17.801  0.00  0.00    +0.000 C 
BRANCH  19  20
ATOM     20  C   UNL     1       8.871   9.461  18.816  0.00  0.00    +0.000 C 
BRANCH  20  21
ATOM     21  C   UNL     1       9.416  10.813  18.427  0.00  0.00    +0.000 A 
ATOM     22  C   UNL     1      10.765  11.123  18.653  0.00  0.00    +0.000 A 
ATOM     23  C   UNL     1      11.268  12.378  18.308  0.00  0.00    +0.000 A 
ATOM     24  C   UNL     1      10.429  13.337  17.740  0.00  0.00    +0.000 A 
ATOM     25  C   UNL     1       9.086  13.039  17.514  0.00  0.00    +0.000 A 
ATOM     26  C   UNL     1       8.579  11.784  17.859  0.00  0.00    +0.000 A 
ENDBRANCH  20  21
ENDBRANCH  19  20
ENDBRANCH  17  19
ENDBRANCH   1  16
TORSDOF 5
ENDMDL
MODEL 5
REMARK VINA RESULT:      -8.5      0.885      1.999
REMARK  Name = 
REMARK  5 active torsions:
REMARK  status: ('A' for Active; 'I' for Inactive)
REMARK    1  A    between atoms: C_2  and  C_3
REMARK    2  A    between atoms: C_3  and  N_4
REMARK    3  A    between atoms: N_16  and  C_17
REMARK    4  A    between atoms: C_17  and  C_18
REMARK    5  A    between atoms: C_18  and  C_19
REMARK                            x       y       z     vdW  Elec       q    Type
REMARK                         _______ _______ _______ _____ _____    ______ ____
ROOT
ATOM      1  C   UNL     1       5.733   6.176  16.262  0.00  0.00    +0.000 C 
ENDROOT
BRANCH   1   2
ATOM      2  N   UNL     1       4.610   5.663  17.029  0.00  0.00    +0.000 N 
ATOM      3  C   UNL     1       3.816   6.567  17.711  0.00  0.00    +0.000 A 
ATOM      4  O   UNL     1       3.969   7.786  17.682  0.00  0.00    +0.000 OA
ATOM      5  N   UNL     1       2.818   6.046  18.486  0.00  0.00    +0.000 N 
ATOM      6  C   UNL     1       2.510   4.691  18.547  0.00  0.00    +0.000 A 
ATOM      7  C   UNL     1       1.418   4.259  19.301  0.00  0.00    +0.000 A 
ATOM      8  C   UNL     1       1.059   2.911  19.281  0.00  0.00    +0.000 A 
ATOM      9  C   UNL     1       1.800   1.998  18.527  0.00  0.00    +0.000 A 
ATOM     10  C   UNL     1       2.917   2.427  17.808  0.00  0.00    +0.000 A 
ATOM     11  C   UNL     1       3.268   3.780  17.821  0.00  0.00    +0.000 A 
ATOM     12  C   UNL     1       4.423   4.282  17.049  0.00  0.00    +0.000 A 
ATOM     13  O   UNL     1       5.154   3.493  16.454  0.00  0.00    +0.000 OA
ATOM     14  H   UNL     1       2.255   6.727  18.978  0.00  0.00    +0.000 HD
ENDBRANCH   1   2
BRANCH   1  16
ATOM     15  O   UNL     1       7.541   5.823  17.843  0.00  0.00    +0.000 OA
ATOM     16  C   UNL     1       6.870   6.614  17.187  0.00  0.00    +0.000 C 
ATOM     17  N   UNL     1       7.049   7.983  17.246  0.00  0.00    +0.000 N 
ATOM     18  H   UNL     1       6.276   8.570  16.929  0.00  0.00    +0.000 HD
BRANCH  17  19
ATOM     19  C   UNL     1       8.093   8.586  18.056  0.00  0.00    +0.000 C 
BRANCH  19  20
ATOM     20  C   UNL     1       8.491   9.971  17.539  0.00  0.00    +0.000 C 
BRANCH  20  21
ATOM     21  C   UNL     1       9.439  10.680  18.475  0.00  0.00    +0.000 A 
ATOM     22  C   UNL     1       9.221  10.648  19.859  0.00  0.00    +0.000 A 
ATOM     23  C   UNL     1      10.087  11.316  20.727  0.00  0.00    +0.000 A 
ATOM     24  C   UNL     1      11.175  12.026  20.219  0.00  0.00    +0.000 A 
ATOM     25  C   UNL     1      11.399  12.066  18.843  0.00  0.00    +0.000 A 
ATOM     26  C   UNL     1      10.534  11.399  17.973  0.00  0.00    +0.000 A 
ENDBRANCH  20  21
ENDBRANCH  19  20
ENDBRANCH  17  19
ENDBRANCH   1  16
TORSDOF 5
ENDMDL
MODEL 6
REMARK VINA RESULT:      -8.4      1.650      2.259
REMARK  Name = 
REMARK  5 active torsions:
REMARK  status: ('A' for Active; 'I' for Inactive)
REMARK    1  A    between atoms: C_2  and  C_3
REMARK    2  A    between atoms: C_3  and  N_4
REMARK    3  A    between atoms: N_16  and  C_17
REMARK    4  A    between atoms: C_17  and  C_18
REMARK    5  A    between atoms: C_18  and  C_19
REMARK                            x       y       z     vdW  Elec       q    Type
REMARK                         _______ _______ _______ _____ _____    ______ ____
ROOT
ATOM      1  C   UNL     1       6.514   4.745  17.778  0.00  0.00    +0.000 C 
ENDROOT
BRANCH   1   2
ATOM      2  N   UNL     1       5.141   4.753  18.258  0.00  0.00    +0.000 N 
ATOM      3  C   UNL     1       4.287   5.729  17.778  0.00  0.00    +0.000 A 
ATOM      4  O   UNL     1       4.595   6.570  16.937  0.00  0.00    +0.000 OA
ATOM      5  N   UNL     1       3.028   5.758  18.308  0.00  0.00    +0.000 N 
ATOM      6  C   UNL     1       2.546   4.821  19.215  0.00  0.00    +0.000 A 
ATOM      7  C   UNL     1       1.217   4.881  19.639  0.00  0.00    +0.000 A 
ATOM      8  C   UNL     1       0.716   3.882  20.475  0.00  0.00    +0.000 A 
ATOM      9  C   UNL     1       1.545   2.841  20.901  0.00  0.00    +0.000 A 
ATOM     10  C   UNL     1       2.884   2.808  20.509  0.00  0.00    +0.000 A 
ATOM     11  C   UNL     1       3.381   3.803  19.662  0.00  0.00    +0.000 A 
ATOM     12  C   UNL     1       4.783   3.789  19.198  0.00  0.00    +0.000 A 
ATOM     13  O   UNL     1       5.564   2.943  19.630  0.00  0.00    +0.000 OA
ATOM     14  H   UNL     1       2.423   6.484  17.944  0.00  0.00    +0.000 HD
ENDBRANCH   1   2
BRANCH   1  16
ATOM     15  O   UNL     1       7.817   5.478  19.690  0.00  0.00    +0.000 OA
ATOM     16  C   UNL     1       7.375   5.728  18.573  0.00  0.00    +0.000 C 
ATOM     17  N   UNL     1       7.580   6.936  17.935  0.00  0.00    +0.000 N 
ATOM     18  H   UNL     1       6.942   7.178  17.175  0.00  0.00    +0.000 HD
BRANCH  17  19
ATOM     19  C   UNL     1       8.389   7.988  18.526  0.00  0.00    +0.000 C 
BRANCH  19  20
ATOM     20  C   UNL     1       8.167   9.337  17.835  0.00  0.00    +0.000 C 
BRANCH  20  21
ATOM     21  C   UNL     1       8.942  10.451  18.495  0.00  0.00    +0.000 A 
ATOM     22  C   UNL     1       9.407  10.306  19.809  0.00  0.00    +0.000 A 
ATOM     23  C   UNL     1      10.111  11.341  20.428  0.00  0.00    +0.000 A 
ATOM     24  C   UNL     1      10.351  12.531  19.741  0.00  0.00    +0.000 A 
ATOM     25  C   UNL     1       9.891  12.686  18.434  0.00  0.00    +0.000 A 
ATOM     26  C   UNL     1       9.186  11.652  17.814  0.00  0.00    +0.000 A 
ENDBRANCH  20  21
ENDBRANCH  19  20
ENDBRANCH  17  19
ENDBRANCH   1  16
TORSDOF 5
ENDMDL
MODEL 7
REMARK VINA RESULT:      -8.4      1.433      1.792
REMARK  Name = 
REMARK  5 active torsions:
REMARK  status: ('A' for Active; 'I' for Inactive)
REMARK    1  A    between atoms: C_2  and  C_3
REMARK    2  A    between atoms: C_3  and  N_4
REMARK    3  A    between atoms: N_16  and  C_17
REMARK    4  A    between atoms: C_17  and  C_18
REMARK    5  A    between atoms: C_18  and  C_19
REMARK                            x       y       z     vdW  Elec       q    Type
REMARK                         _______ _______ _______ _____ _____    ______ ____
ROOT
ATOM      1  C   UNL     1       7.033   5.010  17.616  0.00  0.00    +0.000 C 
ENDROOT
BRANCH   1   2
ATOM      2  N   UNL     1       5.653   4.584  17.786  0.00  0.00    +0.000 N 
ATOM      3  C   UNL     1       5.051   3.890  16.752  0.00  0.00    +0.000 A 
ATOM      4  O   UNL     1       5.616   3.569  15.709  0.00  0.00    +0.000 OA
ATOM      5  N   UNL     1       3.731   3.574  16.910  0.00  0.00    +0.000 N 
ATOM      6  C   UNL     1       3.006   3.827  18.070  0.00  0.00    +0.000 A 
ATOM      7  C   UNL     1       1.684   3.393  18.172  0.00  0.00    +0.000 A 
ATOM      8  C   UNL     1       0.995   3.567  19.373  0.00  0.00    +0.000 A 
ATOM      9  C   UNL     1       1.618   4.190  20.457  0.00  0.00    +0.000 A 
ATOM     10  C   UNL     1       2.926   4.661  20.336  0.00  0.00    +0.000 A 
ATOM     11  C   UNL     1       3.619   4.476  19.136  0.00  0.00    +0.000 A 
ATOM     12  C   UNL     1       5.015   4.930  18.975  0.00  0.00    +0.000 A 
ATOM     13  O   UNL     1       5.560   5.568  19.874  0.00  0.00    +0.000 OA
ATOM     14  H   UNL     1       3.313   3.071  16.138  0.00  0.00    +0.000 HD
ENDBRANCH   1   2
BRANCH   1  16
ATOM     15  O   UNL     1       6.539   6.994  16.308  0.00  0.00    +0.000 OA
ATOM     16  C   UNL     1       7.105   6.500  17.279  0.00  0.00    +0.000 C 
ATOM     17  N   UNL     1       7.894   7.233  18.145  0.00  0.00    +0.000 N 
ATOM     18  H   UNL     1       8.561   6.717  18.720  0.00  0.00    +0.000 HD
BRANCH  17  19
ATOM     19  C   UNL     1       8.068   8.668  17.997  0.00  0.00    +0.000 C 
BRANCH  19  20
ATOM     20  C   UNL     1       9.045   9.235  19.031  0.00  0.00    +0.000 C 
BRANCH  20  21
ATOM     21  C   UNL     1       9.293  10.711  18.832  0.00  0.00    +0.000 A 
ATOM     22  C   UNL     1       8.619  11.411  17.821  0.00  0.00    +0.000 A 
ATOM     23  C   UNL     1       8.858  12.772  17.625  0.00  0.00    +0.000 A 
ATOM     24  C   UNL     1       9.776  13.445  18.432  0.00  0.00    +0.000 A 
ATOM     25  C   UNL     1      10.452  12.757  19.439  0.00  0.00    +0.000 A 
ATOM     26  C   UNL     1      10.216  11.395  19.636  0.00  0.00    +0.000 A 
ENDBRANCH  20  21
ENDBRANCH  19  20
ENDBRANCH  17  19
ENDBRANCH   1  16
TORSDOF 5
ENDMDL
MODEL 8
REMARK VINA RESULT:      -8.3      4.097      7.791
REMARK  Name = 
REMARK  5 active torsions:
REMARK  status: ('A' for Active; 'I' for Inactive)
REMARK    1  A    between atoms: C_2  and  C_3
REMARK    2  A    between atoms: C_3  and  N_4
REMARK    3  A    between atoms: N_16  and  C_17
REMARK    4  A    between atoms: C_17  and  C_18
REMARK    5  A    between atoms: C_18  and  C_19
REMARK                            x       y       z     vdW  Elec       q    Type
REMARK                         _______ _______ _______ _____ _____    ______ ____
ROOT
ATOM      1  C   UNL     1       5.482   4.996  18.240  0.00  0.00    +0.000 C 
ENDROOT
BRANCH   1   2
ATOM      2  N   UNL     1       6.030   4.982  16.894  0.00  0.00    +0.000 N 
ATOM      3  C   UNL     1       7.166   5.730  16.643  0.00  0.00    +0.000 A 
ATOM      4  O   UNL     1       7.773   6.378  17.492  0.00  0.00    +0.000 OA
ATOM      5  N   UNL     1       7.610   5.759  15.351  0.00  0.00    +0.000 N 
ATOM      6  C   UNL     1       7.044   5.016  14.319  0.00  0.00    +0.000 A 
ATOM      7  C   UNL     1       7.617   5.044  13.047  0.00  0.00    +0.000 A 
ATOM      8  C   UNL     1       7.101   4.223  12.043  0.00  0.00    +0.000 A 
ATOM      9  C   UNL     1       6.007   3.396  12.305  0.00  0.00    +0.000 A 
ATOM     10  C   UNL     1       5.410   3.403  13.567  0.00  0.00    +0.000 A 
ATOM     11  C   UNL     1       5.936   4.217  14.574  0.00  0.00    +0.000 A 
ATOM     12  C   UNL     1       5.355   4.233  15.932  0.00  0.00    +0.000 A 
ATOM     13  O   UNL     1       4.333   3.591  16.170  0.00  0.00    +0.000 OA
ATOM     14  H   UNL     1       8.439   6.317  15.192  0.00  0.00    +0.000 HD
ENDBRANCH   1   2
BRANCH   1  16
ATOM     15  O   UNL     1       4.037   6.777  17.446  0.00  0.00    +0.000 OA
ATOM     16  C   UNL     1       4.340   6.007  18.353  0.00  0.00    +0.000 C 
ATOM     17  N   UNL     1       3.704   6.001  19.579  0.00  0.00    +0.000 N 
ATOM     18  H   UNL     1       4.199   5.569  20.360  0.00  0.00    +0.000 HD
BRANCH  17  19
ATOM     19  C   UNL     1       2.583   6.879  19.867  0.00  0.00    +0.000 C 
BRANCH  19  20
ATOM     20  C   UNL     1       1.406   6.119  20.485  0.00  0.00    +0.000 C 
BRANCH  20  21
ATOM     21  C   UNL     1       1.457   4.641  20.183  0.00  0.00    +0.000 A 
ATOM     22  C   UNL     1       1.729   3.720  21.204  0.00  0.00    +0.000 A 
ATOM     23  C   UNL     1       1.792   2.354  20.924  0.00  0.00    +0.000 A 
ATOM     24  C   UNL     1       1.591   1.896  19.622  0.00  0.00    +0.000 A 
ATOM     25  C   UNL     1       1.323   2.805  18.599  0.00  0.00    +0.000 A 
ATOM     26  C   UNL     1       1.259   4.172  18.876  0.00  0.00    +0.000 A 
ENDBRANCH  20  21
ENDBRANCH  19  20
ENDBRANCH  17  19
ENDBRANCH   1  16
TORSDOF 5
ENDMDL
MODEL 9
REMARK VINA RESULT:      -8.2      1.654      2.321
REMARK  Name = 
REMARK  5 active torsions:
REMARK  status: ('A' for Active; 'I' for Inactive)
REMARK    1  A    between atoms: C_2  and  C_3
REMARK    2  A    between atoms: C_3  and  N_4
REMARK    3  A    between atoms: N_16  and  C_17
REMARK    4  A    between atoms: C_17  and  C_18
REMARK    5  A    between atoms: C_18  and  C_19
REMARK                            x       y       z     vdW  Elec       q    Type
REMARK                         _______ _______ _______ _____ _____    ______ ____
ROOT
ATOM      1  C   UNL     1       6.788   5.044  17.148  0.00  0.00    +0.000 C 
ENDROOT
BRANCH   1   2
ATOM      2  N   UNL     1       5.636   4.629  17.934  0.00  0.00    +0.000 N 
ATOM      3  C   UNL     1       5.708   4.745  19.310  0.00  0.00    +0.000 A 
ATOM      4  O   UNL     1       6.666   5.215  19.918  0.00  0.00    +0.000 OA
ATOM      5  N   UNL     1       4.642   4.274  20.023  0.00  0.00    +0.000 N 
ATOM      6  C   UNL     1       3.478   3.781  19.443  0.00  0.00    +0.000 A 
ATOM      7  C   UNL     1       2.406   3.399  20.251  0.00  0.00    +0.000 A 
ATOM      8  C   UNL     1       1.208   2.996  19.659  0.00  0.00    +0.000 A 
ATOM      9  C   UNL     1       1.091   2.955  18.268  0.00  0.00    +0.000 A 
ATOM     10  C   UNL     1       2.180   3.297  17.463  0.00  0.00    +0.000 A 
ATOM     11  C   UNL     1       3.374   3.712  18.059  0.00  0.00    +0.000 A 
ATOM     12  C   UNL     1       4.541   4.113  17.246  0.00  0.00    +0.000 A 
ATOM     13  O   UNL     1       4.505   3.997  16.022  0.00  0.00    +0.000 OA
ATOM     14  H   UNL     1       4.721   4.366  21.028  0.00  0.00    +0.000 HD
ENDBRANCH   1   2
BRANCH   1  16
ATOM     15  O   UNL     1       6.114   7.169  16.189  0.00  0.00    +0.000 OA
ATOM     16  C   UNL     1       6.820   6.565  16.991  0.00  0.00    +0.000 C 
ATOM     17  N   UNL     1       7.741   7.193  17.807  0.00  0.00    +0.000 N 
ATOM     18  H   UNL     1       8.485   6.616  18.203  0.00  0.00    +0.000 HD
BRANCH  17  19
ATOM     19  C   UNL     1       7.903   8.637  17.813  0.00  0.00    +0.000 C 
BRANCH  19  20
ATOM     20  C   UNL     1       9.002   9.085  18.779  0.00  0.00    +0.000 C 
BRANCH  20  21
ATOM     21  C   UNL     1       9.086  10.588  18.891  0.00  0.00    +0.000 A 
ATOM     22  C   UNL     1       8.781  11.397  17.788  0.00  0.00    +0.000 A 
ATOM     23  C   UNL     1       8.872  12.787  17.884  0.00  0.00    +0.000 A 
ATOM     24  C   UNL     1       9.274  13.381  19.081  0.00  0.00    +0.000 A 
ATOM     25  C   UNL     1       9.581  12.584  20.183  0.00  0.00    +0.000 A 
ATOM     26  C   UNL     1       9.491  11.194  20.089  0.00  0.00    +0.000 A 
ENDBRANCH  20  21
ENDBRANCH  19  20
ENDBRANCH  17  19
ENDBRANCH   1  16
TORSDOF 5
ENDMDL
