MODEL 1
REMARK VINA RESULT:      -9.1      0.000      0.000
REMARK  Name = 
REMARK  5 active torsions:
REMARK  status: ('A' for Active; 'I' for Inactive)
REMARK    1  A    between atoms: C_2  and  C_3
REMARK    2  A    between atoms: C_3  and  N_4
REMARK    3  A    between atoms: C_8  and  C_9
REMARK    4  A    between atoms: N_18  and  N_19
REMARK    5  A    between atoms: C_20  and  C_21
REMARK                            x       y       z     vdW  Elec       q    Type
REMARK                         _______ _______ _______ _____ _____    ______ ____
ROOT
ATOM      1  C   UNL     1       7.467   5.994  18.103  0.00  0.00    +0.000 C 
ENDROOT
BRANCH   1   2
ATOM      2  N   UNL     1       6.867   5.167  17.079  0.00  0.00    +0.000 N 
ATOM      3  N   UNL     1       7.585   4.746  16.020  0.00  0.00    +0.000 NA
ATOM      4  N   UNL     1       6.789   3.932  15.353  0.00  0.00    +0.000 NA
ATOM      5  N   UNL     1       5.591   3.783  15.998  0.00  0.00    +0.000 NA
ATOM      6  C   UNL     1       5.630   4.552  17.074  0.00  0.00    +0.000 A 
BRANCH   6   7
ATOM      7  C   UNL     1       4.575   4.633  18.091  0.00  0.00    +0.000 A 
ATOM      8  C   UNL     1       3.745   5.771  18.233  0.00  0.00    +0.000 A 
ATOM      9  C   UNL     1       2.793   5.861  19.250  0.00  0.00    +0.000 A 
ATOM     10  C   UNL     1       2.649   4.783  20.089  0.00  0.00    +0.000 A 
ATOM     11  C   UNL     1       3.404   3.646  19.935  0.00  0.00    +0.000 A 
ATOM     12  C   UNL     1       4.368   3.540  18.950  0.00  0.00    +0.000 A 
ATOM     13  O   UNL     1       3.088   2.693  20.854  0.00  0.00    +0.000 OA
ATOM     14  C   UNL     1       2.080   3.382  21.626  0.00  0.00    +0.000 C 
ATOM     15  O   UNL     1       1.773   4.699  21.121  0.00  0.00    +0.000 OA
ENDBRANCH   6   7
ENDBRANCH   1   2
BRANCH   1  17
ATOM     16  O   UNL     1       7.013   7.941  16.814  0.00  0.00    +0.000 OA
ATOM     17  C   UNL     1       7.652   7.443  17.743  0.00  0.00    +0.000 C 
ATOM     18  N   UNL     1       8.493   8.136  18.599  0.00  0.00    +0.000 N 
ATOM     19  H   UNL     1       9.123   7.627  19.212  0.00  0.00    +0.000 HD
BRANCH  18  20
ATOM     20  N   UNL     1       8.728   9.455  18.363  0.00  0.00    +0.000 NA
ATOM     21  C   UNL     1       9.244  10.112  19.358  0.00  0.00    +0.000 C 
BRANCH  21  22
ATOM     22  C   UNL     1       9.567  11.547  19.240  0.00  0.00    +0.000 A 
ATOM     23  C   UNL     1       9.995  12.046  17.999  0.00  0.00    +0.000 A 
ATOM     24  C   UNL     1      10.268  13.405  17.841  0.00  0.00    +0.000 A 
ATOM     25  C   UNL     1      10.114  14.274  18.919  0.00  0.00    +0.000 A 
ATOM     26  C   UNL     1       9.708  13.782  20.160  0.00  0.00    +0.000 A 
ATOM     27  C   UNL     1       9.438  12.419  20.327  0.00  0.00    +0.000 A 
ATOM     28 CL   UNL     1       8.948  11.896  21.899  0.00  0.00    +0.000 Cl
ENDBRANCH  21  22
ENDBRANCH  18  20
ENDBRANCH   1  17
TORSDOF 5
ENDMDL
MODEL 2
REMARK VINA RESULT:      -8.9      1.488      1.603
REMARK  Name = 
REMARK  5 active torsions:
REMARK  status: ('A' for Active; 'I' for Inactive)
REMARK    1  A    between atoms: C_2  and  C_3
REMARK    2  A    between atoms: C_3  and  N_4
REMARK    3  A    between atoms: C_8  and  C_9
REMARK    4  A    between atoms: N_18  and  N_19
REMARK    5  A    between atoms: C_20  and  C_21
REMARK                            x       y       z     vdW  Elec       q    Type
REMARK                         _______ _______ _______ _____ _____    ______ ____
ROOT
ATOM      1  C   UNL     1       5.985   6.878  17.234  0.00  0.00    +0.000 C 
ENDROOT
BRANCH   1   2
ATOM      2  N   UNL     1       6.098   5.701  16.401  0.00  0.00    +0.000 N 
ATOM      3  N   UNL     1       7.137   5.543  15.560  0.00  0.00    +0.000 NA
ATOM      4  N   UNL     1       7.000   4.335  15.048  0.00  0.00    +0.000 NA
ATOM      5  N   UNL     1       5.919   3.695  15.591  0.00  0.00    +0.000 NA
ATOM      6  C   UNL     1       5.349   4.540  16.434  0.00  0.00    +0.000 A 
BRANCH   6   7
ATOM      7  C   UNL     1       4.197   4.231  17.290  0.00  0.00    +0.000 A 
ATOM      8  C   UNL     1       3.034   3.594  16.795  0.00  0.00    +0.000 A 
ATOM      9  C   UNL     1       1.920   3.370  17.607  0.00  0.00    +0.000 A 
ATOM     10  C   UNL     1       2.004   3.744  18.926  0.00  0.00    +0.000 A 
ATOM     11  C   UNL     1       3.143   4.312  19.441  0.00  0.00    +0.000 A 
ATOM     12  C   UNL     1       4.252   4.564  18.655  0.00  0.00    +0.000 A 
ATOM     13  O   UNL     1       3.024   4.584  20.769  0.00  0.00    +0.000 OA
ATOM     14  C   UNL     1       1.664   4.163  21.014  0.00  0.00    +0.000 C 
ATOM     15  O   UNL     1       1.024   3.595  19.851  0.00  0.00    +0.000 OA
ENDBRANCH   6   7
ENDBRANCH   1   2
BRANCH   1  17
ATOM     16  O   UNL     1       7.961   6.597  18.529  0.00  0.00    +0.000 OA
ATOM     17  C   UNL     1       7.269   7.360  17.854  0.00  0.00    +0.000 C 
ATOM     18  N   UNL     1       7.614   8.657  17.504  0.00  0.00    +0.000 N 
ATOM     19  H   UNL     1       6.915   9.279  17.111  0.00  0.00    +0.000 HD
BRANCH  18  20
ATOM     20  N   UNL     1       8.759   9.190  18.010  0.00  0.00    +0.000 NA
ATOM     21  C   UNL     1       8.772  10.485  18.103  0.00  0.00    +0.000 C 
BRANCH  21  22
ATOM     22  C   UNL     1       9.942  11.200  18.650  0.00  0.00    +0.000 A 
ATOM     23  C   UNL     1      10.925  11.669  17.764  0.00  0.00    +0.000 A 
ATOM     24  C   UNL     1      12.022  12.385  18.243  0.00  0.00    +0.000 A 
ATOM     25  C   UNL     1      12.145  12.638  19.607  0.00  0.00    +0.000 A 
ATOM     26  C   UNL     1      11.181  12.158  20.495  0.00  0.00    +0.000 A 
ATOM     27  C   UNL     1      10.081  11.435  20.023  0.00  0.00    +0.000 A 
ATOM     28 CL   UNL     1       8.942  10.871  21.193  0.00  0.00    +0.000 Cl
ENDBRANCH  21  22
ENDBRANCH  18  20
ENDBRANCH   1  17
TORSDOF 5
ENDMDL
MODEL 3
REMARK VINA RESULT:      -8.9      1.792      2.128
REMARK  Name = 
REMARK  5 active torsions:
REMARK  status: ('A' for Active; 'I' for Inactive)
REMARK    1  A    between atoms: C_2  and  C_3
REMARK    2  A    between atoms: C_3  and  N_4
REMARK    3  A    between atoms: C_8  and  C_9
REMARK    4  A    between atoms: N_18  and  N_19
REMARK    5  A    between atoms: C_20  and  C_21
REMARK                            x       y       z     vdW  Elec       q    Type
REMARK                         _______ _______ _______ _____ _____    ______ ____
ROOT
ATOM      1  C   UNL     1       6.235   6.955  17.485  0.00  0.00    +0.000 C 
ENDROOT
BRANCH   1   2
ATOM      2  N   UNL     1       6.441   5.859  16.563  0.00  0.00    +0.000 N 
ATOM      3  N   UNL     1       7.413   5.909  15.632  0.00  0.00    +0.000 NA
ATOM      4  N   UNL     1       7.407   4.726  15.048  0.00  0.00    +0.000 NA
ATOM      5  N   UNL     1       6.482   3.901  15.628  0.00  0.00    +0.000 NA
ATOM      6  C   UNL     1       5.874   4.599  16.572  0.00  0.00    +0.000 A 
BRANCH   6   7
ATOM      7  C   UNL     1       4.860   4.070  17.493  0.00  0.00    +0.000 A 
ATOM      8  C   UNL     1       5.163   3.710  18.828  0.00  0.00    +0.000 A 
ATOM      9  C   UNL     1       4.203   3.144  19.669  0.00  0.00    +0.000 A 
ATOM     10  C   UNL     1       2.931   2.990  19.176  0.00  0.00    +0.000 A 
ATOM     11  C   UNL     1       2.600   3.385  17.902  0.00  0.00    +0.000 A 
ATOM     12  C   UNL     1       3.536   3.928  17.042  0.00  0.00    +0.000 A 
ATOM     13  O   UNL     1       1.286   3.165  17.623  0.00  0.00    +0.000 OA
ATOM     14  C   UNL     1       0.845   2.547  18.852  0.00  0.00    +0.000 C 
ATOM     15  O   UNL     1       1.880   2.466  19.855  0.00  0.00    +0.000 OA
ENDBRANCH   6   7
ENDBRANCH   1   2
BRANCH   1  17
ATOM     16  O   UNL     1       8.274   7.026  18.710  0.00  0.00    +0.000 OA
ATOM     17  C   UNL     1       7.485   7.630  17.981  0.00  0.00    +0.000 C 
ATOM     18  N   UNL     1       7.686   8.900  17.463  0.00  0.00    +0.000 N 
ATOM     19  H   UNL     1       6.914   9.400  17.032  0.00  0.00    +0.000 HD
BRANCH  18  20
ATOM     20  N   UNL     1       8.789   9.599  17.847  0.00  0.00    +0.000 NA
ATOM     21  C   UNL     1       8.560  10.805  18.270  0.00  0.00    +0.000 C 
BRANCH  21  22
ATOM     22  C   UNL     1       9.660  11.673  18.735  0.00  0.00    +0.000 A 
ATOM     23  C   UNL     1      10.788  11.080  19.323  0.00  0.00    +0.000 A 
ATOM     24  C   UNL     1      11.864  11.868  19.734  0.00  0.00    +0.000 A 
ATOM     25  C   UNL     1      11.821  13.249  19.560  0.00  0.00    +0.000 A 
ATOM     26  C   UNL     1      10.694  13.846  18.993  0.00  0.00    +0.000 A 
ATOM     27  C   UNL     1       9.609  13.064  18.583  0.00  0.00    +0.000 A 
ATOM     28 CL   UNL     1       8.253  13.886  17.899  0.00  0.00    +0.000 Cl
ENDBRANCH  21  22
ENDBRANCH  18  20
ENDBRANCH   1  17
TORSDOF 5
ENDMDL
MODEL 4
REMARK VINA RESULT:      -8.9      1.949      2.173
REMARK  Name = 
REMARK  5 active torsions:
REMARK  status: ('A' for Active; 'I' for Inactive)
REMARK    1  A    between atoms: C_2  and  C_3
REMARK    2  A    between atoms: C_3  and  N_4
REMARK    3  A    between atoms: C_8  and  C_9
REMARK    4  A    between atoms: N_18  and  N_19
REMARK    5  A    between atoms: C_20  and  C_21
REMARK                            x       y       z     vdW  Elec       q    Type
REMARK                         _______ _______ _______ _____ _____    ______ ____
ROOT
ATOM      1  C   UNL     1       7.365   4.936  17.818  0.00  0.00    +0.000 C 
ENDROOT
BRANCH   1   2
ATOM      2  N   UNL     1       6.803   5.314  16.539  0.00  0.00    +0.000 N 
ATOM      3  N   UNL     1       7.593   5.531  15.471  0.00  0.00    +0.000 NA
ATOM      4  N   UNL     1       6.773   5.738  14.458  0.00  0.00    +0.000 NA
ATOM      5  N   UNL     1       5.470   5.604  14.851  0.00  0.00    +0.000 NA
ATOM      6  C   UNL     1       5.478   5.342  16.148  0.00  0.00    +0.000 A 
BRANCH   6   7
ATOM      7  C   UNL     1       4.289   5.051  16.958  0.00  0.00    +0.000 A 
ATOM      8  C   UNL     1       3.614   6.050  17.700  0.00  0.00    +0.000 A 
ATOM      9  C   UNL     1       2.526   5.743  18.520  0.00  0.00    +0.000 A 
ATOM     10  C   UNL     1       2.095   4.440  18.551  0.00  0.00    +0.000 A 
ATOM     11  C   UNL     1       2.700   3.464  17.796  0.00  0.00    +0.000 A 
ATOM     12  C   UNL     1       3.791   3.737  16.992  0.00  0.00    +0.000 A 
ATOM     13  O   UNL     1       2.104   2.251  17.955  0.00  0.00    +0.000 OA
ATOM     14  C   UNL     1       1.087   2.571  18.929  0.00  0.00    +0.000 C 
ATOM     15  O   UNL     1       1.055   3.970  19.284  0.00  0.00    +0.000 OA
ENDBRANCH   6   7
ENDBRANCH   1   2
BRANCH   1  17
ATOM     16  O   UNL     1       7.946   5.893  19.918  0.00  0.00    +0.000 OA
ATOM     17  C   UNL     1       7.772   6.077  18.712  0.00  0.00    +0.000 C 
ATOM     18  N   UNL     1       8.019   7.262  18.038  0.00  0.00    +0.000 N 
ATOM     19  H   UNL     1       7.674   7.390  17.091  0.00  0.00    +0.000 HD
BRANCH  18  20
ATOM     20  N   UNL     1       8.395   8.358  18.753  0.00  0.00    +0.000 NA
ATOM     21  C   UNL     1       8.681   9.409  18.046  0.00  0.00    +0.000 C 
BRANCH  21  22
ATOM     22  C   UNL     1       9.088  10.674  18.689  0.00  0.00    +0.000 A 
ATOM     23  C   UNL     1       9.899  10.622  19.834  0.00  0.00    +0.000 A 
ATOM     24  C   UNL     1      10.336  11.799  20.441  0.00  0.00    +0.000 A 
ATOM     25  C   UNL     1       9.969  13.034  19.911  0.00  0.00    +0.000 A 
ATOM     26  C   UNL     1       9.147  13.092  18.784  0.00  0.00    +0.000 A 
ATOM     27  C   UNL     1       8.700  11.916  18.173  0.00  0.00    +0.000 A 
ATOM     28 CL   UNL     1       7.679  12.081  16.788  0.00  0.00    +0.000 Cl
ENDBRANCH  21  22
ENDBRANCH  18  20
ENDBRANCH   1  17
TORSDOF 5
ENDMDL
MODEL 5
REMARK VINA RESULT:      -8.9      1.045      1.116
REMARK  Name = 
REMARK  5 active torsions:
REMARK  status: ('A' for Active; 'I' for Inactive)
REMARK    1  A    between atoms: C_2  and  C_3
REMARK    2  A    between atoms: C_3  and  N_4
REMARK    3  A    between atoms: C_8  and  C_9
REMARK    4  A    between atoms: N_18  and  N_19
REMARK    5  A    between atoms: C_20  and  C_21
REMARK                            x       y       z     vdW  Elec       q    Type
REMARK                         _______ _______ _______ _____ _____    ______ ____
ROOT
ATOM      1  C   UNL     1       7.558   6.006  17.755  0.00  0.00    +0.000 C 
ENDROOT
BRANCH   1   2
ATOM      2  N   UNL     1       6.892   5.188  16.765  0.00  0.00    +0.000 N 
ATOM      3  N   UNL     1       7.551   4.736  15.681  0.00  0.00    +0.000 NA
ATOM      4  N   UNL     1       6.705   3.940  15.056  0.00  0.00    +0.000 NA
ATOM      5  N   UNL     1       5.532   3.833  15.753  0.00  0.00    +0.000 NA
ATOM      6  C   UNL     1       5.638   4.610  16.818  0.00  0.00    +0.000 A 
BRANCH   6   7
ATOM      7  C   UNL     1       4.630   4.732  17.878  0.00  0.00    +0.000 A 
ATOM      8  C   UNL     1       3.861   5.906  18.061  0.00  0.00    +0.000 A 
ATOM      9  C   UNL     1       2.956   6.031  19.117  0.00  0.00    +0.000 A 
ATOM     10  C   UNL     1       2.796   4.954  19.954  0.00  0.00    +0.000 A 
ATOM     11  C   UNL     1       3.490   3.784  19.762  0.00  0.00    +0.000 A 
ATOM     12  C   UNL     1       4.407   3.642  18.738  0.00  0.00    +0.000 A 
ATOM     13  O   UNL     1       3.166   2.840  20.686  0.00  0.00    +0.000 OA
ATOM     14  C   UNL     1       2.224   3.568  21.504  0.00  0.00    +0.000 C 
ATOM     15  O   UNL     1       1.959   4.902  21.020  0.00  0.00    +0.000 OA
ENDBRANCH   6   7
ENDBRANCH   1   2
BRANCH   1  17
ATOM     16  O   UNL     1       6.516   7.956  16.874  0.00  0.00    +0.000 OA
ATOM     17  C   UNL     1       7.427   7.494  17.564  0.00  0.00    +0.000 C 
ATOM     18  N   UNL     1       8.332   8.240  18.302  0.00  0.00    +0.000 N 
ATOM     19  H   UNL     1       9.160   7.797  18.687  0.00  0.00    +0.000 HD
BRANCH  18  20
ATOM     20  N   UNL     1       8.298   9.597  18.203  0.00  0.00    +0.000 NA
ATOM     21  C   UNL     1       9.434  10.194  18.399  0.00  0.00    +0.000 C 
BRANCH  21  22
ATOM     22  C   UNL     1       9.550  11.663  18.306  0.00  0.00    +0.000 A 
ATOM     23  C   UNL     1       8.477  12.396  17.776  0.00  0.00    +0.000 A 
ATOM     24  C   UNL     1       8.536  13.788  17.713  0.00  0.00    +0.000 A 
ATOM     25  C   UNL     1       9.666  14.458  18.180  0.00  0.00    +0.000 A 
ATOM     26  C   UNL     1      10.744  13.733  18.691  0.00  0.00    +0.000 A 
ATOM     27  C   UNL     1      10.694  12.337  18.751  0.00  0.00    +0.000 A 
ATOM     28 CL   UNL     1      12.077  11.522  19.390  0.00  0.00    +0.000 Cl
ENDBRANCH  21  22
ENDBRANCH  18  20
ENDBRANCH   1  17
TORSDOF 5
ENDMDL
MODEL 6
REMARK VINA RESULT:      -8.8      1.479      1.789
REMARK  Name = 
REMARK  5 active torsions:
REMARK  status: ('A' for Active; 'I' for Inactive)
REMARK    1  A    between atoms: C_2  and  C_3
REMARK    2  A    between atoms: C_3  and  N_4
REMARK    3  A    between atoms: C_8  and  C_9
REMARK    4  A    between atoms: N_18  and  N_19
REMARK    5  A    between atoms: C_20  and  C_21
REMARK                            x       y       z     vdW  Elec       q    Type
REMARK                         _______ _______ _______ _____ _____    ______ ____
ROOT
ATOM      1  C   UNL     1       7.654   6.670  17.773  0.00  0.00    +0.000 C 
ENDROOT
BRANCH   1   2
ATOM      2  N   UNL     1       6.943   6.157  16.622  0.00  0.00    +0.000 N 
ATOM      3  N   UNL     1       7.599   5.827  15.493  0.00  0.00    +0.000 NA
ATOM      4  N   UNL     1       6.691   5.293  14.698  0.00  0.00    +0.000 NA
ATOM      5  N   UNL     1       5.475   5.226  15.322  0.00  0.00    +0.000 NA
ATOM      6  C   UNL     1       5.622   5.765  16.521  0.00  0.00    +0.000 A 
BRANCH   6   7
ATOM      7  C   UNL     1       4.579   5.829  17.552  0.00  0.00    +0.000 A 
ATOM      8  C   UNL     1       3.733   6.953  17.706  0.00  0.00    +0.000 A 
ATOM      9  C   UNL     1       2.793   7.026  18.736  0.00  0.00    +0.000 A 
ATOM     10  C   UNL     1       2.677   5.946  19.574  0.00  0.00    +0.000 A 
ATOM     11  C   UNL     1       3.448   4.821  19.409  0.00  0.00    +0.000 A 
ATOM     12  C   UNL     1       4.400   4.731  18.412  0.00  0.00    +0.000 A 
ATOM     13  O   UNL     1       3.158   3.862  20.331  0.00  0.00    +0.000 OA
ATOM     14  C   UNL     1       2.149   4.533  21.117  0.00  0.00    +0.000 C 
ATOM     15  O   UNL     1       1.815   5.846  20.617  0.00  0.00    +0.000 OA
ENDBRANCH   6   7
ENDBRANCH   1   2
BRANCH   1  17
ATOM     16  O   UNL     1       7.128   8.890  17.097  0.00  0.00    +0.000 OA
ATOM     17  C   UNL     1       7.806   8.166  17.829  0.00  0.00    +0.000 C 
ATOM     18  N   UNL     1       8.667   8.610  18.820  0.00  0.00    +0.000 N 
ATOM     19  H   UNL     1       9.326   7.965  19.246  0.00  0.00    +0.000 HD
BRANCH  18  20
ATOM     20  N   UNL     1       8.875   9.949  18.957  0.00  0.00    +0.000 NA
ATOM     21  C   UNL     1       9.713  10.285  19.891  0.00  0.00    +0.000 C 
BRANCH  21  22
ATOM     22  C   UNL     1      10.047  11.701  20.143  0.00  0.00    +0.000 A 
ATOM     23  C   UNL     1       9.453  12.353  21.235  0.00  0.00    +0.000 A 
ATOM     24  C   UNL     1       9.779  13.678  21.526  0.00  0.00    +0.000 A 
ATOM     25  C   UNL     1      10.700  14.359  20.731  0.00  0.00    +0.000 A 
ATOM     26  C   UNL     1      11.279  13.721  19.633  0.00  0.00    +0.000 A 
ATOM     27  C   UNL     1      10.953  12.395  19.331  0.00  0.00    +0.000 A 
ATOM     28 CL   UNL     1      11.710  11.687  17.949  0.00  0.00    +0.000 Cl
ENDBRANCH  21  22
ENDBRANCH  18  20
ENDBRANCH   1  17
TORSDOF 5
ENDMDL
MODEL 7
REMARK VINA RESULT:      -8.8      1.121      1.301
REMARK  Name = 
REMARK  5 active torsions:
REMARK  status: ('A' for Active; 'I' for Inactive)
REMARK    1  A    between atoms: C_2  and  C_3
REMARK    2  A    between atoms: C_3  and  N_4
REMARK    3  A    between atoms: C_8  and  C_9
REMARK    4  A    between atoms: N_18  and  N_19
REMARK    5  A    between atoms: C_20  and  C_21
REMARK                            x       y       z     vdW  Elec       q    Type
REMARK                         _______ _______ _______ _____ _____    ______ ____
ROOT
ATOM      1  C   UNL     1       7.034   6.170  18.296  0.00  0.00    +0.000 C 
ENDROOT
BRANCH   1   2
ATOM      2  N   UNL     1       6.648   5.284  17.218  0.00  0.00    +0.000 N 
ATOM      3  N   UNL     1       7.518   4.958  16.244  0.00  0.00    +0.000 NA
ATOM      4  N   UNL     1       6.899   4.060  15.501  0.00  0.00    +0.000 NA
ATOM      5  N   UNL     1       5.666   3.767  16.017  0.00  0.00    +0.000 NA
ATOM      6  C   UNL     1       5.499   4.527  17.086  0.00  0.00    +0.000 A 
BRANCH   6   7
ATOM      7  C   UNL     1       4.341   4.478  17.986  0.00  0.00    +0.000 A 
ATOM      8  C   UNL     1       3.229   5.341  17.839  0.00  0.00    +0.000 A 
ATOM      9  C   UNL     1       2.166   5.327  18.745  0.00  0.00    +0.000 A 
ATOM     10  C   UNL     1       2.207   4.411  19.766  0.00  0.00    +0.000 A 
ATOM     11  C   UNL     1       3.249   3.525  19.896  0.00  0.00    +0.000 A 
ATOM     12  C   UNL     1       4.323   3.531  19.025  0.00  0.00    +0.000 A 
ATOM     13  O   UNL     1       3.082   2.690  20.958  0.00  0.00    +0.000 OA
ATOM     14  C   UNL     1       1.839   3.185  21.502  0.00  0.00    +0.000 C 
ATOM     15  O   UNL     1       1.262   4.257  20.726  0.00  0.00    +0.000 OA
ENDBRANCH   6   7
ENDBRANCH   1   2
BRANCH   1  17
ATOM     16  O   UNL     1       7.291   8.025  16.829  0.00  0.00    +0.000 OA
ATOM     17  C   UNL     1       7.647   7.478  17.873  0.00  0.00    +0.000 C 
ATOM     18  N   UNL     1       8.527   8.015  18.800  0.00  0.00    +0.000 N 
ATOM     19  H   UNL     1       8.913   7.427  19.533  0.00  0.00    +0.000 HD
BRANCH  18  20
ATOM     20  N   UNL     1       9.137   9.198  18.517  0.00  0.00    +0.000 NA
ATOM     21  C   UNL     1       9.081  10.088  19.461  0.00  0.00    +0.000 C 
BRANCH  21  22
ATOM     22  C   UNL     1       9.714  11.413  19.299  0.00  0.00    +0.000 A 
ATOM     23  C   UNL     1      10.825  11.735  20.094  0.00  0.00    +0.000 A 
ATOM     24  C   UNL     1      11.473  12.960  19.937  0.00  0.00    +0.000 A 
ATOM     25  C   UNL     1      11.017  13.871  18.986  0.00  0.00    +0.000 A 
ATOM     26  C   UNL     1       9.901  13.564  18.205  0.00  0.00    +0.000 A 
ATOM     27  C   UNL     1       9.243  12.339  18.361  0.00  0.00    +0.000 A 
ATOM     28 CL   UNL     1       7.866  12.047  17.359  0.00  0.00    +0.000 Cl
ENDBRANCH  21  22
ENDBRANCH  18  20
ENDBRANCH   1  17
TORSDOF 5
ENDMDL
MODEL 8
REMARK VINA RESULT:      -8.7      1.866      2.623
REMARK  Name = 
REMARK  5 active torsions:
REMARK  status: ('A' for Active; 'I' for Inactive)
REMARK    1  A    between atoms: C_2  and  C_3
REMARK    2  A    between atoms: C_3  and  N_4
REMARK    3  A    between atoms: C_8  and  C_9
REMARK    4  A    between atoms: N_18  and  N_19
REMARK    5  A    between atoms: C_20  and  C_21
REMARK                            x       y       z     vdW  Elec       q    Type
REMARK                         _______ _______ _______ _____ _____    ______ ____
ROOT
ATOM      1  C   UNL     1       7.272   6.089  18.356  0.00  0.00    +0.000 C 
ENDROOT
BRANCH   1   2
ATOM      2  N   UNL     1       6.473   5.305  17.439  0.00  0.00    +0.000 N 
ATOM      3  N   UNL     1       7.020   4.301  16.727  0.00  0.00    +0.000 NA
ATOM      4  N   UNL     1       6.015   3.727  16.093  0.00  0.00    +0.000 NA
ATOM      5  N   UNL     1       4.826   4.314  16.431  0.00  0.00    +0.000 NA
ATOM      6  C   UNL     1       5.102   5.300  17.268  0.00  0.00    +0.000 A 
BRANCH   6   7
ATOM      7  C   UNL     1       4.104   6.144  17.937  0.00  0.00    +0.000 A 
ATOM      8  C   UNL     1       3.518   5.788  19.175  0.00  0.00    +0.000 A 
ATOM      9  C   UNL     1       2.520   6.568  19.764  0.00  0.00    +0.000 A 
ATOM     10  C   UNL     1       2.154   7.727  19.126  0.00  0.00    +0.000 A 
ATOM     11  C   UNL     1       2.750   8.122  17.953  0.00  0.00    +0.000 A 
ATOM     12  C   UNL     1       3.725   7.358  17.338  0.00  0.00    +0.000 A 
ATOM     13  O   UNL     1       2.258   9.308  17.503  0.00  0.00    +0.000 OA
ATOM     14  C   UNL     1       1.256   9.587  18.506  0.00  0.00    +0.000 C 
ATOM     15  O   UNL     1       1.212   8.601  19.559  0.00  0.00    +0.000 OA
ENDBRANCH   6   7
ENDBRANCH   1   2
BRANCH   1  17
ATOM     16  O   UNL     1       7.214   7.893  16.805  0.00  0.00    +0.000 OA
ATOM     17  C   UNL     1       7.651   7.464  17.874  0.00  0.00    +0.000 C 
ATOM     18  N   UNL     1       8.415   8.188  18.776  0.00  0.00    +0.000 N 
ATOM     19  H   UNL     1       8.891   7.710  19.536  0.00  0.00    +0.000 HD
BRANCH  18  20
ATOM     20  N   UNL     1       8.811   9.446  18.440  0.00  0.00    +0.000 NA
ATOM     21  C   UNL     1       9.419  10.104  19.380  0.00  0.00    +0.000 C 
BRANCH  21  22
ATOM     22  C   UNL     1       9.919  11.474  19.151  0.00  0.00    +0.000 A 
ATOM     23  C   UNL     1      10.414  11.812  17.882  0.00  0.00    +0.000 A 
ATOM     24  C   UNL     1      10.855  13.109  17.620  0.00  0.00    +0.000 A 
ATOM     25  C   UNL     1      10.803  14.077  18.621  0.00  0.00    +0.000 A 
ATOM     26  C   UNL     1      10.328  13.743  19.890  0.00  0.00    +0.000 A 
ATOM     27  C   UNL     1       9.890  12.442  20.162  0.00  0.00    +0.000 A 
ATOM     28 CL   UNL     1       9.327  12.115  21.762  0.00  0.00    +0.000 Cl
ENDBRANCH  21  22
ENDBRANCH  18  20
ENDBRANCH   1  17
TORSDOF 5
ENDMDL
MODEL 9
REMARK VINA RESULT:      -8.5      4.231      7.158
REMARK  Name = 
REMARK  5 active torsions:
REMARK  status: ('A' for Active; 'I' for Inactive)
REMARK    1  A    between atoms: C_2  and  C_3
REMARK    2  A    between atoms: C_3  and  N_4
REMARK    3  A    between atoms: C_8  and  C_9
REMARK    4  A    between atoms: N_18  and  N_19
REMARK    5  A    between atoms: C_20  and  C_21
REMARK                            x       y       z     vdW  Elec       q    Type
REMARK                         _______ _______ _______ _____ _____    ______ ____
ROOT
ATOM      1  C   UNL     1       2.961   4.177  20.733  0.00  0.00    +0.000 C 
ENDROOT
BRANCH   1   2
ATOM      2  N   UNL     1       3.221   3.252  19.651  0.00  0.00    +0.000 N 
ATOM      3  N   UNL     1       2.576   2.072  19.578  0.00  0.00    +0.000 NA
ATOM      4  N   UNL     1       2.950   1.534  18.432  0.00  0.00    +0.000 NA
ATOM      5  N   UNL     1       3.781   2.377  17.745  0.00  0.00    +0.000 NA
ATOM      6  C   UNL     1       3.958   3.450  18.499  0.00  0.00    +0.000 A 
BRANCH   6   7
ATOM      7  C   UNL     1       4.722   4.640  18.107  0.00  0.00    +0.000 A 
ATOM      8  C   UNL     1       4.295   5.510  17.076  0.00  0.00    +0.000 A 
ATOM      9  C   UNL     1       5.069   6.599  16.670  0.00  0.00    +0.000 A 
ATOM     10  C   UNL     1       6.246   6.833  17.337  0.00  0.00    +0.000 A 
ATOM     11  C   UNL     1       6.653   6.034  18.378  0.00  0.00    +0.000 A 
ATOM     12  C   UNL     1       5.916   4.938  18.787  0.00  0.00    +0.000 A 
ATOM     13  O   UNL     1       7.832   6.454  18.914  0.00  0.00    +0.000 OA
ATOM     14  C   UNL     1       8.136   7.578  18.060  0.00  0.00    +0.000 C 
ATOM     15  O   UNL     1       7.111   7.844  17.078  0.00  0.00    +0.000 OA
ENDBRANCH   6   7
ENDBRANCH   1   2
BRANCH   1  17
ATOM     16  O   UNL     1       0.788   5.085  20.393  0.00  0.00    +0.000 OA
ATOM     17  C   UNL     1       2.002   5.294  20.417  0.00  0.00    +0.000 C 
ATOM     18  N   UNL     1       2.606   6.533  20.275  0.00  0.00    +0.000 N 
ATOM     19  H   UNL     1       3.607   6.595  20.118  0.00  0.00    +0.000 HD
BRANCH  18  20
ATOM     20  N   UNL     1       1.828   7.613  19.990  0.00  0.00    +0.000 NA
ATOM     21  C   UNL     1       1.400   8.275  21.022  0.00  0.00    +0.000 C 
BRANCH  21  22
ATOM     22  C   UNL     1       0.560   9.478  20.863  0.00  0.00    +0.000 A 
ATOM     23  C   UNL     1       0.393  10.023  19.580  0.00  0.00    +0.000 A 
ATOM     24  C   UNL     1      -0.428  11.134  19.388  0.00  0.00    +0.000 A 
ATOM     25  C   UNL     1      -1.089  11.707  20.473  0.00  0.00    +0.000 A 
ATOM     26  C   UNL     1      -0.912  11.181  21.754  0.00  0.00    +0.000 A 
ATOM     27  C   UNL     1      -0.085  10.070  21.955  0.00  0.00    +0.000 A 
ATOM     28 CL   UNL     1       0.083   9.491  23.574  0.00  0.00    +0.000 Cl
ENDBRANCH  21  22
ENDBRANCH  18  20
ENDBRANCH   1  17
TORSDOF 5
ENDMDL
