MODEL 1
REMARK VINA RESULT:      -8.0      0.000      0.000
REMARK  Name = 
REMARK  4 active torsions:
REMARK  status: ('A' for Active; 'I' for Inactive)
REMARK    1  A    between atoms: C_2  and  C_22
REMARK    2  A    between atoms: N_3  and  C_4
REMARK    3  A    between atoms: C_4  and  C_5
REMARK    4  A    between atoms: N_8  and  C_9
REMARK                            x       y       z     vdW  Elec       q    Type
REMARK                         _______ _______ _______ _____ _____    ______ ____
ROOT
ATOM      1  C   UNL     1       4.908   6.146  18.078  0.00  0.00    +0.000 A 
ATOM      2  N   UNL     1       4.030   6.992  18.652  0.00  0.00    +0.000 NA
ATOM      3  C   UNL     1       3.121   6.470  19.491  0.00  0.00    +0.000 A 
ATOM      4  N   UNL     1       2.202   7.332  20.132  0.00  0.00    +0.000 N 
ATOM      5  C   UNL     1       3.106   5.100  19.812  0.00  0.00    +0.000 A 
ATOM      6  C   UNL     1       2.201   4.494  20.715  0.00  0.00    +0.000 A 
ATOM      7  C   UNL     1       2.259   3.126  20.966  0.00  0.00    +0.000 A 
ATOM      8 CL   UNL     1       1.178   2.407  22.093  0.00  0.00    +0.000 Cl
ATOM      9  C   UNL     1       3.194   2.341  20.306  0.00  0.00    +0.000 A 
ATOM     10  C   UNL     1       4.074   2.941  19.399  0.00  0.00    +0.000 A 
ATOM     11  C   UNL     1       4.055   4.308  19.148  0.00  0.00    +0.000 A 
ATOM     12  N   UNL     1       4.944   4.819  18.293  0.00  0.00    +0.000 NA
ATOM     13  H   UNL     1       2.565   7.493  21.070  0.00  0.00    +0.000 HD
ENDROOT
BRANCH   4  14
ATOM     14  C   UNL     1       1.904   8.593  19.455  0.00  0.00    +0.000 C 
ATOM     15  C   UNL     1       1.309   8.378  18.062  0.00  0.00    +0.000 C 
ATOM     16  C   UNL     1       0.533   9.655  17.777  0.00  0.00    +0.000 C 
ATOM     17  C   UNL     1       0.087  10.193  19.132  0.00  0.00    +0.000 C 
ATOM     18  C   UNL     1       0.785   9.342  20.190  0.00  0.00    +0.000 C 
ENDBRANCH   4  14
BRANCH   1  19
ATOM     19  C   UNL     1       5.977   6.743  17.189  0.00  0.00    +0.000 C 
BRANCH  19  22
ATOM     20  O   UNL     1       7.820   4.817  16.336  0.00  0.00    +0.000 OA
ATOM     21  C   UNL     1       6.970   5.216  15.538  0.00  0.00    +0.000 C 
ATOM     22  N   UNL     1       6.027   6.162  15.862  0.00  0.00    +0.000 N 
ATOM     23  H   UNL     1       5.280   6.326  15.194  0.00  0.00    +0.000 HD
BRANCH  21  24
ATOM     24  C   UNL     1       6.877   4.719  14.162  0.00  0.00    +0.000 A 
ATOM     25  C   UNL     1       6.011   3.714  13.764  0.00  0.00    +0.000 A 
ATOM     26  S   UNL     1       6.212   3.377  12.096  0.00  0.00    +0.000 S 
ATOM     27  C   UNL     1       7.426   4.582  12.018  0.00  0.00    +0.000 A 
ATOM     28  N   UNL     1       7.684   5.227  13.139  0.00  0.00    +0.000 NA
ENDBRANCH  21  24
ENDBRANCH  19  22
ENDBRANCH   1  19
TORSDOF 4
ENDMDL
MODEL 2
REMARK VINA RESULT:      -7.5      3.776      7.250
REMARK  Name = 
REMARK  4 active torsions:
REMARK  status: ('A' for Active; 'I' for Inactive)
REMARK    1  A    between atoms: C_2  and  C_22
REMARK    2  A    between atoms: N_3  and  C_4
REMARK    3  A    between atoms: C_4  and  C_5
REMARK    4  A    between atoms: N_8  and  C_9
REMARK                            x       y       z     vdW  Elec       q    Type
REMARK                         _______ _______ _______ _____ _____    ______ ____
ROOT
ATOM      1  C   UNL     1       2.766   7.682  18.202  0.00  0.00    +0.000 A 
ATOM      2  N   UNL     1       3.449   6.861  17.382  0.00  0.00    +0.000 NA
ATOM      3  C   UNL     1       3.597   5.582  17.766  0.00  0.00    +0.000 A 
ATOM      4  N   UNL     1       4.285   4.685  16.916  0.00  0.00    +0.000 N 
ATOM      5  C   UNL     1       3.021   5.089  18.951  0.00  0.00    +0.000 A 
ATOM      6  C   UNL     1       3.108   3.748  19.392  0.00  0.00    +0.000 A 
ATOM      7  C   UNL     1       2.509   3.354  20.585  0.00  0.00    +0.000 A 
ATOM      8 CL   UNL     1       2.589   1.713  21.092  0.00  0.00    +0.000 Cl
ATOM      9  C   UNL     1       1.841   4.287  21.365  0.00  0.00    +0.000 A 
ATOM     10  C   UNL     1       1.775   5.617  20.935  0.00  0.00    +0.000 A 
ATOM     11  C   UNL     1       2.342   6.033  19.736  0.00  0.00    +0.000 A 
ATOM     12  N   UNL     1       2.215   7.311  19.372  0.00  0.00    +0.000 NA
ATOM     13  H   UNL     1       3.572   4.160  16.414  0.00  0.00    +0.000 HD
ENDROOT
BRANCH   4  14
ATOM     14  C   UNL     1       5.259   5.270  15.996  0.00  0.00    +0.000 C 
ATOM     15  C   UNL     1       6.694   5.141  16.509  0.00  0.00    +0.000 C 
ATOM     16  C   UNL     1       7.556   5.216  15.257  0.00  0.00    +0.000 C 
ATOM     17  C   UNL     1       6.703   4.666  14.121  0.00  0.00    +0.000 C 
ATOM     18  C   UNL     1       5.295   4.478  14.683  0.00  0.00    +0.000 C 
ENDBRANCH   4  14
BRANCH   1  19
ATOM     19  C   UNL     1       2.537   9.105  17.738  0.00  0.00    +0.000 C 
BRANCH  19  22
ATOM     20  O   UNL     1       1.037  10.644  19.530  0.00  0.00    +0.000 OA
ATOM     21  C   UNL     1       0.487  10.218  18.513  0.00  0.00    +0.000 C 
ATOM     22  N   UNL     1       1.138   9.450  17.577  0.00  0.00    +0.000 N 
ATOM     23  H   UNL     1       0.653   9.265  16.705  0.00  0.00    +0.000 HD
BRANCH  21  24
ATOM     24  C   UNL     1      -0.919  10.489  18.197  0.00  0.00    +0.000 A 
ATOM     25  C   UNL     1      -1.684  11.439  18.853  0.00  0.00    +0.000 A 
ATOM     26  S   UNL     1      -3.284  11.444  18.239  0.00  0.00    +0.000 S 
ATOM     27  C   UNL     1      -2.852  10.194  17.151  0.00  0.00    +0.000 A 
ATOM     28  N   UNL     1      -1.600   9.782  17.202  0.00  0.00    +0.000 NA
ENDBRANCH  21  24
ENDBRANCH  19  22
ENDBRANCH   1  19
TORSDOF 4
ENDMDL
MODEL 3
REMARK VINA RESULT:      -7.5      4.351      6.752
REMARK  Name = 
REMARK  4 active torsions:
REMARK  status: ('A' for Active; 'I' for Inactive)
REMARK    1  A    between atoms: C_2  and  C_22
REMARK    2  A    between atoms: N_3  and  C_4
REMARK    3  A    between atoms: C_4  and  C_5
REMARK    4  A    between atoms: N_8  and  C_9
REMARK                            x       y       z     vdW  Elec       q    Type
REMARK                         _______ _______ _______ _____ _____    ______ ____
ROOT
ATOM      1  C   UNL     1       7.083   6.224  17.076  0.00  0.00    +0.000 A 
ATOM      2  N   UNL     1       6.018   5.491  17.451  0.00  0.00    +0.000 NA
ATOM      3  C   UNL     1       5.458   4.691  16.528  0.00  0.00    +0.000 A 
ATOM      4  N   UNL     1       4.354   3.886  16.895  0.00  0.00    +0.000 N 
ATOM      5  C   UNL     1       5.983   4.572  15.229  0.00  0.00    +0.000 A 
ATOM      6  C   UNL     1       5.465   3.723  14.223  0.00  0.00    +0.000 A 
ATOM      7  C   UNL     1       6.051   3.677  12.962  0.00  0.00    +0.000 A 
ATOM      8 CL   UNL     1       5.434   2.614  11.760  0.00  0.00    +0.000 Cl
ATOM      9  C   UNL     1       7.138   4.490  12.674  0.00  0.00    +0.000 A 
ATOM     10  C   UNL     1       7.636   5.344  13.665  0.00  0.00    +0.000 A 
ATOM     11  C   UNL     1       7.086   5.392  14.941  0.00  0.00    +0.000 A 
ATOM     12  N   UNL     1       7.630   6.207  15.847  0.00  0.00    +0.000 NA
ATOM     13  H   UNL     1       4.725   2.954  17.072  0.00  0.00    +0.000 HD
ENDROOT
BRANCH   4  14
ATOM     14  C   UNL     1       3.544   4.357  18.016  0.00  0.00    +0.000 C 
ATOM     15  C   UNL     1       2.044   4.253  17.734  0.00  0.00    +0.000 C 
ATOM     16  C   UNL     1       1.399   4.185  19.110  0.00  0.00    +0.000 C 
ATOM     17  C   UNL     1       2.429   3.540  20.030  0.00  0.00    +0.000 C 
ATOM     18  C   UNL     1       3.725   3.436  19.230  0.00  0.00    +0.000 C 
ENDBRANCH   4  14
BRANCH   1  19
ATOM     19  C   UNL     1       7.759   7.070  18.134  0.00  0.00    +0.000 C 
BRANCH  19  22
ATOM     20  O   UNL     1       9.178   8.987  19.598  0.00  0.00    +0.000 OA
ATOM     21  C   UNL     1       8.642   9.328  18.543  0.00  0.00    +0.000 C 
ATOM     22  N   UNL     1       7.919   8.461  17.757  0.00  0.00    +0.000 N 
ATOM     23  H   UNL     1       7.636   8.788  16.839  0.00  0.00    +0.000 HD
BRANCH  21  24
ATOM     24  C   UNL     1       8.720  10.694  18.017  0.00  0.00    +0.000 A 
ATOM     25  C   UNL     1       9.870  11.466  18.050  0.00  0.00    +0.000 A 
ATOM     26  S   UNL     1       9.570  13.014  17.381  0.00  0.00    +0.000 S 
ATOM     27  C   UNL     1       7.945  12.556  17.094  0.00  0.00    +0.000 A 
ATOM     28  N   UNL     1       7.613  11.330  17.447  0.00  0.00    +0.000 NA
ENDBRANCH  21  24
ENDBRANCH  19  22
ENDBRANCH   1  19
TORSDOF 4
ENDMDL
MODEL 4
REMARK VINA RESULT:      -7.4      4.272      7.522
REMARK  Name = 
REMARK  4 active torsions:
REMARK  status: ('A' for Active; 'I' for Inactive)
REMARK    1  A    between atoms: C_2  and  C_22
REMARK    2  A    between atoms: N_3  and  C_4
REMARK    3  A    between atoms: C_4  and  C_5
REMARK    4  A    between atoms: N_8  and  C_9
REMARK                            x       y       z     vdW  Elec       q    Type
REMARK                         _______ _______ _______ _____ _____    ______ ____
ROOT
ATOM      1  C   UNL     1       2.917   6.476  19.079  0.00  0.00    +0.000 A 
ATOM      2  N   UNL     1       2.990   5.155  19.334  0.00  0.00    +0.000 NA
ATOM      3  C   UNL     1       3.654   4.388  18.454  0.00  0.00    +0.000 A 
ATOM      4  N   UNL     1       3.774   3.001  18.704  0.00  0.00    +0.000 N 
ATOM      5  C   UNL     1       4.301   4.934  17.330  0.00  0.00    +0.000 A 
ATOM      6  C   UNL     1       5.046   4.188  16.387  0.00  0.00    +0.000 A 
ATOM      7  C   UNL     1       5.647   4.817  15.300  0.00  0.00    +0.000 A 
ATOM      8 CL   UNL     1       6.580   3.905  14.181  0.00  0.00    +0.000 Cl
ATOM      9  C   UNL     1       5.494   6.185  15.122  0.00  0.00    +0.000 A 
ATOM     10  C   UNL     1       4.739   6.916  16.046  0.00  0.00    +0.000 A 
ATOM     11  C   UNL     1       4.150   6.318  17.154  0.00  0.00    +0.000 A 
ATOM     12  N   UNL     1       3.468   7.080  18.012  0.00  0.00    +0.000 NA
ATOM     13  H   UNL     1       4.701   2.860  19.102  0.00  0.00    +0.000 HD
ENDROOT
BRANCH   4  14
ATOM     14  C   UNL     1       2.739   2.395  19.540  0.00  0.00    +0.000 C 
ATOM     15  C   UNL     1       2.859   2.809  21.007  0.00  0.00    +0.000 C 
ATOM     16  C   UNL     1       1.459   2.623  21.573  0.00  0.00    +0.000 C 
ATOM     17  C   UNL     1       0.499   2.834  20.409  0.00  0.00    +0.000 C 
ATOM     18  C   UNL     1       1.356   2.930  19.148  0.00  0.00    +0.000 C 
ENDBRANCH   4  14
BRANCH   1  19
ATOM     19  C   UNL     1       2.232   7.351  20.107  0.00  0.00    +0.000 C 
BRANCH  19  22
ATOM     20  O   UNL     1       0.597   9.130  21.518  0.00  0.00    +0.000 OA
ATOM     21  C   UNL     1       0.800   9.337  20.321  0.00  0.00    +0.000 C 
ATOM     22  N   UNL     1       1.583   8.518  19.542  0.00  0.00    +0.000 N 
ATOM     23  H   UNL     1       1.812   8.840  18.608  0.00  0.00    +0.000 HD
BRANCH  21  24
ATOM     24  C   UNL     1       0.227  10.481  19.603  0.00  0.00    +0.000 A 
ATOM     25  C   UNL     1      -1.033  10.474  19.028  0.00  0.00    +0.000 A 
ATOM     26  S   UNL     1      -1.341  11.968  18.247  0.00  0.00    +0.000 S 
ATOM     27  C   UNL     1       0.209  12.517  18.726  0.00  0.00    +0.000 A 
ATOM     28  N   UNL     1       0.934  11.675  19.436  0.00  0.00    +0.000 NA
ENDBRANCH  21  24
ENDBRANCH  19  22
ENDBRANCH   1  19
TORSDOF 4
ENDMDL
MODEL 5
REMARK VINA RESULT:      -7.3      4.600      7.846
REMARK  Name = 
REMARK  4 active torsions:
REMARK  status: ('A' for Active; 'I' for Inactive)
REMARK    1  A    between atoms: C_2  and  C_22
REMARK    2  A    between atoms: N_3  and  C_4
REMARK    3  A    between atoms: C_4  and  C_5
REMARK    4  A    between atoms: N_8  and  C_9
REMARK                            x       y       z     vdW  Elec       q    Type
REMARK                         _______ _______ _______ _____ _____    ______ ____
ROOT
ATOM      1  C   UNL     1       2.706   7.671  18.143  0.00  0.00    +0.000 A 
ATOM      2  N   UNL     1       2.610   6.725  19.097  0.00  0.00    +0.000 NA
ATOM      3  C   UNL     1       3.631   5.861  19.221  0.00  0.00    +0.000 A 
ATOM      4  N   UNL     1       3.575   4.872  20.231  0.00  0.00    +0.000 N 
ATOM      5  C   UNL     1       4.789   5.959  18.429  0.00  0.00    +0.000 A 
ATOM      6  C   UNL     1       5.913   5.106  18.534  0.00  0.00    +0.000 A 
ATOM      7  C   UNL     1       7.014   5.278  17.700  0.00  0.00    +0.000 A 
ATOM      8 CL   UNL     1       8.389   4.259  17.863  0.00  0.00    +0.000 Cl
ATOM      9  C   UNL     1       7.003   6.277  16.737  0.00  0.00    +0.000 A 
ATOM     10  C   UNL     1       5.881   7.105  16.621  0.00  0.00    +0.000 A 
ATOM     11  C   UNL     1       4.779   6.973  17.458  0.00  0.00    +0.000 A 
ATOM     12  N   UNL     1       3.755   7.817  17.313  0.00  0.00    +0.000 NA
ATOM     13  H   UNL     1       4.141   5.219  21.004  0.00  0.00    +0.000 HD
ENDROOT
BRANCH   4  14
ATOM     14  C   UNL     1       2.245   4.472  20.683  0.00  0.00    +0.000 C 
ATOM     15  C   UNL     1       1.453   3.748  19.592  0.00  0.00    +0.000 C 
ATOM     16  C   UNL     1       0.435   2.910  20.351  0.00  0.00    +0.000 C 
ATOM     17  C   UNL     1       1.071   2.584  21.697  0.00  0.00    +0.000 C 
ATOM     18  C   UNL     1       2.354   3.409  21.784  0.00  0.00    +0.000 C 
ENDBRANCH   4  14
BRANCH   1  19
ATOM     19  C   UNL     1       1.589   8.688  18.050  0.00  0.00    +0.000 C 
BRANCH  19  22
ATOM     20  O   UNL     1       0.168  11.040  18.580  0.00  0.00    +0.000 OA
ATOM     21  C   UNL     1       0.330  10.228  19.493  0.00  0.00    +0.000 C 
ATOM     22  N   UNL     1       1.017   9.048  19.332  0.00  0.00    +0.000 N 
ATOM     23  H   UNL     1       0.978   8.377  20.092  0.00  0.00    +0.000 HD
BRANCH  21  24
ATOM     24  C   UNL     1      -0.198  10.438  20.845  0.00  0.00    +0.000 A 
ATOM     25  C   UNL     1      -0.895  11.570  21.231  0.00  0.00    +0.000 A 
ATOM     26  S   UNL     1      -1.317  11.476  22.889  0.00  0.00    +0.000 S 
ATOM     27  C   UNL     1      -0.551   9.947  22.979  0.00  0.00    +0.000 A 
ATOM     28  N   UNL     1      -0.015   9.495  21.861  0.00  0.00    +0.000 NA
ENDBRANCH  21  24
ENDBRANCH  19  22
ENDBRANCH   1  19
TORSDOF 4
ENDMDL
MODEL 6
REMARK VINA RESULT:      -7.3      0.933      1.046
REMARK  Name = 
REMARK  4 active torsions:
REMARK  status: ('A' for Active; 'I' for Inactive)
REMARK    1  A    between atoms: C_2  and  C_22
REMARK    2  A    between atoms: N_3  and  C_4
REMARK    3  A    between atoms: C_4  and  C_5
REMARK    4  A    between atoms: N_8  and  C_9
REMARK                            x       y       z     vdW  Elec       q    Type
REMARK                         _______ _______ _______ _____ _____    ______ ____
ROOT
ATOM      1  C   UNL     1       3.982   6.520  17.914  0.00  0.00    +0.000 A 
ATOM      2  N   UNL     1       3.294   7.297  18.773  0.00  0.00    +0.000 NA
ATOM      3  C   UNL     1       2.559   6.682  19.714  0.00  0.00    +0.000 A 
ATOM      4  N   UNL     1       1.846   7.468  20.650  0.00  0.00    +0.000 N 
ATOM      5  C   UNL     1       2.537   5.282  19.846  0.00  0.00    +0.000 A 
ATOM      6  C   UNL     1       1.815   4.576  20.836  0.00  0.00    +0.000 A 
ATOM      7  C   UNL     1       1.850   3.185  20.883  0.00  0.00    +0.000 A 
ATOM      8 CL   UNL     1       0.998   2.340  22.114  0.00  0.00    +0.000 Cl
ATOM      9  C   UNL     1       2.579   2.479  19.937  0.00  0.00    +0.000 A 
ATOM     10  C   UNL     1       3.276   3.180  18.946  0.00  0.00    +0.000 A 
ATOM     11  C   UNL     1       3.279   4.570  18.890  0.00  0.00    +0.000 A 
ATOM     12  N   UNL     1       3.990   5.175  17.937  0.00  0.00    +0.000 NA
ATOM     13  H   UNL     1       2.409   7.485  21.499  0.00  0.00    +0.000 HD
ENDROOT
BRANCH   4  14
ATOM     14  C   UNL     1       1.479   8.818  20.228  0.00  0.00    +0.000 C 
ATOM     15  C   UNL     1       0.098   8.868  19.573  0.00  0.00    +0.000 C 
ATOM     16  C   UNL     1      -0.361  10.307  19.757  0.00  0.00    +0.000 C 
ATOM     17  C   UNL     1       0.310  10.807  21.031  0.00  0.00    +0.000 C 
ATOM     18  C   UNL     1       1.308   9.730  21.450  0.00  0.00    +0.000 C 
ENDBRANCH   4  14
BRANCH   1  19
ATOM     19  C   UNL     1       4.867   7.211  16.899  0.00  0.00    +0.000 C 
BRANCH  19  22
ATOM     20  O   UNL     1       7.335   6.043  16.288  0.00  0.00    +0.000 OA
ATOM     21  C   UNL     1       6.394   5.874  15.513  0.00  0.00    +0.000 C 
ATOM     22  N   UNL     1       5.146   6.410  15.723  0.00  0.00    +0.000 N 
ATOM     23  H   UNL     1       4.395   6.103  15.113  0.00  0.00    +0.000 HD
BRANCH  21  24
ATOM     24  C   UNL     1       6.508   5.079  14.285  0.00  0.00    +0.000 A 
ATOM     25  C   UNL     1       5.630   4.064  13.943  0.00  0.00    +0.000 A 
ATOM     26  S   UNL     1       6.103   3.340  12.463  0.00  0.00    +0.000 S 
ATOM     27  C   UNL     1       7.430   4.419  12.380  0.00  0.00    +0.000 A 
ATOM     28  N   UNL     1       7.540   5.287  13.366  0.00  0.00    +0.000 NA
ENDBRANCH  21  24
ENDBRANCH  19  22
ENDBRANCH   1  19
TORSDOF 4
ENDMDL
MODEL 7
REMARK VINA RESULT:      -7.2      3.821      6.061
REMARK  Name = 
REMARK  4 active torsions:
REMARK  status: ('A' for Active; 'I' for Inactive)
REMARK    1  A    between atoms: C_2  and  C_22
REMARK    2  A    between atoms: N_3  and  C_4
REMARK    3  A    between atoms: C_4  and  C_5
REMARK    4  A    between atoms: N_8  and  C_9
REMARK                            x       y       z     vdW  Elec       q    Type
REMARK                         _______ _______ _______ _____ _____    ______ ____
ROOT
ATOM      1  C   UNL     1       1.476   8.806  18.822  0.00  0.00    +0.000 A 
ATOM      2  N   UNL     1       0.525   9.516  18.184  0.00  0.00    +0.000 NA
ATOM      3  C   UNL     1      -0.376  10.166  18.938  0.00  0.00    +0.000 A 
ATOM      4  N   UNL     1      -1.372  10.944  18.301  0.00  0.00    +0.000 N 
ATOM      5  C   UNL     1      -0.314  10.160  20.343  0.00  0.00    +0.000 A 
ATOM      6  C   UNL     1      -1.209  10.852  21.193  0.00  0.00    +0.000 A 
ATOM      7  C   UNL     1      -1.071  10.781  22.577  0.00  0.00    +0.000 A 
ATOM      8 CL   UNL     1      -2.141  11.656  23.598  0.00  0.00    +0.000 Cl
ATOM      9  C   UNL     1      -0.064  10.004  23.132  0.00  0.00    +0.000 A 
ATOM     10  C   UNL     1       0.806   9.305  22.289  0.00  0.00    +0.000 A 
ATOM     11  C   UNL     1       0.708   9.378  20.904  0.00  0.00    +0.000 A 
ATOM     12  N   UNL     1       1.590   8.709  20.158  0.00  0.00    +0.000 NA
ATOM     13  H   UNL     1      -1.053  11.910  18.346  0.00  0.00    +0.000 HD
ENDROOT
BRANCH   4  14
ATOM     14  C   UNL     1      -1.727  10.564  16.936  0.00  0.00    +0.000 C 
ATOM     15  C   UNL     1      -2.719   9.400  16.896  0.00  0.00    +0.000 C 
ATOM     16  C   UNL     1      -3.414   9.537  15.549  0.00  0.00    +0.000 C 
ATOM     17  C   UNL     1      -3.392  11.022  15.208  0.00  0.00    +0.000 C 
ATOM     18  C   UNL     1      -2.504  11.696  16.252  0.00  0.00    +0.000 C 
ENDBRANCH   4  14
BRANCH   1  19
ATOM     19  C   UNL     1       2.534   8.133  17.975  0.00  0.00    +0.000 C 
BRANCH  19  22
ATOM     20  O   UNL     1       4.672   6.539  17.125  0.00  0.00    +0.000 OA
ATOM     21  C   UNL     1       3.765   6.015  17.773  0.00  0.00    +0.000 C 
ATOM     22  N   UNL     1       2.672   6.713  18.230  0.00  0.00    +0.000 N 
ATOM     23  H   UNL     1       2.049   6.236  18.874  0.00  0.00    +0.000 HD
BRANCH  21  24
ATOM     24  C   UNL     1       3.761   4.592  18.126  0.00  0.00    +0.000 A 
ATOM     25  C   UNL     1       3.104   3.619  17.389  0.00  0.00    +0.000 A 
ATOM     26  S   UNL     1       3.291   2.084  18.126  0.00  0.00    +0.000 S 
ATOM     27  C   UNL     1       4.226   2.811  19.363  0.00  0.00    +0.000 A 
ATOM     28  N   UNL     1       4.420   4.111  19.261  0.00  0.00    +0.000 NA
ENDBRANCH  21  24
ENDBRANCH  19  22
ENDBRANCH   1  19
TORSDOF 4
ENDMDL
MODEL 8
REMARK VINA RESULT:      -7.1      4.429      7.273
REMARK  Name = 
REMARK  4 active torsions:
REMARK  status: ('A' for Active; 'I' for Inactive)
REMARK    1  A    between atoms: C_2  and  C_22
REMARK    2  A    between atoms: N_3  and  C_4
REMARK    3  A    between atoms: C_4  and  C_5
REMARK    4  A    between atoms: N_8  and  C_9
REMARK                            x       y       z     vdW  Elec       q    Type
REMARK                         _______ _______ _______ _____ _____    ______ ____
ROOT
ATOM      1  C   UNL     1       2.698   7.598  17.960  0.00  0.00    +0.000 A 
ATOM      2  N   UNL     1       2.593   6.702  18.959  0.00  0.00    +0.000 NA
ATOM      3  C   UNL     1       3.631   5.875  19.165  0.00  0.00    +0.000 A 
ATOM      4  N   UNL     1       3.565   4.939  20.224  0.00  0.00    +0.000 N 
ATOM      5  C   UNL     1       4.814   5.963  18.409  0.00  0.00    +0.000 A 
ATOM      6  C   UNL     1       5.955   5.149  18.598  0.00  0.00    +0.000 A 
ATOM      7  C   UNL     1       7.081   5.307  17.794  0.00  0.00    +0.000 A 
ATOM      8 CL   UNL     1       8.475   4.337  18.059  0.00  0.00    +0.000 Cl
ATOM      9  C   UNL     1       7.078   6.253  16.779  0.00  0.00    +0.000 A 
ATOM     10  C   UNL     1       5.939   7.042  16.581  0.00  0.00    +0.000 A 
ATOM     11  C   UNL     1       4.811   6.924  17.385  0.00  0.00    +0.000 A 
ATOM     12  N   UNL     1       3.771   7.729  17.160  0.00  0.00    +0.000 NA
ATOM     13  H   UNL     1       4.093   5.342  20.996  0.00  0.00    +0.000 HD
ENDROOT
BRANCH   4  14
ATOM     14  C   UNL     1       2.230   4.526  20.651  0.00  0.00    +0.000 C 
ATOM     15  C   UNL     1       1.463   3.802  19.543  0.00  0.00    +0.000 C 
ATOM     16  C   UNL     1       0.438   2.952  20.280  0.00  0.00    +0.000 C 
ATOM     17  C   UNL     1       1.054   2.625  21.635  0.00  0.00    +0.000 C 
ATOM     18  C   UNL     1       2.328   3.459  21.749  0.00  0.00    +0.000 C 
ENDBRANCH   4  14
BRANCH   1  19
ATOM     19  C   UNL     1       1.559   8.578  17.774  0.00  0.00    +0.000 C 
BRANCH  19  22
ATOM     20  O   UNL     1       0.225  10.387  19.440  0.00  0.00    +0.000 OA
ATOM     21  C   UNL     1       1.219  10.774  18.824  0.00  0.00    +0.000 C 
ATOM     22  N   UNL     1       1.938   9.962  17.979  0.00  0.00    +0.000 N 
ATOM     23  H   UNL     1       2.820  10.318  17.626  0.00  0.00    +0.000 HD
BRANCH  21  24
ATOM     24  C   UNL     1       1.739  12.141  18.932  0.00  0.00    +0.000 A 
ATOM     25  C   UNL     1       1.417  13.006  19.964  0.00  0.00    +0.000 A 
ATOM     26  S   UNL     1       2.181  14.523  19.732  0.00  0.00    +0.000 S 
ATOM     27  C   UNL     1       2.882  13.929  18.287  0.00  0.00    +0.000 A 
ATOM     28  N   UNL     1       2.600  12.680  17.971  0.00  0.00    +0.000 NA
ENDBRANCH  21  24
ENDBRANCH  19  22
ENDBRANCH   1  19
TORSDOF 4
ENDMDL
MODEL 9
REMARK VINA RESULT:      -7.1      7.638     12.158
REMARK  Name = 
REMARK  4 active torsions:
REMARK  status: ('A' for Active; 'I' for Inactive)
REMARK    1  A    between atoms: C_2  and  C_22
REMARK    2  A    between atoms: N_3  and  C_4
REMARK    3  A    between atoms: C_4  and  C_5
REMARK    4  A    between atoms: N_8  and  C_9
REMARK                            x       y       z     vdW  Elec       q    Type
REMARK                         _______ _______ _______ _____ _____    ______ ____
ROOT
ATOM      1  C   UNL     1      -2.088  12.075  20.304  0.00  0.00    +0.000 A 
ATOM      2  N   UNL     1      -0.979  11.445  19.870  0.00  0.00    +0.000 NA
ATOM      3  C   UNL     1      -1.016  10.896  18.645  0.00  0.00    +0.000 A 
ATOM      4  N   UNL     1       0.140  10.251  18.147  0.00  0.00    +0.000 N 
ATOM      5  C   UNL     1      -2.143  11.009  17.812  0.00  0.00    +0.000 A 
ATOM      6  C   UNL     1      -2.233  10.486  16.501  0.00  0.00    +0.000 A 
ATOM      7  C   UNL     1      -3.396  10.644  15.752  0.00  0.00    +0.000 A 
ATOM      8 CL   UNL     1      -3.480  10.037  14.146  0.00  0.00    +0.000 Cl
ATOM      9  C   UNL     1      -4.490  11.297  16.303  0.00  0.00    +0.000 A 
ATOM     10  C   UNL     1      -4.405  11.794  17.608  0.00  0.00    +0.000 A 
ATOM     11  C   UNL     1      -3.247  11.674  18.369  0.00  0.00    +0.000 A 
ATOM     12  N   UNL     1      -3.224  12.199  19.596  0.00  0.00    +0.000 NA
ATOM     13  H   UNL     1       0.597  10.918  17.528  0.00  0.00    +0.000 HD
ENDROOT
BRANCH   4  14
ATOM     14  C   UNL     1       1.073   9.720  19.138  0.00  0.00    +0.000 C 
ATOM     15  C   UNL     1       0.356   9.087  20.332  0.00  0.00    +0.000 C 
ATOM     16  C   UNL     1       1.365   8.104  20.908  0.00  0.00    +0.000 C 
ATOM     17  C   UNL     1       2.236   7.657  19.739  0.00  0.00    +0.000 C 
ATOM     18  C   UNL     1       1.860   8.540  18.551  0.00  0.00    +0.000 C 
ENDBRANCH   4  14
BRANCH   1  19
ATOM     19  C   UNL     1      -2.024  12.756  21.655  0.00  0.00    +0.000 C 
BRANCH  19  22
ATOM     20  O   UNL     1      -3.477  11.880  23.879  0.00  0.00    +0.000 OA
ATOM     21  C   UNL     1      -3.929  12.808  23.207  0.00  0.00    +0.000 C 
ATOM     22  N   UNL     1      -3.291  13.305  22.095  0.00  0.00    +0.000 N 
ATOM     23  H   UNL     1      -3.659  14.159  21.688  0.00  0.00    +0.000 HD
BRANCH  21  24
ATOM     24  C   UNL     1      -5.193  13.479  23.526  0.00  0.00    +0.000 A 
ATOM     25  C   UNL     1      -6.373  12.806  23.798  0.00  0.00    +0.000 A 
ATOM     26  S   UNL     1      -7.642  13.920  24.088  0.00  0.00    +0.000 S 
ATOM     27  C   UNL     1      -6.544  15.210  23.834  0.00  0.00    +0.000 A 
ATOM     28  N   UNL     1      -5.299  14.872  23.563  0.00  0.00    +0.000 NA
ENDBRANCH  21  24
ENDBRANCH  19  22
ENDBRANCH   1  19
TORSDOF 4
ENDMDL
