MODEL 1
REMARK VINA RESULT:      -4.1      0.000      0.000
REMARK  Name = 
REMARK  6 active torsions:
REMARK  status: ('A' for Active; 'I' for Inactive)
REMARK    1  A    between atoms: C_1  and  N_2
REMARK    2  A    between atoms: N_2  and  C_3
REMARK    3  A    between atoms: N_2  and  C_4
REMARK    4  A    between atoms: C_4  and  C_5
REMARK    5  A    between atoms: C_4  and  C_7
REMARK    6  A    between atoms: C_5  and  N_6
REMARK                            x       y       z     vdW  Elec       q    Type
REMARK                         _______ _______ _______ _____ _____    ______ ____
ROOT
ATOM      1  C   UNL     1       3.658   3.822  19.602  0.00  0.00    +0.000 C 
ENDROOT
BRANCH   1   3
ATOM      2  C   UNL     1       3.674   3.823  17.154  0.00  0.00    +0.000 C 
ATOM      3  N   UNL     1       3.126   3.183  18.360  0.00  0.00    +0.000 NA
ATOM      4  C   UNL     1       3.447   1.753  18.285  0.00  0.00    +0.000 C 
ENDBRANCH   1   3
BRANCH   1   5
ATOM      5  C   UNL     1       2.525   4.298  20.506  0.00  0.00    +0.000 C 
ATOM      6  C   UNL     1       1.127   3.709  20.540  0.00  0.00    +0.000 C 
ATOM      7  C   UNL     1       2.083   3.394  21.643  0.00  0.00    +0.000 C 
ENDBRANCH   1   5
BRANCH   1   8
ATOM      8  C   UNL     1       4.561   5.069  19.259  0.00  0.00    +0.000 C 
BRANCH   8   9
ATOM      9  N   UNL     1       5.979   4.939  19.623  0.00  0.00    +0.000 NA
ATOM     10  H   UNL     1       6.509   5.664  19.143  0.00  0.00    +0.000 HD
ATOM     11  H   UNL     1       6.328   4.052  19.259  0.00  0.00    +0.000 HD
ENDBRANCH   8   9
ENDBRANCH   1   8
TORSDOF 4
ENDMDL
MODEL 2
REMARK VINA RESULT:      -4.0      1.139      1.139
REMARK  Name = 
REMARK  6 active torsions:
REMARK  status: ('A' for Active; 'I' for Inactive)
REMARK    1  A    between atoms: C_1  and  N_2
REMARK    2  A    between atoms: N_2  and  C_3
REMARK    3  A    between atoms: N_2  and  C_4
REMARK    4  A    between atoms: C_4  and  C_5
REMARK    5  A    between atoms: C_4  and  C_7
REMARK    6  A    between atoms: C_5  and  N_6
REMARK                            x       y       z     vdW  Elec       q    Type
REMARK                         _______ _______ _______ _____ _____    ______ ____
ROOT
ATOM      1  C   UNL     1       3.348   3.773  19.674  0.00  0.00    +0.000 C 
ENDROOT
BRANCH   1   3
ATOM      2  C   UNL     1       3.591   3.862  17.240  0.00  0.00    +0.000 C 
ATOM      3  N   UNL     1       3.006   3.125  18.371  0.00  0.00    +0.000 NA
ATOM      4  C   UNL     1       3.484   1.740  18.292  0.00  0.00    +0.000 C 
ENDBRANCH   1   3
BRANCH   1   5
ATOM      5  C   UNL     1       2.110   3.937  20.551  0.00  0.00    +0.000 C 
ATOM      6  C   UNL     1       0.895   3.028  20.528  0.00  0.00    +0.000 C 
ATOM      7  C   UNL     1       1.869   2.922  21.655  0.00  0.00    +0.000 C 
ENDBRANCH   1   5
BRANCH   1   8
ATOM      8  C   UNL     1       3.977   5.202  19.452  0.00  0.00    +0.000 C 
BRANCH   8   9
ATOM      9  N   UNL     1       3.142   6.331  19.883  0.00  0.00    +0.000 NA
ATOM     10  H   UNL     1       2.216   6.232  19.470  0.00  0.00    +0.000 HD
ATOM     11  H   UNL     1       3.530   7.190  19.492  0.00  0.00    +0.000 HD
ENDBRANCH   8   9
ENDBRANCH   1   8
TORSDOF 4
ENDMDL
MODEL 3
REMARK VINA RESULT:      -4.0      1.382      2.512
REMARK  Name = 
REMARK  6 active torsions:
REMARK  status: ('A' for Active; 'I' for Inactive)
REMARK    1  A    between atoms: C_1  and  N_2
REMARK    2  A    between atoms: N_2  and  C_3
REMARK    3  A    between atoms: N_2  and  C_4
REMARK    4  A    between atoms: C_4  and  C_5
REMARK    5  A    between atoms: C_4  and  C_7
REMARK    6  A    between atoms: C_5  and  N_6
REMARK                            x       y       z     vdW  Elec       q    Type
REMARK                         _______ _______ _______ _____ _____    ______ ____
ROOT
ATOM      1  C   UNL     1       3.213   3.249  19.165  0.00  0.00    +0.000 C 
ENDROOT
BRANCH   1   3
ATOM      2  C   UNL     1       5.372   4.391  18.996  0.00  0.00    +0.000 C 
ATOM      3  N   UNL     1       3.911   4.547  18.915  0.00  0.00    +0.000 NA
ATOM      4  C   UNL     1       3.599   5.106  17.595  0.00  0.00    +0.000 C 
ENDBRANCH   1   3
BRANCH   1   5
ATOM      5  C   UNL     1       2.250   3.358  20.344  0.00  0.00    +0.000 C 
ATOM      6  C   UNL     1       1.275   4.497  20.574  0.00  0.00    +0.000 C 
ATOM      7  C   UNL     1       0.765   3.184  20.079  0.00  0.00    +0.000 C 
ENDBRANCH   1   5
BRANCH   1   8
ATOM      8  C   UNL     1       4.244   2.100  19.485  0.00  0.00    +0.000 C 
BRANCH   8   9
ATOM      9  N   UNL     1       4.215   0.954  18.566  0.00  0.00    +0.000 NA
ATOM     10  H   UNL     1       5.156   0.568  18.491  0.00  0.00    +0.000 HD
ATOM     11  H   UNL     1       3.980   1.292  17.633  0.00  0.00    +0.000 HD
ENDBRANCH   8   9
ENDBRANCH   1   8
TORSDOF 4
ENDMDL
MODEL 4
REMARK VINA RESULT:      -4.0      1.797      3.097
REMARK  Name = 
REMARK  6 active torsions:
REMARK  status: ('A' for Active; 'I' for Inactive)
REMARK    1  A    between atoms: C_1  and  N_2
REMARK    2  A    between atoms: N_2  and  C_3
REMARK    3  A    between atoms: N_2  and  C_4
REMARK    4  A    between atoms: C_4  and  C_5
REMARK    5  A    between atoms: C_4  and  C_7
REMARK    6  A    between atoms: C_5  and  N_6
REMARK                            x       y       z     vdW  Elec       q    Type
REMARK                         _______ _______ _______ _____ _____    ______ ____
ROOT
ATOM      1  C   UNL     1       3.011   3.620  19.520  0.00  0.00    +0.000 C 
ENDROOT
BRANCH   1   3
ATOM      2  C   UNL     1       0.942   2.470  18.894  0.00  0.00    +0.000 C 
ATOM      3  N   UNL     1       1.572   3.392  19.853  0.00  0.00    +0.000 NA
ATOM      4  C   UNL     1       1.390   2.827  21.195  0.00  0.00    +0.000 C 
ENDBRANCH   1   3
BRANCH   1   5
ATOM      5  C   UNL     1       3.160   4.549  18.319  0.00  0.00    +0.000 C 
ATOM      6  C   UNL     1       2.439   5.872  18.143  0.00  0.00    +0.000 C 
ATOM      7  C   UNL     1       3.886   5.869  18.515  0.00  0.00    +0.000 C 
ENDBRANCH   1   5
BRANCH   1   8
ATOM      8  C   UNL     1       3.738   2.263  19.176  0.00  0.00    +0.000 C 
BRANCH   8   9
ATOM      9  N   UNL     1       4.955   1.987  19.951  0.00  0.00    +0.000 NA
ATOM     10  H   UNL     1       5.682   1.661  19.316  0.00  0.00    +0.000 HD
ATOM     11  H   UNL     1       4.769   1.209  20.583  0.00  0.00    +0.000 HD
ENDBRANCH   8   9
ENDBRANCH   1   8
TORSDOF 4
ENDMDL
MODEL 5
REMARK VINA RESULT:      -4.0      2.051      2.288
REMARK  Name = 
REMARK  6 active torsions:
REMARK  status: ('A' for Active; 'I' for Inactive)
REMARK    1  A    between atoms: C_1  and  N_2
REMARK    2  A    between atoms: N_2  and  C_3
REMARK    3  A    between atoms: N_2  and  C_4
REMARK    4  A    between atoms: C_4  and  C_5
REMARK    5  A    between atoms: C_4  and  C_7
REMARK    6  A    between atoms: C_5  and  N_6
REMARK                            x       y       z     vdW  Elec       q    Type
REMARK                         _______ _______ _______ _____ _____    ______ ____
ROOT
ATOM      1  C   UNL     1       2.694   4.973  19.993  0.00  0.00    +0.000 C 
ENDROOT
BRANCH   1   3
ATOM      2  C   UNL     1       3.473   5.258  17.689  0.00  0.00    +0.000 C 
ATOM      3  N   UNL     1       3.354   4.324  18.819  0.00  0.00    +0.000 NA
ATOM      4  C   UNL     1       4.701   3.836  19.134  0.00  0.00    +0.000 C 
ENDBRANCH   1   3
BRANCH   1   5
ATOM      5  C   UNL     1       1.348   4.323  20.299  0.00  0.00    +0.000 C 
ATOM      6  C   UNL     1       0.886   2.979  19.770  0.00  0.00    +0.000 C 
ATOM      7  C   UNL     1       1.328   3.095  21.192  0.00  0.00    +0.000 C 
ENDBRANCH   1   5
BRANCH   1   8
ATOM      8  C   UNL     1       2.442   6.508  19.727  0.00  0.00    +0.000 C 
BRANCH   8   9
ATOM      9  N   UNL     1       1.856   7.253  20.850  0.00  0.00    +0.000 NA
ATOM     10  H   UNL     1       2.409   7.073  21.687  0.00  0.00    +0.000 HD
ATOM     11  H   UNL     1       0.929   6.873  21.043  0.00  0.00    +0.000 HD
ENDBRANCH   8   9
ENDBRANCH   1   8
TORSDOF 4
ENDMDL
MODEL 6
REMARK VINA RESULT:      -4.0      1.507      1.815
REMARK  Name = 
REMARK  6 active torsions:
REMARK  status: ('A' for Active; 'I' for Inactive)
REMARK    1  A    between atoms: C_1  and  N_2
REMARK    2  A    between atoms: N_2  and  C_3
REMARK    3  A    between atoms: N_2  and  C_4
REMARK    4  A    between atoms: C_4  and  C_5
REMARK    5  A    between atoms: C_4  and  C_7
REMARK    6  A    between atoms: C_5  and  N_6
REMARK                            x       y       z     vdW  Elec       q    Type
REMARK                         _______ _______ _______ _____ _____    ______ ____
ROOT
ATOM      1  C   UNL     1       3.150   3.377  19.116  0.00  0.00    +0.000 C 
ENDROOT
BRANCH   1   3
ATOM      2  C   UNL     1       3.344   5.682  18.314  0.00  0.00    +0.000 C 
ATOM      3  N   UNL     1       3.056   4.290  17.935  0.00  0.00    +0.000 NA
ATOM      4  C   UNL     1       3.991   3.920  16.866  0.00  0.00    +0.000 C 
ENDBRANCH   1   3
BRANCH   1   5
ATOM      5  C   UNL     1       2.365   3.928  20.303  0.00  0.00    +0.000 C 
ATOM      6  C   UNL     1       0.856   4.067  20.364  0.00  0.00    +0.000 C 
ATOM      7  C   UNL     1       1.522   2.964  21.119  0.00  0.00    +0.000 C 
ENDBRANCH   1   5
BRANCH   1   8
ATOM      8  C   UNL     1       4.647   3.186  19.571  0.00  0.00    +0.000 C 
BRANCH   8   9
ATOM      9  N   UNL     1       5.006   1.827  20.000  0.00  0.00    +0.000 NA
ATOM     10  H   UNL     1       5.582   1.396  19.279  0.00  0.00    +0.000 HD
ATOM     11  H   UNL     1       4.156   1.266  20.047  0.00  0.00    +0.000 HD
ENDBRANCH   8   9
ENDBRANCH   1   8
TORSDOF 4
ENDMDL
MODEL 7
REMARK VINA RESULT:      -4.0      1.394      2.696
REMARK  Name = 
REMARK  6 active torsions:
REMARK  status: ('A' for Active; 'I' for Inactive)
REMARK    1  A    between atoms: C_1  and  N_2
REMARK    2  A    between atoms: N_2  and  C_3
REMARK    3  A    between atoms: N_2  and  C_4
REMARK    4  A    between atoms: C_4  and  C_5
REMARK    5  A    between atoms: C_4  and  C_7
REMARK    6  A    between atoms: C_5  and  N_6
REMARK                            x       y       z     vdW  Elec       q    Type
REMARK                         _______ _______ _______ _____ _____    ______ ____
ROOT
ATOM      1  C   UNL     1       2.983   3.703  19.087  0.00  0.00    +0.000 C 
ENDROOT
BRANCH   1   3
ATOM      2  C   UNL     1       5.119   4.898  19.100  0.00  0.00    +0.000 C 
ATOM      3  N   UNL     1       3.757   4.849  19.654  0.00  0.00    +0.000 NA
ATOM      4  C   UNL     1       3.123   6.144  19.383  0.00  0.00    +0.000 C 
ENDBRANCH   1   3
BRANCH   1   5
ATOM      5  C   UNL     1       2.488   2.771  20.190  0.00  0.00    +0.000 C 
ATOM      6  C   UNL     1       2.190   3.187  21.618  0.00  0.00    +0.000 C 
ATOM      7  C   UNL     1       1.059   2.928  20.678  0.00  0.00    +0.000 C 
ENDBRANCH   1   5
BRANCH   1   8
ATOM      8  C   UNL     1       3.866   2.854  18.094  0.00  0.00    +0.000 C 
BRANCH   8   9
ATOM      9  N   UNL     1       3.916   1.412  18.373  0.00  0.00    +0.000 NA
ATOM     10  H   UNL     1       4.497   1.257  19.196  0.00  0.00    +0.000 HD
ATOM     11  H   UNL     1       4.398   0.949  17.603  0.00  0.00    +0.000 HD
ENDBRANCH   8   9
ENDBRANCH   1   8
TORSDOF 4
ENDMDL
MODEL 8
REMARK VINA RESULT:      -4.0      3.149      5.189
REMARK  Name = 
REMARK  6 active torsions:
REMARK  status: ('A' for Active; 'I' for Inactive)
REMARK    1  A    between atoms: C_1  and  N_2
REMARK    2  A    between atoms: N_2  and  C_3
REMARK    3  A    between atoms: N_2  and  C_4
REMARK    4  A    between atoms: C_4  and  C_5
REMARK    5  A    between atoms: C_4  and  C_7
REMARK    6  A    between atoms: C_5  and  N_6
REMARK                            x       y       z     vdW  Elec       q    Type
REMARK                         _______ _______ _______ _____ _____    ______ ____
ROOT
ATOM      1  C   UNL     1       6.242   5.522  16.989  0.00  0.00    +0.000 C 
ENDROOT
BRANCH   1   3
ATOM      2  C   UNL     1       5.034   5.249  19.101  0.00  0.00    +0.000 C 
ATOM      3  N   UNL     1       4.903   5.469  17.652  0.00  0.00    +0.000 NA
ATOM      4  C   UNL     1       4.134   6.703  17.460  0.00  0.00    +0.000 C 
ENDBRANCH   1   3
BRANCH   1   5
ATOM      5  C   UNL     1       6.366   4.451  15.909  0.00  0.00    +0.000 C 
ATOM      6  C   UNL     1       5.471   4.332  14.689  0.00  0.00    +0.000 C 
ATOM      7  C   UNL     1       6.856   4.869  14.533  0.00  0.00    +0.000 C 
ENDBRANCH   1   5
BRANCH   1   8
ATOM      8  C   UNL     1       7.403   5.295  18.032  0.00  0.00    +0.000 C 
BRANCH   8   9
ATOM      9  N   UNL     1       8.250   4.120  17.784  0.00  0.00    +0.000 NA
ATOM     10  H   UNL     1       8.762   4.261  16.914  0.00  0.00    +0.000 HD
ATOM     11  H   UNL     1       7.648   3.313  17.624  0.00  0.00    +0.000 HD
ENDBRANCH   8   9
ENDBRANCH   1   8
TORSDOF 4
ENDMDL
MODEL 9
REMARK VINA RESULT:      -3.9      1.608      2.500
REMARK  Name = 
REMARK  6 active torsions:
REMARK  status: ('A' for Active; 'I' for Inactive)
REMARK    1  A    between atoms: C_1  and  N_2
REMARK    2  A    between atoms: N_2  and  C_3
REMARK    3  A    between atoms: N_2  and  C_4
REMARK    4  A    between atoms: C_4  and  C_5
REMARK    5  A    between atoms: C_4  and  C_7
REMARK    6  A    between atoms: C_5  and  N_6
REMARK                            x       y       z     vdW  Elec       q    Type
REMARK                         _______ _______ _______ _____ _____    ______ ____
ROOT
ATOM      1  C   UNL     1       3.213   3.788  18.918  0.00  0.00    +0.000 C 
ENDROOT
BRANCH   1   3
ATOM      2  C   UNL     1       4.908   5.524  19.237  0.00  0.00    +0.000 C 
ATOM      3  N   UNL     1       3.467   5.227  19.228  0.00  0.00    +0.000 NA
ATOM      4  C   UNL     1       2.836   6.129  18.258  0.00  0.00    +0.000 C 
ENDBRANCH   1   3
BRANCH   1   5
ATOM      5  C   UNL     1       2.320   3.144  19.976  0.00  0.00    +0.000 C 
ATOM      6  C   UNL     1       1.161   3.829  20.675  0.00  0.00    +0.000 C 
ATOM      7  C   UNL     1       0.883   2.823  19.607  0.00  0.00    +0.000 C 
ENDBRANCH   1   5
BRANCH   1   8
ATOM      8  C   UNL     1       4.560   2.971  18.859  0.00  0.00    +0.000 C 
BRANCH   8   9
ATOM      9  N   UNL     1       4.772   2.025  19.964  0.00  0.00    +0.000 NA
ATOM     10  H   UNL     1       5.270   2.503  20.714  0.00  0.00    +0.000 HD
ATOM     11  H   UNL     1       5.397   1.285  19.644  0.00  0.00    +0.000 HD
ENDBRANCH   8   9
ENDBRANCH   1   8
TORSDOF 4
ENDMDL
