MODEL 1
REMARK VINA RESULT:      -8.9      0.000      0.000
REMARK  Name = 
REMARK  2 active torsions:
REMARK  status: ('A' for Active; 'I' for Inactive)
REMARK    1  A    between atoms: N_4  and  C_5
REMARK    2  A    between atoms: C_5  and  C_7
REMARK                            x       y       z     vdW  Elec       q    Type
REMARK                         _______ _______ _______ _____ _____    ______ ____
ROOT
ATOM      1  C   UNL     1       5.965   5.126  15.741  0.00  0.00    +0.000 A 
ATOM      2  C   UNL     1       5.280   6.351  15.875  0.00  0.00    +0.000 A 
ATOM      3  C   UNL     1       4.455   6.580  16.986  0.00  0.00    +0.000 A 
ATOM      4  C   UNL     1       4.302   5.587  17.961  0.00  0.00    +0.000 A 
ATOM      5  C   UNL     1       5.024   4.387  17.848  0.00  0.00    +0.000 A 
ATOM      6  C   UNL     1       5.850   4.165  16.754  0.00  0.00    +0.000 A 
ATOM      7  N   UNL     1       4.853   3.377  18.824  0.00  0.00    +0.000 N 
ATOM      8  C   UNL     1       3.804   3.512  19.762  0.00  0.00    +0.000 A 
ATOM      9  C   UNL     1       3.444   2.439  20.582  0.00  0.00    +0.000 A 
ATOM     10  C   UNL     1       2.353   2.563  21.444  0.00  0.00    +0.000 A 
ATOM     11  C   UNL     1       1.637   3.763  21.501  0.00  0.00    +0.000 A 
ATOM     12  C   UNL     1       2.010   4.849  20.698  0.00  0.00    +0.000 A 
ATOM     13  C   UNL     1       3.090   4.725  19.817  0.00  0.00    +0.000 A 
ATOM     14  O   UNL     1       3.424   5.751  18.987  0.00  0.00    +0.000 OA
ATOM     15  H   UNL     1       5.396   2.501  18.770  0.00  0.00    +0.000 HD
ENDROOT
BRANCH   1  16
ATOM     16  C   UNL     1       6.769   4.804  14.541  0.00  0.00    +0.000 C 
ATOM     17  O   UNL     1       7.682   5.541  14.199  0.00  0.00    +0.000 OA
BRANCH  16  21
ATOM     18  N   UNL     1       5.923   2.385  11.858  0.00  0.00    +0.000 N 
ATOM     19  C   UNL     1       6.520   3.528  12.452  0.00  0.00    +0.000 C 
ATOM     20  N   UNL     1       7.312   4.390  11.648  0.00  0.00    +0.000 N 
ATOM     21  N   UNL     1       6.346   3.715  13.717  0.00  0.00    +0.000 NA
ATOM     22  H   UNL     1       6.046   2.191  10.854  0.00  0.00    +0.000 HD
ATOM     23  H   UNL     1       5.346   1.746  12.423  0.00  0.00    +0.000 HD
ATOM     24  H   UNL     1       7.431   4.182  10.642  0.00  0.00    +0.000 HD
ATOM     25  H   UNL     1       7.837   5.182  12.030  0.00  0.00    +0.000 HD
ENDBRANCH  16  21
ENDBRANCH   1  16
TORSDOF 2
ENDMDL
MODEL 2
REMARK VINA RESULT:      -8.3      2.811      3.981
REMARK  Name = 
REMARK  2 active torsions:
REMARK  status: ('A' for Active; 'I' for Inactive)
REMARK    1  A    between atoms: N_4  and  C_5
REMARK    2  A    between atoms: C_5  and  C_7
REMARK                            x       y       z     vdW  Elec       q    Type
REMARK                         _______ _______ _______ _____ _____    ______ ____
ROOT
ATOM      1  C   UNL     1       5.505   4.878  17.548  0.00  0.00    +0.000 A 
ATOM      2  C   UNL     1       5.166   4.292  18.785  0.00  0.00    +0.000 A 
ATOM      3  C   UNL     1       4.132   4.834  19.563  0.00  0.00    +0.000 A 
ATOM      4  C   UNL     1       3.440   5.966  19.116  0.00  0.00    +0.000 A 
ATOM      5  C   UNL     1       3.748   6.517  17.861  0.00  0.00    +0.000 A 
ATOM      6  C   UNL     1       4.764   5.973  17.085  0.00  0.00    +0.000 A 
ATOM      7  N   UNL     1       3.061   7.673  17.420  0.00  0.00    +0.000 N 
ATOM      8  C   UNL     1       2.242   8.367  18.340  0.00  0.00    +0.000 A 
ATOM      9  C   UNL     1       1.742   9.634  18.029  0.00  0.00    +0.000 A 
ATOM     10  C   UNL     1       1.004  10.340  18.980  0.00  0.00    +0.000 A 
ATOM     11  C   UNL     1       0.749   9.771  20.233  0.00  0.00    +0.000 A 
ATOM     12  C   UNL     1       1.228   8.490  20.540  0.00  0.00    +0.000 A 
ATOM     13  C   UNL     1       1.986   7.786  19.598  0.00  0.00    +0.000 A 
ATOM     14  O   UNL     1       2.511   6.568  19.905  0.00  0.00    +0.000 OA
ATOM     15  H   UNL     1       3.257   8.073  16.489  0.00  0.00    +0.000 HD
ENDROOT
BRANCH   1  16
ATOM     16  C   UNL     1       6.648   4.398  16.741  0.00  0.00    +0.000 C 
ATOM     17  O   UNL     1       7.793   4.615  17.109  0.00  0.00    +0.000 OA
BRANCH  16  21
ATOM     18  N   UNL     1       6.236   3.527  13.158  0.00  0.00    +0.000 N 
ATOM     19  C   UNL     1       6.705   4.252  14.286  0.00  0.00    +0.000 C 
ATOM     20  N   UNL     1       7.539   5.383  14.082  0.00  0.00    +0.000 N 
ATOM     21  N   UNL     1       6.377   3.826  15.459  0.00  0.00    +0.000 NA
ATOM     22  H   UNL     1       6.483   3.826  12.204  0.00  0.00    +0.000 HD
ATOM     23  H   UNL     1       5.631   2.704  13.283  0.00  0.00    +0.000 HD
ATOM     24  H   UNL     1       7.783   5.670  13.119  0.00  0.00    +0.000 HD
ATOM     25  H   UNL     1       7.978   5.898  14.852  0.00  0.00    +0.000 HD
ENDBRANCH  16  21
ENDBRANCH   1  16
TORSDOF 2
ENDMDL
MODEL 3
REMARK VINA RESULT:      -8.1      4.293      6.171
REMARK  Name = 
REMARK  2 active torsions:
REMARK  status: ('A' for Active; 'I' for Inactive)
REMARK    1  A    between atoms: N_4  and  C_5
REMARK    2  A    between atoms: C_5  and  C_7
REMARK                            x       y       z     vdW  Elec       q    Type
REMARK                         _______ _______ _______ _____ _____    ______ ____
ROOT
ATOM      1  C   UNL     1       2.812   6.557  18.409  0.00  0.00    +0.000 A 
ATOM      2  C   UNL     1       2.666   7.603  17.475  0.00  0.00    +0.000 A 
ATOM      3  C   UNL     1       2.101   8.825  17.867  0.00  0.00    +0.000 A 
ATOM      4  C   UNL     1       1.671   9.006  19.187  0.00  0.00    +0.000 A 
ATOM      5  C   UNL     1       1.863   7.979  20.126  0.00  0.00    +0.000 A 
ATOM      6  C   UNL     1       2.433   6.772  19.741  0.00  0.00    +0.000 A 
ATOM      7  N   UNL     1       1.409   8.156  21.455  0.00  0.00    +0.000 N 
ATOM      8  C   UNL     1       0.586   9.267  21.747  0.00  0.00    +0.000 A 
ATOM      9  C   UNL     1      -0.080   9.353  22.973  0.00  0.00    +0.000 A 
ATOM     10  C   UNL     1      -0.954  10.415  23.213  0.00  0.00    +0.000 A 
ATOM     11  C   UNL     1      -1.145  11.399  22.237  0.00  0.00    +0.000 A 
ATOM     12  C   UNL     1      -0.461  11.329  21.017  0.00  0.00    +0.000 A 
ATOM     13  C   UNL     1       0.401  10.257  20.762  0.00  0.00    +0.000 A 
ATOM     14  O   UNL     1       1.024  10.143  19.557  0.00  0.00    +0.000 OA
ATOM     15  H   UNL     1       1.567   7.422  22.162  0.00  0.00    +0.000 HD
ENDROOT
BRANCH   1  16
ATOM     16  C   UNL     1       3.314   5.221  18.018  0.00  0.00    +0.000 C 
ATOM     17  O   UNL     1       2.549   4.269  17.966  0.00  0.00    +0.000 OA
BRANCH  16  21
ATOM     18  N   UNL     1       6.906   4.303  18.167  0.00  0.00    +0.000 N 
ATOM     19  C   UNL     1       5.516   4.210  18.444  0.00  0.00    +0.000 C 
ATOM     20  N   UNL     1       5.052   3.184  19.308  0.00  0.00    +0.000 N 
ATOM     21  N   UNL     1       4.725   5.048  17.864  0.00  0.00    +0.000 NA
ATOM     22  H   UNL     1       7.572   3.647  18.599  0.00  0.00    +0.000 HD
ATOM     23  H   UNL     1       7.264   5.039  17.542  0.00  0.00    +0.000 HD
ATOM     24  H   UNL     1       5.730   2.529  19.733  0.00  0.00    +0.000 HD
ATOM     25  H   UNL     1       4.057   3.010  19.483  0.00  0.00    +0.000 HD
ENDBRANCH  16  21
ENDBRANCH   1  16
TORSDOF 2
ENDMDL
MODEL 4
REMARK VINA RESULT:      -8.1      1.237      1.298
REMARK  Name = 
REMARK  2 active torsions:
REMARK  status: ('A' for Active; 'I' for Inactive)
REMARK    1  A    between atoms: N_4  and  C_5
REMARK    2  A    between atoms: C_5  and  C_7
REMARK                            x       y       z     vdW  Elec       q    Type
REMARK                         _______ _______ _______ _____ _____    ______ ____
ROOT
ATOM      1  C   UNL     1       6.072   4.898  14.939  0.00  0.00    +0.000 A 
ATOM      2  C   UNL     1       5.663   6.195  15.310  0.00  0.00    +0.000 A 
ATOM      3  C   UNL     1       4.808   6.379  16.407  0.00  0.00    +0.000 A 
ATOM      4  C   UNL     1       4.351   5.271  17.132  0.00  0.00    +0.000 A 
ATOM      5  C   UNL     1       4.800   3.985  16.789  0.00  0.00    +0.000 A 
ATOM      6  C   UNL     1       5.656   3.804  15.709  0.00  0.00    +0.000 A 
ATOM      7  N   UNL     1       4.322   2.865  17.510  0.00  0.00    +0.000 N 
ATOM      8  C   UNL     1       3.246   3.046  18.407  0.00  0.00    +0.000 A 
ATOM      9  C   UNL     1       2.584   1.943  18.954  0.00  0.00    +0.000 A 
ATOM     10  C   UNL     1       1.472   2.140  19.774  0.00  0.00    +0.000 A 
ATOM     11  C   UNL     1       1.034   3.437  20.063  0.00  0.00    +0.000 A 
ATOM     12  C   UNL     1       1.710   4.546  19.536  0.00  0.00    +0.000 A 
ATOM     13  C   UNL     1       2.813   4.355  18.697  0.00  0.00    +0.000 A 
ATOM     14  O   UNL     1       3.440   5.422  18.129  0.00  0.00    +0.000 OA
ATOM     15  H   UNL     1       4.663   1.917  17.287  0.00  0.00    +0.000 HD
ENDROOT
BRANCH   1  16
ATOM     16  C   UNL     1       6.893   4.650  13.733  0.00  0.00    +0.000 C 
ATOM     17  O   UNL     1       7.604   5.537  13.282  0.00  0.00    +0.000 OA
BRANCH  16  21
ATOM     18  N   UNL     1       5.780   1.744  11.713  0.00  0.00    +0.000 N 
ATOM     19  C   UNL     1       5.770   3.072  12.217  0.00  0.00    +0.000 C 
ATOM     20  N   UNL     1       4.760   3.969  11.779  0.00  0.00    +0.000 N 
ATOM     21  N   UNL     1       6.708   3.418  13.031  0.00  0.00    +0.000 NA
ATOM     22  H   UNL     1       5.057   1.429  11.051  0.00  0.00    +0.000 HD
ATOM     23  H   UNL     1       6.504   1.077  12.017  0.00  0.00    +0.000 HD
ATOM     24  H   UNL     1       4.041   3.641  11.112  0.00  0.00    +0.000 HD
ATOM     25  H   UNL     1       4.745   4.960  12.038  0.00  0.00    +0.000 HD
ENDBRANCH  16  21
ENDBRANCH   1  16
TORSDOF 2
ENDMDL
MODEL 5
REMARK VINA RESULT:      -8.0      2.165      6.993
REMARK  Name = 
REMARK  2 active torsions:
REMARK  status: ('A' for Active; 'I' for Inactive)
REMARK    1  A    between atoms: N_4  and  C_5
REMARK    2  A    between atoms: C_5  and  C_7
REMARK                            x       y       z     vdW  Elec       q    Type
REMARK                         _______ _______ _______ _____ _____    ______ ____
ROOT
ATOM      1  C   UNL     1       4.938   3.831  18.826  0.00  0.00    +0.000 A 
ATOM      2  C   UNL     1       5.896   4.830  19.096  0.00  0.00    +0.000 A 
ATOM      3  C   UNL     1       6.580   5.454  18.043  0.00  0.00    +0.000 A 
ATOM      4  C   UNL     1       6.320   5.079  16.719  0.00  0.00    +0.000 A 
ATOM      5  C   UNL     1       5.330   4.118  16.452  0.00  0.00    +0.000 A 
ATOM      6  C   UNL     1       4.644   3.508  17.495  0.00  0.00    +0.000 A 
ATOM      7  N   UNL     1       5.082   3.727  15.115  0.00  0.00    +0.000 N 
ATOM      8  C   UNL     1       5.980   4.147  14.108  0.00  0.00    +0.000 A 
ATOM      9  C   UNL     1       5.918   3.593  12.826  0.00  0.00    +0.000 A 
ATOM     10  C   UNL     1       6.864   3.960  11.868  0.00  0.00    +0.000 A 
ATOM     11  C   UNL     1       7.857   4.894  12.184  0.00  0.00    +0.000 A 
ATOM     12  C   UNL     1       7.907   5.470  13.461  0.00  0.00    +0.000 A 
ATOM     13  C   UNL     1       6.974   5.091  14.432  0.00  0.00    +0.000 A 
ATOM     14  O   UNL     1       7.049   5.596  15.695  0.00  0.00    +0.000 OA
ATOM     15  H   UNL     1       4.340   3.042  14.901  0.00  0.00    +0.000 HD
ENDROOT
BRANCH   1  16
ATOM     16  C   UNL     1       4.263   3.080  19.908  0.00  0.00    +0.000 C 
ATOM     17  O   UNL     1       4.810   2.111  20.416  0.00  0.00    +0.000 OA
BRANCH  16  21
ATOM     18  N   UNL     1       0.585   3.446  20.229  0.00  0.00    +0.000 N 
ATOM     19  C   UNL     1       1.814   2.858  19.829  0.00  0.00    +0.000 C 
ATOM     20  N   UNL     1       1.790   1.668  19.055  0.00  0.00    +0.000 N 
ATOM     21  N   UNL     1       2.909   3.416  20.221  0.00  0.00    +0.000 NA
ATOM     22  H   UNL     1      -0.313   3.027  19.948  0.00  0.00    +0.000 HD
ATOM     23  H   UNL     1       0.579   4.309  20.791  0.00  0.00    +0.000 HD
ATOM     24  H   UNL     1       0.883   1.255  18.782  0.00  0.00    +0.000 HD
ATOM     25  H   UNL     1       2.638   1.149  18.805  0.00  0.00    +0.000 HD
ENDBRANCH  16  21
ENDBRANCH   1  16
TORSDOF 2
ENDMDL
MODEL 6
REMARK VINA RESULT:      -7.9      1.471      1.753
REMARK  Name = 
REMARK  2 active torsions:
REMARK  status: ('A' for Active; 'I' for Inactive)
REMARK    1  A    between atoms: N_4  and  C_5
REMARK    2  A    between atoms: C_5  and  C_7
REMARK                            x       y       z     vdW  Elec       q    Type
REMARK                         _______ _______ _______ _____ _____    ______ ____
ROOT
ATOM      1  C   UNL     1       6.351   4.394  15.428  0.00  0.00    +0.000 A 
ATOM      2  C   UNL     1       7.133   4.815  16.523  0.00  0.00    +0.000 A 
ATOM      3  C   UNL     1       6.621   4.740  17.827  0.00  0.00    +0.000 A 
ATOM      4  C   UNL     1       5.326   4.254  18.043  0.00  0.00    +0.000 A 
ATOM      5  C   UNL     1       4.568   3.790  16.954  0.00  0.00    +0.000 A 
ATOM      6  C   UNL     1       5.080   3.854  15.664  0.00  0.00    +0.000 A 
ATOM      7  N   UNL     1       3.252   3.318  17.173  0.00  0.00    +0.000 N 
ATOM      8  C   UNL     1       2.658   3.527  18.438  0.00  0.00    +0.000 A 
ATOM      9  C   UNL     1       1.292   3.302  18.626  0.00  0.00    +0.000 A 
ATOM     10  C   UNL     1       0.706   3.592  19.859  0.00  0.00    +0.000 A 
ATOM     11  C   UNL     1       1.489   4.087  20.908  0.00  0.00    +0.000 A 
ATOM     12  C   UNL     1       2.863   4.292  20.730  0.00  0.00    +0.000 A 
ATOM     13  C   UNL     1       3.453   4.022  19.490  0.00  0.00    +0.000 A 
ATOM     14  O   UNL     1       4.775   4.275  19.286  0.00  0.00    +0.000 OA
ATOM     15  H   UNL     1       2.693   2.949  16.387  0.00  0.00    +0.000 HD
ENDROOT
BRANCH   1  16
ATOM     16  C   UNL     1       6.814   4.544  14.031  0.00  0.00    +0.000 C 
ATOM     17  O   UNL     1       7.103   5.649  13.595  0.00  0.00    +0.000 OA
BRANCH  16  21
ATOM     18  N   UNL     1       6.007   1.829  11.633  0.00  0.00    +0.000 N 
ATOM     19  C   UNL     1       5.863   3.073  12.302  0.00  0.00    +0.000 C 
ATOM     20  N   UNL     1       4.774   3.919  11.961  0.00  0.00    +0.000 N 
ATOM     21  N   UNL     1       6.756   3.401  13.174  0.00  0.00    +0.000 NA
ATOM     22  H   UNL     1       5.324   1.534  10.922  0.00  0.00    +0.000 HD
ATOM     23  H   UNL     1       6.790   1.201  11.865  0.00  0.00    +0.000 HD
ATOM     24  H   UNL     1       4.097   3.612  11.242  0.00  0.00    +0.000 HD
ATOM     25  H   UNL     1       4.660   4.862  12.344  0.00  0.00    +0.000 HD
ENDBRANCH  16  21
ENDBRANCH   1  16
TORSDOF 2
ENDMDL
MODEL 7
REMARK VINA RESULT:      -7.9      4.129      6.271
REMARK  Name = 
REMARK  2 active torsions:
REMARK  status: ('A' for Active; 'I' for Inactive)
REMARK    1  A    between atoms: N_4  and  C_5
REMARK    2  A    between atoms: C_5  and  C_7
REMARK                            x       y       z     vdW  Elec       q    Type
REMARK                         _______ _______ _______ _____ _____    ______ ____
ROOT
ATOM      1  C   UNL     1       2.615   5.898  18.633  0.00  0.00    +0.000 A 
ATOM      2  C   UNL     1       2.645   6.908  17.649  0.00  0.00    +0.000 A 
ATOM      3  C   UNL     1       2.240   8.213  17.965  0.00  0.00    +0.000 A 
ATOM      4  C   UNL     1       1.796   8.515  19.258  0.00  0.00    +0.000 A 
ATOM      5  C   UNL     1       1.814   7.518  20.248  0.00  0.00    +0.000 A 
ATOM      6  C   UNL     1       2.226   6.228  19.938  0.00  0.00    +0.000 A 
ATOM      7  N   UNL     1       1.347   7.820  21.549  0.00  0.00    +0.000 N 
ATOM      8  C   UNL     1       0.674   9.045  21.760  0.00  0.00    +0.000 A 
ATOM      9  C   UNL     1      -0.013   9.280  22.954  0.00  0.00    +0.000 A 
ATOM     10  C   UNL     1      -0.739  10.461  23.113  0.00  0.00    +0.000 A 
ATOM     11  C   UNL     1      -0.762  11.414  22.089  0.00  0.00    +0.000 A 
ATOM     12  C   UNL     1      -0.054  11.192  20.900  0.00  0.00    +0.000 A 
ATOM     13  C   UNL     1       0.660  10.001  20.726  0.00  0.00    +0.000 A 
ATOM     14  O   UNL     1       1.300   9.746  19.552  0.00  0.00    +0.000 OA
ATOM     15  H   UNL     1       1.379   7.106  22.294  0.00  0.00    +0.000 HD
ENDROOT
BRANCH   1  16
ATOM     16  C   UNL     1       2.941   4.489  18.320  0.00  0.00    +0.000 C 
ATOM     17  O   UNL     1       2.364   3.914  17.409  0.00  0.00    +0.000 OA
BRANCH  16  21
ATOM     18  N   UNL     1       5.024   2.083  20.228  0.00  0.00    +0.000 N 
ATOM     19  C   UNL     1       4.204   2.556  19.169  0.00  0.00    +0.000 C 
ATOM     20  N   UNL     1       3.880   1.678  18.102  0.00  0.00    +0.000 N 
ATOM     21  N   UNL     1       3.816   3.786  19.205  0.00  0.00    +0.000 NA
ATOM     22  H   UNL     1       5.365   1.112  20.233  0.00  0.00    +0.000 HD
ATOM     23  H   UNL     1       5.272   2.704  21.012  0.00  0.00    +0.000 HD
ATOM     24  H   UNL     1       4.232   0.706  18.117  0.00  0.00    +0.000 HD
ATOM     25  H   UNL     1       3.365   1.979  17.269  0.00  0.00    +0.000 HD
ENDBRANCH  16  21
ENDBRANCH   1  16
TORSDOF 2
ENDMDL
MODEL 8
REMARK VINA RESULT:      -7.8      1.162      1.528
REMARK  Name = 
REMARK  2 active torsions:
REMARK  status: ('A' for Active; 'I' for Inactive)
REMARK    1  A    between atoms: N_4  and  C_5
REMARK    2  A    between atoms: C_5  and  C_7
REMARK                            x       y       z     vdW  Elec       q    Type
REMARK                         _______ _______ _______ _____ _____    ______ ____
ROOT
ATOM      1  C   UNL     1       5.684   4.983  15.703  0.00  0.00    +0.000 A 
ATOM      2  C   UNL     1       5.120   6.254  15.939  0.00  0.00    +0.000 A 
ATOM      3  C   UNL     1       4.398   6.498  17.116  0.00  0.00    +0.000 A 
ATOM      4  C   UNL     1       4.227   5.476  18.057  0.00  0.00    +0.000 A 
ATOM      5  C   UNL     1       4.832   4.226  17.842  0.00  0.00    +0.000 A 
ATOM      6  C   UNL     1       5.557   3.988  16.681  0.00  0.00    +0.000 A 
ATOM      7  N   UNL     1       4.642   3.189  18.785  0.00  0.00    +0.000 N 
ATOM      8  C   UNL     1       3.677   3.366  19.802  0.00  0.00    +0.000 A 
ATOM      9  C   UNL     1       3.282   2.289  20.601  0.00  0.00    +0.000 A 
ATOM     10  C   UNL     1       2.270   2.463  21.545  0.00  0.00    +0.000 A 
ATOM     11  C   UNL     1       1.666   3.715  21.704  0.00  0.00    +0.000 A 
ATOM     12  C   UNL     1       2.076   4.803  20.922  0.00  0.00    +0.000 A 
ATOM     13  C   UNL     1       3.077   4.631  19.960  0.00  0.00    +0.000 A 
ATOM     14  O   UNL     1       3.441   5.663  19.151  0.00  0.00    +0.000 OA
ATOM     15  H   UNL     1       5.102   2.274  18.654  0.00  0.00    +0.000 HD
ENDROOT
BRANCH   1  16
ATOM     16  C   UNL     1       6.371   4.653  14.435  0.00  0.00    +0.000 C 
ATOM     17  O   UNL     1       6.001   3.698  13.767  0.00  0.00    +0.000 OA
BRANCH  16  21
ATOM     18  N   UNL     1       9.382   6.211  12.926  0.00  0.00    +0.000 N 
ATOM     19  C   UNL     1       8.156   5.495  12.965  0.00  0.00    +0.000 C 
ATOM     20  N   UNL     1       7.618   4.980  11.756  0.00  0.00    +0.000 N 
ATOM     21  N   UNL     1       7.561   5.374  14.104  0.00  0.00    +0.000 NA
ATOM     22  H   UNL     1       9.884   6.341  12.036  0.00  0.00    +0.000 HD
ATOM     23  H   UNL     1       9.789   6.593  13.791  0.00  0.00    +0.000 HD
ATOM     24  H   UNL     1       8.130   5.120  10.869  0.00  0.00    +0.000 HD
ATOM     25  H   UNL     1       6.699   4.528  11.703  0.00  0.00    +0.000 HD
ENDBRANCH  16  21
ENDBRANCH   1  16
TORSDOF 2
ENDMDL
MODEL 9
REMARK VINA RESULT:      -7.8      4.306      6.164
REMARK  Name = 
REMARK  2 active torsions:
REMARK  status: ('A' for Active; 'I' for Inactive)
REMARK    1  A    between atoms: N_4  and  C_5
REMARK    2  A    between atoms: C_5  and  C_7
REMARK                            x       y       z     vdW  Elec       q    Type
REMARK                         _______ _______ _______ _____ _____    ______ ____
ROOT
ATOM      1  C   UNL     1       2.789   6.418  18.343  0.00  0.00    +0.000 A 
ATOM      2  C   UNL     1       2.676   7.476  17.418  0.00  0.00    +0.000 A 
ATOM      3  C   UNL     1       2.147   8.711  17.820  0.00  0.00    +0.000 A 
ATOM      4  C   UNL     1       1.720   8.894  19.141  0.00  0.00    +0.000 A 
ATOM      5  C   UNL     1       1.879   7.853  20.071  0.00  0.00    +0.000 A 
ATOM      6  C   UNL     1       2.414   6.633  19.676  0.00  0.00    +0.000 A 
ATOM      7  N   UNL     1       1.429   8.032  21.400  0.00  0.00    +0.000 N 
ATOM      8  C   UNL     1       0.639   9.165  21.701  0.00  0.00    +0.000 A 
ATOM      9  C   UNL     1      -0.027   9.260  22.927  0.00  0.00    +0.000 A 
ATOM     10  C   UNL     1      -0.868  10.345  23.175  0.00  0.00    +0.000 A 
ATOM     11  C   UNL     1      -1.028  11.344  22.207  0.00  0.00    +0.000 A 
ATOM     12  C   UNL     1      -0.344  11.264  20.987  0.00  0.00    +0.000 A 
ATOM     13  C   UNL     1       0.486  10.168  20.725  0.00  0.00    +0.000 A 
ATOM     14  O   UNL     1       1.107  10.046  19.519  0.00  0.00    +0.000 OA
ATOM     15  H   UNL     1       1.563   7.287  22.102  0.00  0.00    +0.000 HD
ENDROOT
BRANCH   1  16
ATOM     16  C   UNL     1       3.251   5.071  17.941  0.00  0.00    +0.000 C 
ATOM     17  O   UNL     1       4.262   4.946  17.265  0.00  0.00    +0.000 OA
BRANCH  16  21
ATOM     18  N   UNL     1       1.635   1.777  18.497  0.00  0.00    +0.000 N 
ATOM     19  C   UNL     1       2.693   2.697  18.268  0.00  0.00    +0.000 C 
ATOM     20  N   UNL     1       4.019   2.206  18.139  0.00  0.00    +0.000 N 
ATOM     21  N   UNL     1       2.404   3.954  18.223  0.00  0.00    +0.000 NA
ATOM     22  H   UNL     1       1.823   0.766  18.552  0.00  0.00    +0.000 HD
ATOM     23  H   UNL     1       0.666   2.112  18.595  0.00  0.00    +0.000 HD
ATOM     24  H   UNL     1       4.194   1.189  18.200  0.00  0.00    +0.000 HD
ATOM     25  H   UNL     1       4.835   2.821  18.057  0.00  0.00    +0.000 HD
ENDBRANCH  16  21
ENDBRANCH   1  16
TORSDOF 2
ENDMDL
