MODEL 1
REMARK VINA RESULT:      -8.1      0.000      0.000
REMARK  Name = 
REMARK  11 active torsions:
REMARK  status: ('A' for Active; 'I' for Inactive)
REMARK    1  A    between atoms: C_1  and  C_2
REMARK    2  A    between atoms: C_2  and  C_3
REMARK    3  A    between atoms: C_2  and  C_4
REMARK    4  A    between atoms: C_2  and  C_5
REMARK    5  A    between atoms: C_6  and  C_7
REMARK    6  A    between atoms: C_13  and  C_14
REMARK    7  A    between atoms: C_14  and  O_15
REMARK    8  A    between atoms: C_14  and  C_16
REMARK    9  A    between atoms: C_16  and  C_17
REMARK   10  A    between atoms: C_17  and  C_18
REMARK   11  A    between atoms: C_21  and  O_22
REMARK                            x       y       z     vdW  Elec       q    Type
REMARK                         _______ _______ _______ _____ _____    ______ ____
ROOT
ATOM      1  C   UNL     1       3.480   4.376  19.529  0.00  0.00    +0.000 C 
ATOM      2  C   UNL     1       3.950   3.503  18.623  0.00  0.00    +0.000 C 
ATOM      3  N   UNL     1       5.178   3.933  18.131  0.00  0.00    +0.000 N 
ATOM      4  C   UNL     1       5.200   4.541  16.902  0.00  0.00    +0.000 C 
ATOM      5  O   UNL     1       4.869   4.180  15.798  0.00  0.00    +0.000 OA
ATOM      6  C   UNL     1       5.563   5.901  17.510  0.00  0.00    +0.000 C 
ATOM      7  C   UNL     1       5.450   5.172  18.870  0.00  0.00    +0.000 C 
ATOM      8  O   UNL     1       4.326   5.495  19.729  0.00  0.00    +0.000 OA
ENDROOT
BRANCH   1  10
ATOM      9  C   UNL     1       0.934   3.831  19.585  0.00  0.00    +0.000 C 
ATOM     10  C   UNL     1       2.151   4.446  20.296  0.00  0.00    +0.000 C 
ATOM     11  C   UNL     1       1.882   5.929  20.615  0.00  0.00    +0.000 C 
ATOM     12  C   UNL     1       2.276   3.682  21.642  0.00  0.00    +0.000 C 
ENDBRANCH   1  10
BRANCH   2  13
ATOM     13  C   UNL     1       3.231   2.297  17.984  0.00  0.00    +0.000 C 
ATOM     14  O   UNL     1       2.348   2.527  17.127  0.00  0.00    +0.000 OA
ATOM     15  O   UNL     1       3.630   1.159  18.413  0.00  0.00    +0.000 OA
ENDBRANCH   2  13
BRANCH   6  16
ATOM     16  C   UNL     1       6.916   6.476  17.130  0.00  0.00    +0.000 C 
BRANCH  16  17
ATOM     17  O   UNL     1       7.929   5.673  17.747  0.00  0.00    +0.000 OA
ATOM     18  H   UNL     1       8.095   4.903  17.176  0.00  0.00    +0.000 HD
ENDBRANCH  16  17
BRANCH  16  19
ATOM     19  C   UNL     1       7.054   7.932  17.598  0.00  0.00    +0.000 C 
BRANCH  19  20
ATOM     20  C   UNL     1       8.337   8.177  18.405  0.00  0.00    +0.000 C 
BRANCH  20  21
ATOM     21  C   UNL     1       8.691   9.644  18.529  0.00  0.00    +0.000 A 
ATOM     22  C   UNL     1       8.206  10.571  17.593  0.00  0.00    +0.000 A 
ATOM     23  C   UNL     1       8.520  11.929  17.703  0.00  0.00    +0.000 A 
ATOM     24  C   UNL     1       9.320  12.364  18.752  0.00  0.00    +0.000 A 
ATOM     25  C   UNL     1       9.797  11.468  19.699  0.00  0.00    +0.000 A 
ATOM     26  C   UNL     1       9.479  10.111  19.592  0.00  0.00    +0.000 A 
BRANCH  24  27
ATOM     27  O   UNL     1       9.661  13.679  18.888  0.00  0.00    +0.000 OA
ATOM     28  H   UNL     1       9.875  13.846  19.822  0.00  0.00    +0.000 HD
ENDBRANCH  24  27
ENDBRANCH  20  21
ENDBRANCH  19  20
ENDBRANCH  16  19
ENDBRANCH   6  16
TORSDOF 8
ENDMDL
MODEL 2
REMARK VINA RESULT:      -8.0      4.737      7.654
REMARK  Name = 
REMARK  11 active torsions:
REMARK  status: ('A' for Active; 'I' for Inactive)
REMARK    1  A    between atoms: C_1  and  C_2
REMARK    2  A    between atoms: C_2  and  C_3
REMARK    3  A    between atoms: C_2  and  C_4
REMARK    4  A    between atoms: C_2  and  C_5
REMARK    5  A    between atoms: C_6  and  C_7
REMARK    6  A    between atoms: C_13  and  C_14
REMARK    7  A    between atoms: C_14  and  O_15
REMARK    8  A    between atoms: C_14  and  C_16
REMARK    9  A    between atoms: C_16  and  C_17
REMARK   10  A    between atoms: C_17  and  C_18
REMARK   11  A    between atoms: C_21  and  O_22
REMARK                            x       y       z     vdW  Elec       q    Type
REMARK                         _______ _______ _______ _____ _____    ______ ____
ROOT
ATOM      1  C   UNL     1       5.422   6.074  17.748  0.00  0.00    +0.000 C 
ATOM      2  C   UNL     1       4.358   5.275  17.939  0.00  0.00    +0.000 C 
ATOM      3  N   UNL     1       3.182   5.965  17.665  0.00  0.00    +0.000 N 
ATOM      4  C   UNL     1       2.455   6.445  18.725  0.00  0.00    +0.000 C 
ATOM      5  O   UNL     1       1.936   5.911  19.676  0.00  0.00    +0.000 OA
ATOM      6  C   UNL     1       2.773   7.901  18.367  0.00  0.00    +0.000 C 
ATOM      7  C   UNL     1       3.635   7.294  17.234  0.00  0.00    +0.000 C 
ATOM      8  O   UNL     1       5.078   7.388  17.346  0.00  0.00    +0.000 OA
ENDROOT
BRANCH   1  10
ATOM      9  C   UNL     1       7.333   5.616  19.456  0.00  0.00    +0.000 C 
ATOM     10  C   UNL     1       6.922   5.862  17.995  0.00  0.00    +0.000 C 
ATOM     11  C   UNL     1       7.658   7.099  17.442  0.00  0.00    +0.000 C 
ATOM     12  C   UNL     1       7.418   4.620  17.208  0.00  0.00    +0.000 C 
ENDBRANCH   1  10
BRANCH   2  13
ATOM     13  C   UNL     1       4.310   3.871  18.575  0.00  0.00    +0.000 C 
ATOM     14  O   UNL     1       4.146   2.889  17.816  0.00  0.00    +0.000 OA
ATOM     15  O   UNL     1       4.449   3.864  19.847  0.00  0.00    +0.000 OA
ENDBRANCH   2  13
BRANCH   6  16
ATOM     16  C   UNL     1       1.595   8.773  17.966  0.00  0.00    +0.000 C 
BRANCH  16  17
ATOM     17  O   UNL     1       2.108   9.924  17.285  0.00  0.00    +0.000 OA
ATOM     18  H   UNL     1       3.022  10.071  17.584  0.00  0.00    +0.000 HD
ENDBRANCH  16  17
BRANCH  16  19
ATOM     19  C   UNL     1       0.787   9.217  19.194  0.00  0.00    +0.000 C 
BRANCH  19  20
ATOM     20  C   UNL     1       0.265  10.655  19.073  0.00  0.00    +0.000 C 
BRANCH  20  21
ATOM     21  C   UNL     1      -1.132  10.735  18.493  0.00  0.00    +0.000 A 
ATOM     22  C   UNL     1      -2.082  11.603  19.052  0.00  0.00    +0.000 A 
ATOM     23  C   UNL     1      -3.372  11.691  18.519  0.00  0.00    +0.000 A 
ATOM     24  C   UNL     1      -3.714  10.909  17.423  0.00  0.00    +0.000 A 
ATOM     25  C   UNL     1      -2.785  10.056  16.842  0.00  0.00    +0.000 A 
ATOM     26  C   UNL     1      -1.495   9.972  17.372  0.00  0.00    +0.000 A 
BRANCH  24  27
ATOM     27  O   UNL     1      -4.966  10.954  16.881  0.00  0.00    +0.000 OA
ATOM     28  H   UNL     1      -5.354  10.064  16.930  0.00  0.00    +0.000 HD
ENDBRANCH  24  27
ENDBRANCH  20  21
ENDBRANCH  19  20
ENDBRANCH  16  19
ENDBRANCH   6  16
TORSDOF 8
ENDMDL
MODEL 3
REMARK VINA RESULT:      -8.0      4.778      7.414
REMARK  Name = 
REMARK  11 active torsions:
REMARK  status: ('A' for Active; 'I' for Inactive)
REMARK    1  A    between atoms: C_1  and  C_2
REMARK    2  A    between atoms: C_2  and  C_3
REMARK    3  A    between atoms: C_2  and  C_4
REMARK    4  A    between atoms: C_2  and  C_5
REMARK    5  A    between atoms: C_6  and  C_7
REMARK    6  A    between atoms: C_13  and  C_14
REMARK    7  A    between atoms: C_14  and  O_15
REMARK    8  A    between atoms: C_14  and  C_16
REMARK    9  A    between atoms: C_16  and  C_17
REMARK   10  A    between atoms: C_17  and  C_18
REMARK   11  A    between atoms: C_21  and  O_22
REMARK                            x       y       z     vdW  Elec       q    Type
REMARK                         _______ _______ _______ _____ _____    ______ ____
ROOT
ATOM      1  C   UNL     1       3.142   4.189  19.150  0.00  0.00    +0.000 C 
ATOM      2  C   UNL     1       4.231   4.891  18.796  0.00  0.00    +0.000 C 
ATOM      3  N   UNL     1       4.023   6.248  19.021  0.00  0.00    +0.000 N 
ATOM      4  C   UNL     1       3.708   7.037  17.944  0.00  0.00    +0.000 C 
ATOM      5  O   UNL     1       4.279   7.283  16.908  0.00  0.00    +0.000 OA
ATOM      6  C   UNL     1       2.280   7.272  18.452  0.00  0.00    +0.000 C 
ATOM      7  C   UNL     1       2.676   6.315  19.602  0.00  0.00    +0.000 C 
ATOM      8  O   UNL     1       2.079   4.993  19.629  0.00  0.00    +0.000 OA
ENDROOT
BRANCH   1  10
ATOM      9  C   UNL     1       3.889   1.715  19.472  0.00  0.00    +0.000 C 
ATOM     10  C   UNL     1       2.796   2.698  19.022  0.00  0.00    +0.000 C 
ATOM     11  C   UNL     1       2.427   2.437  17.549  0.00  0.00    +0.000 C 
ATOM     12  C   UNL     1       1.554   2.366  19.892  0.00  0.00    +0.000 C 
ENDBRANCH   1  10
BRANCH   2  13
ATOM     13  C   UNL     1       5.486   4.408  18.042  0.00  0.00    +0.000 C 
ATOM     14  O   UNL     1       5.356   4.066  16.844  0.00  0.00    +0.000 OA
ATOM     15  O   UNL     1       6.556   4.412  18.744  0.00  0.00    +0.000 OA
ENDBRANCH   2  13
BRANCH   6  16
ATOM     16  C   UNL     1       1.917   8.701  18.818  0.00  0.00    +0.000 C 
BRANCH  16  17
ATOM     17  O   UNL     1       1.507   8.717  20.190  0.00  0.00    +0.000 OA
ATOM     18  H   UNL     1       1.434   7.795  20.495  0.00  0.00    +0.000 HD
ENDBRANCH  16  17
BRANCH  16  19
ATOM     19  C   UNL     1       0.779   9.230  17.932  0.00  0.00    +0.000 C 
BRANCH  19  20
ATOM     20  C   UNL     1       0.062  10.440  18.548  0.00  0.00    +0.000 C 
BRANCH  20  21
ATOM     21  C   UNL     1      -1.355  10.613  18.041  0.00  0.00    +0.000 A 
ATOM     22  C   UNL     1      -1.787   9.925  16.897  0.00  0.00    +0.000 A 
ATOM     23  C   UNL     1      -3.096  10.070  16.427  0.00  0.00    +0.000 A 
ATOM     24  C   UNL     1      -3.977  10.905  17.102  0.00  0.00    +0.000 A 
ATOM     25  C   UNL     1      -3.577  11.582  18.246  0.00  0.00    +0.000 A 
ATOM     26  C   UNL     1      -2.271  11.433  18.719  0.00  0.00    +0.000 A 
BRANCH  24  27
ATOM     27  O   UNL     1      -5.259  11.086  16.668  0.00  0.00    +0.000 OA
ATOM     28  H   UNL     1      -5.242  11.681  15.900  0.00  0.00    +0.000 HD
ENDBRANCH  24  27
ENDBRANCH  20  21
ENDBRANCH  19  20
ENDBRANCH  16  19
ENDBRANCH   6  16
TORSDOF 8
ENDMDL
MODEL 4
REMARK VINA RESULT:      -8.0      4.727      7.375
REMARK  Name = 
REMARK  11 active torsions:
REMARK  status: ('A' for Active; 'I' for Inactive)
REMARK    1  A    between atoms: C_1  and  C_2
REMARK    2  A    between atoms: C_2  and  C_3
REMARK    3  A    between atoms: C_2  and  C_4
REMARK    4  A    between atoms: C_2  and  C_5
REMARK    5  A    between atoms: C_6  and  C_7
REMARK    6  A    between atoms: C_13  and  C_14
REMARK    7  A    between atoms: C_14  and  O_15
REMARK    8  A    between atoms: C_14  and  C_16
REMARK    9  A    between atoms: C_16  and  C_17
REMARK   10  A    between atoms: C_17  and  C_18
REMARK   11  A    between atoms: C_21  and  O_22
REMARK                            x       y       z     vdW  Elec       q    Type
REMARK                         _______ _______ _______ _____ _____    ______ ____
ROOT
ATOM      1  C   UNL     1       3.174   4.160  19.167  0.00  0.00    +0.000 C 
ATOM      2  C   UNL     1       4.231   4.852  18.708  0.00  0.00    +0.000 C 
ATOM      3  N   UNL     1       4.055   6.212  18.943  0.00  0.00    +0.000 N 
ATOM      4  C   UNL     1       3.646   6.998  17.895  0.00  0.00    +0.000 C 
ATOM      5  O   UNL     1       4.119   7.233  16.809  0.00  0.00    +0.000 OA
ATOM      6  C   UNL     1       2.275   7.247  18.533  0.00  0.00    +0.000 C 
ATOM      7  C   UNL     1       2.769   6.294  19.647  0.00  0.00    +0.000 C 
ATOM      8  O   UNL     1       2.168   4.976  19.738  0.00  0.00    +0.000 OA
ENDROOT
BRANCH   1  10
ATOM      9  C   UNL     1       2.490   2.138  17.675  0.00  0.00    +0.000 C 
ATOM     10  C   UNL     1       2.807   2.672  19.082  0.00  0.00    +0.000 C 
ATOM     11  C   UNL     1       1.603   2.442  20.016  0.00  0.00    +0.000 C 
ATOM     12  C   UNL     1       3.985   1.805  19.600  0.00  0.00    +0.000 C 
ENDBRANCH   1  10
BRANCH   2  13
ATOM     13  C   UNL     1       5.406   4.354  17.842  0.00  0.00    +0.000 C 
ATOM     14  O   UNL     1       6.536   4.277  18.376  0.00  0.00    +0.000 OA
ATOM     15  O   UNL     1       5.087   4.065  16.638  0.00  0.00    +0.000 OA
ENDBRANCH   2  13
BRANCH   6  16
ATOM     16  C   UNL     1       1.957   8.681  18.922  0.00  0.00    +0.000 C 
BRANCH  16  17
ATOM     17  O   UNL     1       1.455   8.676  20.263  0.00  0.00    +0.000 OA
ATOM     18  H   UNL     1       1.145   9.574  20.474  0.00  0.00    +0.000 HD
ENDBRANCH  16  17
BRANCH  16  19
ATOM     19  C   UNL     1       0.911   9.295  17.980  0.00  0.00    +0.000 C 
BRANCH  19  20
ATOM     20  C   UNL     1       0.143  10.457  18.624  0.00  0.00    +0.000 C 
BRANCH  20  21
ATOM     21  C   UNL     1      -1.271  10.600  18.098  0.00  0.00    +0.000 A 
ATOM     22  C   UNL     1      -2.139  11.553  18.650  0.00  0.00    +0.000 A 
ATOM     23  C   UNL     1      -3.443  11.700  18.166  0.00  0.00    +0.000 A 
ATOM     24  C   UNL     1      -3.881  10.891  17.125  0.00  0.00    +0.000 A 
ATOM     25  C   UNL     1      -3.033   9.953  16.550  0.00  0.00    +0.000 A 
ATOM     26  C   UNL     1      -1.729   9.810  17.032  0.00  0.00    +0.000 A 
BRANCH  24  27
ATOM     27  O   UNL     1      -5.149  10.991  16.632  0.00  0.00    +0.000 OA
ATOM     28  H   UNL     1      -5.192  11.768  16.049  0.00  0.00    +0.000 HD
ENDBRANCH  24  27
ENDBRANCH  20  21
ENDBRANCH  19  20
ENDBRANCH  16  19
ENDBRANCH   6  16
TORSDOF 8
ENDMDL
MODEL 5
REMARK VINA RESULT:      -7.9      4.661      7.386
REMARK  Name = 
REMARK  11 active torsions:
REMARK  status: ('A' for Active; 'I' for Inactive)
REMARK    1  A    between atoms: C_1  and  C_2
REMARK    2  A    between atoms: C_2  and  C_3
REMARK    3  A    between atoms: C_2  and  C_4
REMARK    4  A    between atoms: C_2  and  C_5
REMARK    5  A    between atoms: C_6  and  C_7
REMARK    6  A    between atoms: C_13  and  C_14
REMARK    7  A    between atoms: C_14  and  O_15
REMARK    8  A    between atoms: C_14  and  C_16
REMARK    9  A    between atoms: C_16  and  C_17
REMARK   10  A    between atoms: C_17  and  C_18
REMARK   11  A    between atoms: C_21  and  O_22
REMARK                            x       y       z     vdW  Elec       q    Type
REMARK                         _______ _______ _______ _____ _____    ______ ____
ROOT
ATOM      1  C   UNL     1       5.540   6.012  17.764  0.00  0.00    +0.000 C 
ATOM      2  C   UNL     1       4.510   5.165  17.926  0.00  0.00    +0.000 C 
ATOM      3  N   UNL     1       3.305   5.824  17.704  0.00  0.00    +0.000 N 
ATOM      4  C   UNL     1       2.577   6.219  18.797  0.00  0.00    +0.000 C 
ATOM      5  O   UNL     1       2.092   5.617  19.725  0.00  0.00    +0.000 OA
ATOM      6  C   UNL     1       2.835   7.703  18.512  0.00  0.00    +0.000 C 
ATOM      7  C   UNL     1       3.702   7.189  17.338  0.00  0.00    +0.000 C 
ATOM      8  O   UNL     1       5.142   7.332  17.436  0.00  0.00    +0.000 OA
ENDROOT
BRANCH   1  10
ATOM      9  C   UNL     1       7.504   5.669  19.439  0.00  0.00    +0.000 C 
ATOM     10  C   UNL     1       7.051   5.845  17.980  0.00  0.00    +0.000 C 
ATOM     11  C   UNL     1       7.743   7.073  17.358  0.00  0.00    +0.000 C 
ATOM     12  C   UNL     1       7.556   4.581  17.233  0.00  0.00    +0.000 C 
ENDBRANCH   1  10
BRANCH   2  13
ATOM     13  C   UNL     1       4.523   3.729  18.487  0.00  0.00    +0.000 C 
ATOM     14  O   UNL     1       4.077   2.811  17.762  0.00  0.00    +0.000 OA
ATOM     15  O   UNL     1       5.006   3.629  19.668  0.00  0.00    +0.000 OA
ENDBRANCH   2  13
BRANCH   6  16
ATOM     16  C   UNL     1       1.620   8.550  18.172  0.00  0.00    +0.000 C 
BRANCH  16  17
ATOM     17  O   UNL     1       2.053   9.635  17.344  0.00  0.00    +0.000 OA
ATOM     18  H   UNL     1       1.421  10.368  17.448  0.00  0.00    +0.000 HD
ENDBRANCH  16  17
BRANCH  16  19
ATOM     19  C   UNL     1       0.955   9.103  19.441  0.00  0.00    +0.000 C 
BRANCH  19  20
ATOM     20  C   UNL     1       0.775  10.627  19.400  0.00  0.00    +0.000 C 
BRANCH  20  21
ATOM     21  C   UNL     1      -0.656  11.050  19.137  0.00  0.00    +0.000 A 
ATOM     22  C   UNL     1      -1.396  10.442  18.112  0.00  0.00    +0.000 A 
ATOM     23  C   UNL     1      -2.721  10.819  17.866  0.00  0.00    +0.000 A 
ATOM     24  C   UNL     1      -3.308  11.806  18.647  0.00  0.00    +0.000 A 
ATOM     25  C   UNL     1      -2.600  12.409  19.679  0.00  0.00    +0.000 A 
ATOM     26  C   UNL     1      -1.278  12.029  19.927  0.00  0.00    +0.000 A 
BRANCH  24  27
ATOM     27  O   UNL     1      -4.593  12.213  18.432  0.00  0.00    +0.000 OA
ATOM     28  H   UNL     1      -4.709  12.371  17.480  0.00  0.00    +0.000 HD
ENDBRANCH  24  27
ENDBRANCH  20  21
ENDBRANCH  19  20
ENDBRANCH  16  19
ENDBRANCH   6  16
TORSDOF 8
ENDMDL
MODEL 6
REMARK VINA RESULT:      -7.9      4.649      7.406
REMARK  Name = 
REMARK  11 active torsions:
REMARK  status: ('A' for Active; 'I' for Inactive)
REMARK    1  A    between atoms: C_1  and  C_2
REMARK    2  A    between atoms: C_2  and  C_3
REMARK    3  A    between atoms: C_2  and  C_4
REMARK    4  A    between atoms: C_2  and  C_5
REMARK    5  A    between atoms: C_6  and  C_7
REMARK    6  A    between atoms: C_13  and  C_14
REMARK    7  A    between atoms: C_14  and  O_15
REMARK    8  A    between atoms: C_14  and  C_16
REMARK    9  A    between atoms: C_16  and  C_17
REMARK   10  A    between atoms: C_17  and  C_18
REMARK   11  A    between atoms: C_21  and  O_22
REMARK                            x       y       z     vdW  Elec       q    Type
REMARK                         _______ _______ _______ _____ _____    ______ ____
ROOT
ATOM      1  C   UNL     1       5.485   5.952  17.757  0.00  0.00    +0.000 C 
ATOM      2  C   UNL     1       4.447   5.117  17.928  0.00  0.00    +0.000 C 
ATOM      3  N   UNL     1       3.247   5.792  17.730  0.00  0.00    +0.000 N 
ATOM      4  C   UNL     1       2.540   6.186  18.838  0.00  0.00    +0.000 C 
ATOM      5  O   UNL     1       2.062   5.581  19.767  0.00  0.00    +0.000 OA
ATOM      6  C   UNL     1       2.812   7.669  18.563  0.00  0.00    +0.000 C 
ATOM      7  C   UNL     1       3.655   7.156  17.370  0.00  0.00    +0.000 C 
ATOM      8  O   UNL     1       5.098   7.279  17.448  0.00  0.00    +0.000 OA
ENDROOT
BRANCH   1  10
ATOM      9  C   UNL     1       7.618   4.555  17.229  0.00  0.00    +0.000 C 
ATOM     10  C   UNL     1       6.996   5.764  17.948  0.00  0.00    +0.000 C 
ATOM     11  C   UNL     1       7.259   5.668  19.464  0.00  0.00    +0.000 C 
ATOM     12  C   UNL     1       7.757   7.005  17.409  0.00  0.00    +0.000 C 
ENDBRANCH   1  10
BRANCH   2  13
ATOM     13  C   UNL     1       4.451   3.675  18.475  0.00  0.00    +0.000 C 
ATOM     14  O   UNL     1       5.028   3.463  19.566  0.00  0.00    +0.000 OA
ATOM     15  O   UNL     1       3.844   2.828  17.732  0.00  0.00    +0.000 OA
ENDBRANCH   2  13
BRANCH   6  16
ATOM     16  C   UNL     1       1.603   8.534  18.250  0.00  0.00    +0.000 C 
BRANCH  16  17
ATOM     17  O   UNL     1       2.021   9.574  17.359  0.00  0.00    +0.000 OA
ATOM     18  H   UNL     1       1.225  10.032  17.033  0.00  0.00    +0.000 HD
ENDBRANCH  16  17
BRANCH  16  19
ATOM     19  C   UNL     1       1.016   9.153  19.527  0.00  0.00    +0.000 C 
BRANCH  19  20
ATOM     20  C   UNL     1       0.827  10.672  19.417  0.00  0.00    +0.000 C 
BRANCH  20  21
ATOM     21  C   UNL     1      -0.612  11.076  19.169  0.00  0.00    +0.000 A 
ATOM     22  C   UNL     1      -1.246  11.994  20.021  0.00  0.00    +0.000 A 
ATOM     23  C   UNL     1      -2.571  12.381  19.796  0.00  0.00    +0.000 A 
ATOM     24  C   UNL     1      -3.266  11.849  18.717  0.00  0.00    +0.000 A 
ATOM     25  C   UNL     1      -2.653  10.953  17.851  0.00  0.00    +0.000 A 
ATOM     26  C   UNL     1      -1.327  10.570  18.074  0.00  0.00    +0.000 A 
BRANCH  24  27
ATOM     27  O   UNL     1      -4.564  12.189  18.470  0.00  0.00    +0.000 OA
ATOM     28  H   UNL     1      -5.110  11.387  18.535  0.00  0.00    +0.000 HD
ENDBRANCH  24  27
ENDBRANCH  20  21
ENDBRANCH  19  20
ENDBRANCH  16  19
ENDBRANCH   6  16
TORSDOF 8
ENDMDL
MODEL 7
REMARK VINA RESULT:      -7.8      3.784      6.423
REMARK  Name = 
REMARK  11 active torsions:
REMARK  status: ('A' for Active; 'I' for Inactive)
REMARK    1  A    between atoms: C_1  and  C_2
REMARK    2  A    between atoms: C_2  and  C_3
REMARK    3  A    between atoms: C_2  and  C_4
REMARK    4  A    between atoms: C_2  and  C_5
REMARK    5  A    between atoms: C_6  and  C_7
REMARK    6  A    between atoms: C_13  and  C_14
REMARK    7  A    between atoms: C_14  and  O_15
REMARK    8  A    between atoms: C_14  and  C_16
REMARK    9  A    between atoms: C_16  and  C_17
REMARK   10  A    between atoms: C_17  and  C_18
REMARK   11  A    between atoms: C_21  and  O_22
REMARK                            x       y       z     vdW  Elec       q    Type
REMARK                         _______ _______ _______ _____ _____    ______ ____
ROOT
ATOM      1  C   UNL     1       5.501   4.269  16.167  0.00  0.00    +0.000 C 
ATOM      2  C   UNL     1       6.162   4.243  17.337  0.00  0.00    +0.000 C 
ATOM      3  N   UNL     1       5.344   3.734  18.340  0.00  0.00    +0.000 N 
ATOM      4  C   UNL     1       4.754   4.624  19.201  0.00  0.00    +0.000 C 
ATOM      5  O   UNL     1       5.196   5.450  19.963  0.00  0.00    +0.000 OA
ATOM      6  C   UNL     1       3.355   4.334  18.643  0.00  0.00    +0.000 C 
ATOM      7  C   UNL     1       4.091   3.401  17.652  0.00  0.00    +0.000 C 
ATOM      8  O   UNL     1       4.167   3.803  16.260  0.00  0.00    +0.000 OA
ENDROOT
BRANCH   1  10
ATOM      9  C   UNL     1       7.383   4.791  14.444  0.00  0.00    +0.000 C 
ATOM     10  C   UNL     1       5.883   4.816  14.784  0.00  0.00    +0.000 C 
ATOM     11  C   UNL     1       5.347   6.258  14.696  0.00  0.00    +0.000 C 
ATOM     12  C   UNL     1       5.191   3.980  13.674  0.00  0.00    +0.000 C 
ENDBRANCH   1  10
BRANCH   2  13
ATOM     13  C   UNL     1       7.533   4.858  17.683  0.00  0.00    +0.000 C 
ATOM     14  O   UNL     1       8.501   4.081  17.847  0.00  0.00    +0.000 OA
ATOM     15  O   UNL     1       7.531   6.135  17.764  0.00  0.00    +0.000 OA
ENDBRANCH   2  13
BRANCH   6  16
ATOM     16  C   UNL     1       2.360   3.700  19.600  0.00  0.00    +0.000 C 
BRANCH  16  17
ATOM     17  O   UNL     1       1.683   2.648  18.904  0.00  0.00    +0.000 OA
ATOM     18  H   UNL     1       2.354   2.075  18.493  0.00  0.00    +0.000 HD
ENDBRANCH  16  17
BRANCH  16  19
ATOM     19  C   UNL     1       1.338   4.731  20.102  0.00  0.00    +0.000 C 
BRANCH  19  20
ATOM     20  C   UNL     1       1.996   5.924  20.809  0.00  0.00    +0.000 C 
BRANCH  20  21
ATOM     21  C   UNL     1       1.773   7.238  20.088  0.00  0.00    +0.000 A 
ATOM     22  C   UNL     1       1.079   8.282  20.718  0.00  0.00    +0.000 A 
ATOM     23  C   UNL     1       0.875   9.502  20.066  0.00  0.00    +0.000 A 
ATOM     24  C   UNL     1       1.368   9.681  18.779  0.00  0.00    +0.000 A 
ATOM     25  C   UNL     1       2.074   8.668  18.143  0.00  0.00    +0.000 A 
ATOM     26  C   UNL     1       2.281   7.451  18.797  0.00  0.00    +0.000 A 
BRANCH  24  27
ATOM     27  O   UNL     1       1.179  10.850  18.102  0.00  0.00    +0.000 OA
ATOM     28  H   UNL     1       1.602  11.568  18.603  0.00  0.00    +0.000 HD
ENDBRANCH  24  27
ENDBRANCH  20  21
ENDBRANCH  19  20
ENDBRANCH  16  19
ENDBRANCH   6  16
TORSDOF 8
ENDMDL
MODEL 8
REMARK VINA RESULT:      -7.8      4.435      7.270
REMARK  Name = 
REMARK  11 active torsions:
REMARK  status: ('A' for Active; 'I' for Inactive)
REMARK    1  A    between atoms: C_1  and  C_2
REMARK    2  A    between atoms: C_2  and  C_3
REMARK    3  A    between atoms: C_2  and  C_4
REMARK    4  A    between atoms: C_2  and  C_5
REMARK    5  A    between atoms: C_6  and  C_7
REMARK    6  A    between atoms: C_13  and  C_14
REMARK    7  A    between atoms: C_14  and  O_15
REMARK    8  A    between atoms: C_14  and  C_16
REMARK    9  A    between atoms: C_16  and  C_17
REMARK   10  A    between atoms: C_17  and  C_18
REMARK   11  A    between atoms: C_21  and  O_22
REMARK                            x       y       z     vdW  Elec       q    Type
REMARK                         _______ _______ _______ _____ _____    ______ ____
ROOT
ATOM      1  C   UNL     1       5.481   6.055  17.715  0.00  0.00    +0.000 C 
ATOM      2  C   UNL     1       4.456   5.212  17.924  0.00  0.00    +0.000 C 
ATOM      3  N   UNL     1       3.245   5.872  17.744  0.00  0.00    +0.000 N 
ATOM      4  C   UNL     1       2.562   6.278  18.862  0.00  0.00    +0.000 C 
ATOM      5  O   UNL     1       2.112   5.684  19.813  0.00  0.00    +0.000 OA
ATOM      6  C   UNL     1       2.811   7.759  18.556  0.00  0.00    +0.000 C 
ATOM      7  C   UNL     1       3.630   7.234  17.352  0.00  0.00    +0.000 C 
ATOM      8  O   UNL     1       5.074   7.373  17.393  0.00  0.00    +0.000 OA
ENDROOT
BRANCH   1  10
ATOM      9  C   UNL     1       7.505   5.673  19.309  0.00  0.00    +0.000 C 
ATOM     10  C   UNL     1       6.999   5.886  17.872  0.00  0.00    +0.000 C 
ATOM     11  C   UNL     1       7.667   7.131  17.258  0.00  0.00    +0.000 C 
ATOM     12  C   UNL     1       7.479   4.644  17.074  0.00  0.00    +0.000 C 
ENDBRANCH   1  10
BRANCH   2  13
ATOM     13  C   UNL     1       4.489   3.780  18.496  0.00  0.00    +0.000 C 
ATOM     14  O   UNL     1       5.015   3.608  19.619  0.00  0.00    +0.000 OA
ATOM     15  O   UNL     1       3.956   2.899  17.736  0.00  0.00    +0.000 OA
ENDBRANCH   2  13
BRANCH   6  16
ATOM     16  C   UNL     1       1.586   8.606  18.258  0.00  0.00    +0.000 C 
BRANCH  16  17
ATOM     17  O   UNL     1       2.000   9.717  17.455  0.00  0.00    +0.000 OA
ATOM     18  H   UNL     1       1.225  10.288  17.305  0.00  0.00    +0.000 HD
ENDBRANCH  16  17
BRANCH  16  19
ATOM     19  C   UNL     1       0.935   9.118  19.552  0.00  0.00    +0.000 C 
BRANCH  19  20
ATOM     20  C   UNL     1       0.622  10.620  19.504  0.00  0.00    +0.000 C 
BRANCH  20  21
ATOM     21  C   UNL     1      -0.320  11.066  20.603  0.00  0.00    +0.000 A 
ATOM     22  C   UNL     1      -0.182  10.558  21.903  0.00  0.00    +0.000 A 
ATOM     23  C   UNL     1      -1.041  10.970  22.927  0.00  0.00    +0.000 A 
ATOM     24  C   UNL     1      -2.041  11.893  22.652  0.00  0.00    +0.000 A 
ATOM     25  C   UNL     1      -2.186  12.423  21.376  0.00  0.00    +0.000 A 
ATOM     26  C   UNL     1      -1.324  12.015  20.354  0.00  0.00    +0.000 A 
BRANCH  24  27
ATOM     27  O   UNL     1      -2.909  12.311  23.619  0.00  0.00    +0.000 OA
ATOM     28  H   UNL     1      -2.571  12.019  24.482  0.00  0.00    +0.000 HD
ENDBRANCH  24  27
ENDBRANCH  20  21
ENDBRANCH  19  20
ENDBRANCH  16  19
ENDBRANCH   6  16
TORSDOF 8
ENDMDL
MODEL 9
REMARK VINA RESULT:      -7.8      4.781      7.705
REMARK  Name = 
REMARK  11 active torsions:
REMARK  status: ('A' for Active; 'I' for Inactive)
REMARK    1  A    between atoms: C_1  and  C_2
REMARK    2  A    between atoms: C_2  and  C_3
REMARK    3  A    between atoms: C_2  and  C_4
REMARK    4  A    between atoms: C_2  and  C_5
REMARK    5  A    between atoms: C_6  and  C_7
REMARK    6  A    between atoms: C_13  and  C_14
REMARK    7  A    between atoms: C_14  and  O_15
REMARK    8  A    between atoms: C_14  and  C_16
REMARK    9  A    between atoms: C_16  and  C_17
REMARK   10  A    between atoms: C_17  and  C_18
REMARK   11  A    between atoms: C_21  and  O_22
REMARK                            x       y       z     vdW  Elec       q    Type
REMARK                         _______ _______ _______ _____ _____    ______ ____
ROOT
ATOM      1  C   UNL     1       5.379   6.111  17.753  0.00  0.00    +0.000 C 
ATOM      2  C   UNL     1       4.307   5.333  17.979  0.00  0.00    +0.000 C 
ATOM      3  N   UNL     1       3.137   6.031  17.699  0.00  0.00    +0.000 N 
ATOM      4  C   UNL     1       2.430   6.549  18.754  0.00  0.00    +0.000 C 
ATOM      5  O   UNL     1       1.915   6.048  19.725  0.00  0.00    +0.000 OA
ATOM      6  C   UNL     1       2.762   7.990  18.353  0.00  0.00    +0.000 C 
ATOM      7  C   UNL     1       3.602   7.341  17.227  0.00  0.00    +0.000 C 
ATOM      8  O   UNL     1       5.048   7.418  17.320  0.00  0.00    +0.000 OA
ENDROOT
BRANCH   1  10
ATOM      9  C   UNL     1       7.794   7.082  17.679  0.00  0.00    +0.000 C 
ATOM     10  C   UNL     1       6.879   5.885  17.989  0.00  0.00    +0.000 C 
ATOM     11  C   UNL     1       7.299   4.668  17.141  0.00  0.00    +0.000 C 
ATOM     12  C   UNL     1       7.136   5.541  19.480  0.00  0.00    +0.000 C 
ENDBRANCH   1  10
BRANCH   2  13
ATOM     13  C   UNL     1       4.248   3.947  18.653  0.00  0.00    +0.000 C 
ATOM     14  O   UNL     1       4.238   3.903  19.904  0.00  0.00    +0.000 OA
ATOM     15  O   UNL     1       4.212   2.964  17.834  0.00  0.00    +0.000 OA
ENDBRANCH   2  13
BRANCH   6  16
ATOM     16  C   UNL     1       1.592   8.868  17.941  0.00  0.00    +0.000 C 
BRANCH  16  17
ATOM     17  O   UNL     1       2.117  10.041  17.310  0.00  0.00    +0.000 OA
ATOM     18  H   UNL     1       2.195  10.739  17.984  0.00  0.00    +0.000 HD
ENDBRANCH  16  17
BRANCH  16  19
ATOM     19  C   UNL     1       0.744   9.270  19.157  0.00  0.00    +0.000 C 
BRANCH  19  20
ATOM     20  C   UNL     1       0.205  10.704  19.055  0.00  0.00    +0.000 C 
BRANCH  20  21
ATOM     21  C   UNL     1      -1.194  10.774  18.478  0.00  0.00    +0.000 A 
ATOM     22  C   UNL     1      -2.158  11.611  19.059  0.00  0.00    +0.000 A 
ATOM     23  C   UNL     1      -3.450  11.690  18.530  0.00  0.00    +0.000 A 
ATOM     24  C   UNL     1      -3.780  10.931  17.415  0.00  0.00    +0.000 A 
ATOM     25  C   UNL     1      -2.837  10.108  16.812  0.00  0.00    +0.000 A 
ATOM     26  C   UNL     1      -1.545  10.034  17.339  0.00  0.00    +0.000 A 
BRANCH  24  27
ATOM     27  O   UNL     1      -5.033  10.967  16.875  0.00  0.00    +0.000 OA
ATOM     28  H   UNL     1      -4.961  10.804  15.919  0.00  0.00    +0.000 HD
ENDBRANCH  24  27
ENDBRANCH  20  21
ENDBRANCH  19  20
ENDBRANCH  16  19
ENDBRANCH   6  16
TORSDOF 8
ENDMDL
