MODEL 1
REMARK VINA RESULT:      -8.8      0.000      0.000
REMARK  Name = 
REMARK  3 active torsions:
REMARK  status: ('A' for Active; 'I' for Inactive)
REMARK    1  A    between atoms: C_3  and  C_4
REMARK    2  A    between atoms: N_10  and  C_11
REMARK    3  A    between atoms: N_21  and  C_22
REMARK                            x       y       z     vdW  Elec       q    Type
REMARK                         _______ _______ _______ _____ _____    ______ ____
ROOT
ATOM      1  C   UNL     1       0.811   9.911  20.168  0.00  0.00    +0.000 A 
ATOM      2  C   UNL     1       0.746   9.321  21.449  0.00  0.00    +0.000 A 
ATOM      3  N   UNL     1       1.315   8.115  21.498  0.00  0.00    +0.000 NA
ATOM      4  N   UNL     1       1.747   7.910  20.237  0.00  0.00    +0.000 N 
ATOM      5  N   UNL     1       2.321   6.731  19.903  0.00  0.00    +0.000 NA
ATOM      6  C   UNL     1       2.790   6.690  18.690  0.00  0.00    +0.000 A 
ATOM      7  N   UNL     1       3.388   5.548  18.213  0.00  0.00    +0.000 N 
ATOM      8  C   UNL     1       2.711   7.845  17.737  0.00  0.00    +0.000 A 
ATOM      9  C   UNL     1       2.063   8.952  18.119  0.00  0.00    +0.000 A 
ATOM     10  C   UNL     1       1.535   9.001  19.426  0.00  0.00    +0.000 A 
ATOM     11  H   UNL     1       4.001   5.625  17.413  0.00  0.00    +0.000 HD
ENDROOT
BRANCH   1  14
ATOM     12  C   UNL     1       0.034  13.470  19.682  0.00  0.00    +0.000 A 
ATOM     13  C   UNL     1       0.603  12.363  20.261  0.00  0.00    +0.000 A 
ATOM     14  C   UNL     1       0.284  11.165  19.666  0.00  0.00    +0.000 A 
ATOM     15  N   UNL     1      -0.539  11.067  18.603  0.00  0.00    +0.000 NA
ATOM     16  C   UNL     1      -1.054  12.202  18.113  0.00  0.00    +0.000 A 
ATOM     17  N   UNL     1      -1.899  12.182  17.000  0.00  0.00    +0.000 N 
ATOM     18  N   UNL     1      -0.790  13.415  18.619  0.00  0.00    +0.000 NA
ATOM     19  H   UNL     1      -2.317  13.100  16.933  0.00  0.00    +0.000 HD
BRANCH  17  20
ATOM     20  C   UNL     1      -2.682  10.997  16.675  0.00  0.00    +0.000 C 
ATOM     21  C   UNL     1      -4.140  11.079  16.320  0.00  0.00    +0.000 C 
ATOM     22  C   UNL     1      -3.128  10.770  15.256  0.00  0.00    +0.000 C 
ENDBRANCH  17  20
ENDBRANCH   1  14
BRANCH   7  23
ATOM     23  C   UNL     1       3.124   4.210  18.699  0.00  0.00    +0.000 C 
ATOM     24  C   UNL     1       1.806   3.706  18.114  0.00  0.00    +0.000 C 
ATOM     25  C   UNL     1       1.925   2.191  18.129  0.00  0.00    +0.000 C 
ATOM     26  C   UNL     1       3.414   1.887  18.023  0.00  0.00    +0.000 C 
ATOM     27  C   UNL     1       4.158   3.209  18.202  0.00  0.00    +0.000 C 
ENDBRANCH   7  23
TORSDOF 3
ENDMDL
MODEL 2
REMARK VINA RESULT:      -8.1      1.197      1.249
REMARK  Name = 
REMARK  3 active torsions:
REMARK  status: ('A' for Active; 'I' for Inactive)
REMARK    1  A    between atoms: C_3  and  C_4
REMARK    2  A    between atoms: N_10  and  C_11
REMARK    3  A    between atoms: N_21  and  C_22
REMARK                            x       y       z     vdW  Elec       q    Type
REMARK                         _______ _______ _______ _____ _____    ______ ____
ROOT
ATOM      1  C   UNL     1       0.181  10.038  20.819  0.00  0.00    +0.000 A 
ATOM      2  C   UNL     1       0.518   9.340  21.999  0.00  0.00    +0.000 A 
ATOM      3  N   UNL     1       1.331   8.304  21.779  0.00  0.00    +0.000 NA
ATOM      4  N   UNL     1       1.519   8.318  20.444  0.00  0.00    +0.000 N 
ATOM      5  N   UNL     1       2.248   7.344  19.854  0.00  0.00    +0.000 NA
ATOM      6  C   UNL     1       2.447   7.522  18.580  0.00  0.00    +0.000 A 
ATOM      7  N   UNL     1       3.161   6.602  17.851  0.00  0.00    +0.000 N 
ATOM      8  C   UNL     1       1.921   8.705  17.822  0.00  0.00    +0.000 A 
ATOM      9  C   UNL     1       1.146   9.587  18.463  0.00  0.00    +0.000 A 
ATOM     10  C   UNL     1       0.910   9.395  19.840  0.00  0.00    +0.000 A 
ATOM     11  H   UNL     1       3.560   6.892  16.969  0.00  0.00    +0.000 HD
ENDROOT
BRANCH   1  14
ATOM     12  C   UNL     1      -1.670  13.192  21.179  0.00  0.00    +0.000 A 
ATOM     13  C   UNL     1      -0.802  12.185  21.519  0.00  0.00    +0.000 A 
ATOM     14  C   UNL     1      -0.698  11.169  20.596  0.00  0.00    +0.000 A 
ATOM     15  N   UNL     1      -1.403  11.142  19.448  0.00  0.00    +0.000 NA
ATOM     16  C   UNL     1      -2.233  12.166  19.208  0.00  0.00    +0.000 A 
ATOM     17  N   UNL     1      -2.982  12.218  18.029  0.00  0.00    +0.000 N 
ATOM     18  N   UNL     1      -2.390  13.204  20.042  0.00  0.00    +0.000 NA
ATOM     19  H   UNL     1      -3.668  12.950  18.150  0.00  0.00    +0.000 HD
BRANCH  17  20
ATOM     20  C   UNL     1      -3.332  10.999  17.310  0.00  0.00    +0.000 C 
ATOM     21  C   UNL     1      -4.120  11.029  16.030  0.00  0.00    +0.000 C 
ATOM     22  C   UNL     1      -2.657  10.693  16.000  0.00  0.00    +0.000 C 
ENDBRANCH  17  20
ENDBRANCH   1  14
BRANCH   7  23
ATOM     23  C   UNL     1       3.301   5.202  18.194  0.00  0.00    +0.000 C 
ATOM     24  C   UNL     1       2.050   4.443  17.757  0.00  0.00    +0.000 C 
ATOM     25  C   UNL     1       2.511   3.009  17.557  0.00  0.00    +0.000 C 
ATOM     26  C   UNL     1       3.986   3.092  17.187  0.00  0.00    +0.000 C 
ATOM     27  C   UNL     1       4.429   4.535  17.420  0.00  0.00    +0.000 C 
ENDBRANCH   7  23
TORSDOF 3
ENDMDL
MODEL 3
REMARK VINA RESULT:      -8.0      0.873      1.197
REMARK  Name = 
REMARK  3 active torsions:
REMARK  status: ('A' for Active; 'I' for Inactive)
REMARK    1  A    between atoms: C_3  and  C_4
REMARK    2  A    between atoms: N_10  and  C_11
REMARK    3  A    between atoms: N_21  and  C_22
REMARK                            x       y       z     vdW  Elec       q    Type
REMARK                         _______ _______ _______ _____ _____    ______ ____
ROOT
ATOM      1  C   UNL     1       0.836   9.896  20.133  0.00  0.00    +0.000 A 
ATOM      2  C   UNL     1       0.702   9.381  21.440  0.00  0.00    +0.000 A 
ATOM      3  N   UNL     1       1.188   8.144  21.567  0.00  0.00    +0.000 NA
ATOM      4  N   UNL     1       1.634   7.844  20.330  0.00  0.00    +0.000 N 
ATOM      5  N   UNL     1       2.134   6.614  20.072  0.00  0.00    +0.000 NA
ATOM      6  C   UNL     1       2.627   6.477  18.875  0.00  0.00    +0.000 A 
ATOM      7  N   UNL     1       3.157   5.275  18.474  0.00  0.00    +0.000 N 
ATOM      8  C   UNL     1       2.648   7.583  17.863  0.00  0.00    +0.000 A 
ATOM      9  C   UNL     1       2.067   8.748  18.170  0.00  0.00    +0.000 A 
ATOM     10  C   UNL     1       1.514   8.902  19.458  0.00  0.00    +0.000 A 
ATOM     11  H   UNL     1       3.793   5.268  17.688  0.00  0.00    +0.000 HD
ENDROOT
BRANCH   1  14
ATOM     12  C   UNL     1       0.432  13.462  19.345  0.00  0.00    +0.000 A 
ATOM     13  C   UNL     1       0.929  12.352  19.981  0.00  0.00    +0.000 A 
ATOM     14  C   UNL     1       0.406  11.153  19.553  0.00  0.00    +0.000 A 
ATOM     15  N   UNL     1      -0.537  11.061  18.595  0.00  0.00    +0.000 NA
ATOM     16  C   UNL     1      -0.967  12.201  18.038  0.00  0.00    +0.000 A 
ATOM     17  N   UNL     1      -1.928  12.184  17.024  0.00  0.00    +0.000 N 
ATOM     18  N   UNL     1      -0.507  13.413  18.382  0.00  0.00    +0.000 NA
ATOM     19  H   UNL     1      -2.241  13.137  16.901  0.00  0.00    +0.000 HD
BRANCH  17  20
ATOM     20  C   UNL     1      -2.876  11.082  16.910  0.00  0.00    +0.000 C 
ATOM     21  C   UNL     1      -3.943  11.057  15.851  0.00  0.00    +0.000 C 
ATOM     22  C   UNL     1      -2.767  10.130  15.749  0.00  0.00    +0.000 C 
ENDBRANCH  17  20
ENDBRANCH   1  14
BRANCH   7  23
ATOM     23  C   UNL     1       2.793   3.984  19.021  0.00  0.00    +0.000 C 
ATOM     24  C   UNL     1       2.642   4.098  20.537  0.00  0.00    +0.000 C 
ATOM     25  C   UNL     1       1.692   2.977  20.921  0.00  0.00    +0.000 C 
ATOM     26  C   UNL     1       0.814   2.736  19.700  0.00  0.00    +0.000 C 
ATOM     27  C   UNL     1       1.420   3.530  18.545  0.00  0.00    +0.000 C 
ENDBRANCH   7  23
TORSDOF 3
ENDMDL
MODEL 4
REMARK VINA RESULT:      -8.0      1.676      3.238
REMARK  Name = 
REMARK  3 active torsions:
REMARK  status: ('A' for Active; 'I' for Inactive)
REMARK    1  A    between atoms: C_3  and  C_4
REMARK    2  A    between atoms: N_10  and  C_11
REMARK    3  A    between atoms: N_21  and  C_22
REMARK                            x       y       z     vdW  Elec       q    Type
REMARK                         _______ _______ _______ _____ _____    ______ ____
ROOT
ATOM      1  C   UNL     1       0.835   9.964  19.926  0.00  0.00    +0.000 A 
ATOM      2  C   UNL     1       0.711   9.409  21.218  0.00  0.00    +0.000 A 
ATOM      3  N   UNL     1       1.265   8.198  21.321  0.00  0.00    +0.000 NA
ATOM      4  N   UNL     1       1.745   7.955  20.085  0.00  0.00    +0.000 N 
ATOM      5  N   UNL     1       2.317   6.763  19.805  0.00  0.00    +0.000 NA
ATOM      6  C   UNL     1       2.835   6.684  18.613  0.00  0.00    +0.000 A 
ATOM      7  N   UNL     1       3.438   5.525  18.190  0.00  0.00    +0.000 N 
ATOM      8  C   UNL     1       2.808   7.816  17.628  0.00  0.00    +0.000 A 
ATOM      9  C   UNL     1       2.158   8.938  17.956  0.00  0.00    +0.000 A 
ATOM     10  C   UNL     1       1.579   9.027  19.238  0.00  0.00    +0.000 A 
ATOM     11  H   UNL     1       4.084   5.574  17.414  0.00  0.00    +0.000 HD
ENDROOT
BRANCH   1  14
ATOM     12  C   UNL     1      -1.295  12.579  18.467  0.00  0.00    +0.000 A 
ATOM     13  C   UNL     1      -0.967  11.347  18.974  0.00  0.00    +0.000 A 
ATOM     14  C   UNL     1       0.344  11.210  19.371  0.00  0.00    +0.000 A 
ATOM     15  N   UNL     1       1.253  12.198  19.260  0.00  0.00    +0.000 NA
ATOM     16  C   UNL     1       0.842  13.363  18.744  0.00  0.00    +0.000 A 
ATOM     17  N   UNL     1       1.723  14.440  18.617  0.00  0.00    +0.000 N 
ATOM     18  N   UNL     1      -0.417  13.592  18.342  0.00  0.00    +0.000 NA
ATOM     19  H   UNL     1       1.263  15.127  18.033  0.00  0.00    +0.000 HD
BRANCH  17  20
ATOM     20  C   UNL     1       3.159  14.222  18.497  0.00  0.00    +0.000 C 
ATOM     21  C   UNL     1       4.051  15.186  17.766  0.00  0.00    +0.000 C 
ATOM     22  C   UNL     1       4.107  15.106  19.263  0.00  0.00    +0.000 C 
ENDBRANCH  17  20
ENDBRANCH   1  14
BRANCH   7  23
ATOM     23  C   UNL     1       3.139   4.202  18.699  0.00  0.00    +0.000 C 
ATOM     24  C   UNL     1       1.834   3.703  18.084  0.00  0.00    +0.000 C 
ATOM     25  C   UNL     1       1.929   2.187  18.139  0.00  0.00    +0.000 C 
ATOM     26  C   UNL     1       3.416   1.860  18.088  0.00  0.00    +0.000 C 
ATOM     27  C   UNL     1       4.174   3.175  18.260  0.00  0.00    +0.000 C 
ENDBRANCH   7  23
TORSDOF 3
ENDMDL
MODEL 5
REMARK VINA RESULT:      -7.9      2.436      8.548
REMARK  Name = 
REMARK  3 active torsions:
REMARK  status: ('A' for Active; 'I' for Inactive)
REMARK    1  A    between atoms: C_3  and  C_4
REMARK    2  A    between atoms: N_10  and  C_11
REMARK    3  A    between atoms: N_21  and  C_22
REMARK                            x       y       z     vdW  Elec       q    Type
REMARK                         _______ _______ _______ _____ _____    ______ ____
ROOT
ATOM      1  C   UNL     1       1.911   6.742  20.242  0.00  0.00    +0.000 A 
ATOM      2  C   UNL     1       1.191   7.145  21.388  0.00  0.00    +0.000 A 
ATOM      3  N   UNL     1       0.771   8.411  21.322  0.00  0.00    +0.000 NA
ATOM      4  N   UNL     1       1.228   8.842  20.129  0.00  0.00    +0.000 N 
ATOM      5  N   UNL     1       1.042  10.129  19.759  0.00  0.00    +0.000 NA
ATOM      6  C   UNL     1       1.433  10.400  18.547  0.00  0.00    +0.000 A 
ATOM      7  N   UNL     1       1.315  11.673  18.045  0.00  0.00    +0.000 N 
ATOM      8  C   UNL     1       2.035   9.378  17.629  0.00  0.00    +0.000 A 
ATOM      9  C   UNL     1       2.252   8.143  18.096  0.00  0.00    +0.000 A 
ATOM     10  C   UNL     1       1.849   7.843  19.413  0.00  0.00    +0.000 A 
ATOM     11  H   UNL     1       1.330  11.798  17.042  0.00  0.00    +0.000 HD
ENDROOT
BRANCH   1  14
ATOM     12  C   UNL     1       2.667   3.193  19.662  0.00  0.00    +0.000 A 
ATOM     13  C   UNL     1       1.914   4.292  19.991  0.00  0.00    +0.000 A 
ATOM     14  C   UNL     1       2.579   5.495  19.923  0.00  0.00    +0.000 A 
ATOM     15  N   UNL     1       3.877   5.601  19.579  0.00  0.00    +0.000 NA
ATOM     16  C   UNL     1       4.533   4.471  19.284  0.00  0.00    +0.000 A 
ATOM     17  N   UNL     1       5.876   4.503  18.898  0.00  0.00    +0.000 N 
ATOM     18  N   UNL     1       3.965   3.257  19.311  0.00  0.00    +0.000 NA
ATOM     19  H   UNL     1       6.210   3.549  18.922  0.00  0.00    +0.000 HD
BRANCH  17  20
ATOM     20  C   UNL     1       6.748   5.594  19.313  0.00  0.00    +0.000 C 
ATOM     21  C   UNL     1       8.246   5.482  19.254  0.00  0.00    +0.000 C 
ATOM     22  C   UNL     1       7.523   6.358  18.273  0.00  0.00    +0.000 C 
ENDBRANCH  17  20
ENDBRANCH   1  14
BRANCH   7  23
ATOM     23  C   UNL     1       1.279  12.879  18.846  0.00  0.00    +0.000 C 
ATOM     24  C   UNL     1       2.328  13.863  18.332  0.00  0.00    +0.000 C 
ATOM     25  C   UNL     1       1.819  15.232  18.749  0.00  0.00    +0.000 C 
ATOM     26  C   UNL     1       0.302  15.111  18.818  0.00  0.00    +0.000 C 
ATOM     27  C   UNL     1      -0.038  13.627  18.692  0.00  0.00    +0.000 C 
ENDBRANCH   7  23
TORSDOF 3
ENDMDL
MODEL 6
REMARK VINA RESULT:      -7.7      2.925      8.631
REMARK  Name = 
REMARK  3 active torsions:
REMARK  status: ('A' for Active; 'I' for Inactive)
REMARK    1  A    between atoms: C_3  and  C_4
REMARK    2  A    between atoms: N_10  and  C_11
REMARK    3  A    between atoms: N_21  and  C_22
REMARK                            x       y       z     vdW  Elec       q    Type
REMARK                         _______ _______ _______ _____ _____    ______ ____
ROOT
ATOM      1  C   UNL     1       2.211   7.732  18.486  0.00  0.00    +0.000 A 
ATOM      2  C   UNL     1       2.122   8.818  17.590  0.00  0.00    +0.000 A 
ATOM      3  N   UNL     1       1.567   9.903  18.136  0.00  0.00    +0.000 NA
ATOM      4  N   UNL     1       1.281   9.519  19.396  0.00  0.00    +0.000 N 
ATOM      5  N   UNL     1       0.632  10.364  20.229  0.00  0.00    +0.000 NA
ATOM      6  C   UNL     1       0.505   9.923  21.447  0.00  0.00    +0.000 A 
ATOM      7  N   UNL     1      -0.147  10.674  22.395  0.00  0.00    +0.000 N 
ATOM      8  C   UNL     1       1.033   8.595  21.900  0.00  0.00    +0.000 A 
ATOM      9  C   UNL     1       1.600   7.786  20.998  0.00  0.00    +0.000 A 
ATOM     10  C   UNL     1       1.727   8.246  19.671  0.00  0.00    +0.000 A 
ATOM     11  H   UNL     1       0.027  10.472  23.371  0.00  0.00    +0.000 HD
ENDROOT
BRANCH   1  14
ATOM     12  C   UNL     1       2.407   4.113  17.879  0.00  0.00    +0.000 A 
ATOM     13  C   UNL     1       1.818   5.343  18.032  0.00  0.00    +0.000 A 
ATOM     14  C   UNL     1       2.688   6.376  18.299  0.00  0.00    +0.000 A 
ATOM     15  N   UNL     1       4.019   6.204  18.421  0.00  0.00    +0.000 NA
ATOM     16  C   UNL     1       4.500   4.964  18.264  0.00  0.00    +0.000 A 
ATOM     17  N   UNL     1       5.872   4.712  18.355  0.00  0.00    +0.000 N 
ATOM     18  N   UNL     1       3.731   3.900  17.990  0.00  0.00    +0.000 NA
ATOM     19  H   UNL     1       5.982   3.708  18.405  0.00  0.00    +0.000 HD
BRANCH  17  20
ATOM     20  C   UNL     1       6.743   5.583  19.134  0.00  0.00    +0.000 C 
ATOM     21  C   UNL     1       8.223   5.344  19.234  0.00  0.00    +0.000 C 
ATOM     22  C   UNL     1       7.706   6.495  18.422  0.00  0.00    +0.000 C 
ENDBRANCH  17  20
ENDBRANCH   1  14
BRANCH   7  23
ATOM     23  C   UNL     1      -1.156  11.673  22.112  0.00  0.00    +0.000 C 
ATOM     24  C   UNL     1      -2.219  11.648  23.208  0.00  0.00    +0.000 C 
ATOM     25  C   UNL     1      -2.822  13.043  23.201  0.00  0.00    +0.000 C 
ATOM     26  C   UNL     1      -1.725  13.970  22.691  0.00  0.00    +0.000 C 
ATOM     27  C   UNL     1      -0.593  13.086  22.172  0.00  0.00    +0.000 C 
ENDBRANCH   7  23
TORSDOF 3
ENDMDL
MODEL 7
REMARK VINA RESULT:      -7.7      2.900      3.767
REMARK  Name = 
REMARK  3 active torsions:
REMARK  status: ('A' for Active; 'I' for Inactive)
REMARK    1  A    between atoms: C_3  and  C_4
REMARK    2  A    between atoms: N_10  and  C_11
REMARK    3  A    between atoms: N_21  and  C_22
REMARK                            x       y       z     vdW  Elec       q    Type
REMARK                         _______ _______ _______ _____ _____    ______ ____
ROOT
ATOM      1  C   UNL     1       1.093   9.474  19.789  0.00  0.00    +0.000 A 
ATOM      2  C   UNL     1       1.279  10.152  18.565  0.00  0.00    +0.000 A 
ATOM      3  N   UNL     1       1.989   9.447  17.681  0.00  0.00    +0.000 NA
ATOM      4  N   UNL     1       2.278   8.304  18.335  0.00  0.00    +0.000 N 
ATOM      5  N   UNL     1       3.063   7.371  17.750  0.00  0.00    +0.000 NA
ATOM      6  C   UNL     1       3.185   6.270  18.434  0.00  0.00    +0.000 A 
ATOM      7  N   UNL     1       3.964   5.241  17.964  0.00  0.00    +0.000 N 
ATOM      8  C   UNL     1       2.513   6.043  19.755  0.00  0.00    +0.000 A 
ATOM      9  C   UNL     1       1.812   7.044  20.301  0.00  0.00    +0.000 A 
ATOM     10  C   UNL     1       1.688   8.247  19.577  0.00  0.00    +0.000 A 
ATOM     11  H   UNL     1       3.809   4.312  18.333  0.00  0.00    +0.000 HD
ENDROOT
BRANCH   1  14
ATOM     12  C   UNL     1      -0.106   9.646  23.258  0.00  0.00    +0.000 A 
ATOM     13  C   UNL     1       0.562   9.142  22.171  0.00  0.00    +0.000 A 
ATOM     14  C   UNL     1       0.442   9.883  21.018  0.00  0.00    +0.000 A 
ATOM     15  N   UNL     1      -0.289  11.013  20.943  0.00  0.00    +0.000 NA
ATOM     16  C   UNL     1      -0.914  11.422  22.054  0.00  0.00    +0.000 A 
ATOM     17  N   UNL     1      -1.673  12.595  22.059  0.00  0.00    +0.000 N 
ATOM     18  N   UNL     1      -0.844  10.771  23.225  0.00  0.00    +0.000 NA
ATOM     19  H   UNL     1      -2.202  12.598  22.920  0.00  0.00    +0.000 HD
BRANCH  17  20
ATOM     20  C   UNL     1      -2.272  13.103  20.831  0.00  0.00    +0.000 C 
ATOM     21  C   UNL     1      -3.673  12.744  20.421  0.00  0.00    +0.000 C 
ATOM     22  C   UNL     1      -3.370  14.129  20.913  0.00  0.00    +0.000 C 
ENDBRANCH  17  20
ENDBRANCH   1  14
BRANCH   7  23
ATOM     23  C   UNL     1       5.079   5.395  17.052  0.00  0.00    +0.000 C 
ATOM     24  C   UNL     1       6.376   5.020  17.764  0.00  0.00    +0.000 C 
ATOM     25  C   UNL     1       7.325   4.599  16.655  0.00  0.00    +0.000 C 
ATOM     26  C   UNL     1       6.444   4.070  15.530  0.00  0.00    +0.000 C 
ATOM     27  C   UNL     1       5.001   4.420  15.885  0.00  0.00    +0.000 C 
ENDBRANCH   7  23
TORSDOF 3
ENDMDL
MODEL 8
REMARK VINA RESULT:      -7.6      1.772      2.208
REMARK  Name = 
REMARK  3 active torsions:
REMARK  status: ('A' for Active; 'I' for Inactive)
REMARK    1  A    between atoms: C_3  and  C_4
REMARK    2  A    between atoms: N_10  and  C_11
REMARK    3  A    between atoms: N_21  and  C_22
REMARK                            x       y       z     vdW  Elec       q    Type
REMARK                         _______ _______ _______ _____ _____    ______ ____
ROOT
ATOM      1  C   UNL     1       0.783  10.167  20.191  0.00  0.00    +0.000 A 
ATOM      2  C   UNL     1       0.773   9.590  21.479  0.00  0.00    +0.000 A 
ATOM      3  N   UNL     1       1.322   8.374  21.511  0.00  0.00    +0.000 NA
ATOM      4  N   UNL     1       1.686   8.149  20.232  0.00  0.00    +0.000 N 
ATOM      5  N   UNL     1       2.220   6.958  19.882  0.00  0.00    +0.000 NA
ATOM      6  C   UNL     1       2.627   6.896  18.647  0.00  0.00    +0.000 A 
ATOM      7  N   UNL     1       3.179   5.740  18.152  0.00  0.00    +0.000 N 
ATOM      8  C   UNL     1       2.521   8.045  17.688  0.00  0.00    +0.000 A 
ATOM      9  C   UNL     1       1.913   9.166  18.091  0.00  0.00    +0.000 A 
ATOM     10  C   UNL     1       1.453   9.237  19.422  0.00  0.00    +0.000 A 
ATOM     11  H   UNL     1       3.753   5.798  17.321  0.00  0.00    +0.000 HD
ENDROOT
BRANCH   1  14
ATOM     12  C   UNL     1       0.417  13.464  18.611  0.00  0.00    +0.000 A 
ATOM     13  C   UNL     1       1.047  12.314  19.013  0.00  0.00    +0.000 A 
ATOM     14  C   UNL     1       0.255  11.426  19.703  0.00  0.00    +0.000 A 
ATOM     15  N   UNL     1      -1.042  11.663  19.986  0.00  0.00    +0.000 NA
ATOM     16  C   UNL     1      -1.567  12.818  19.560  0.00  0.00    +0.000 A 
ATOM     17  N   UNL     1      -2.910  13.125  19.797  0.00  0.00    +0.000 N 
ATOM     18  N   UNL     1      -0.875  13.737  18.871  0.00  0.00    +0.000 NA
ATOM     19  H   UNL     1      -3.031  14.103  19.574  0.00  0.00    +0.000 HD
BRANCH  17  20
ATOM     20  C   UNL     1      -3.623  12.538  20.925  0.00  0.00    +0.000 C 
ATOM     21  C   UNL     1      -4.065  13.362  22.102  0.00  0.00    +0.000 C 
ATOM     22  C   UNL     1      -5.082  12.853  21.123  0.00  0.00    +0.000 C 
ENDBRANCH  17  20
ENDBRANCH   1  14
BRANCH   7  23
ATOM     23  C   UNL     1       2.916   4.411  18.663  0.00  0.00    +0.000 C 
ATOM     24  C   UNL     1       1.661   3.848  17.999  0.00  0.00    +0.000 C 
ATOM     25  C   UNL     1       1.820   2.339  18.076  0.00  0.00    +0.000 C 
ATOM     26  C   UNL     1       3.320   2.077  18.094  0.00  0.00    +0.000 C 
ATOM     27  C   UNL     1       4.012   3.425  18.282  0.00  0.00    +0.000 C 
ENDBRANCH   7  23
TORSDOF 3
ENDMDL
MODEL 9
REMARK VINA RESULT:      -7.6      2.499      8.313
REMARK  Name = 
REMARK  3 active torsions:
REMARK  status: ('A' for Active; 'I' for Inactive)
REMARK    1  A    between atoms: C_3  and  C_4
REMARK    2  A    between atoms: N_10  and  C_11
REMARK    3  A    between atoms: N_21  and  C_22
REMARK                            x       y       z     vdW  Elec       q    Type
REMARK                         _______ _______ _______ _____ _____    ______ ____
ROOT
ATOM      1  C   UNL     1       2.226   6.088  20.076  0.00  0.00    +0.000 A 
ATOM      2  C   UNL     1       1.444   6.474  21.185  0.00  0.00    +0.000 A 
ATOM      3  N   UNL     1       1.027   7.741  21.115  0.00  0.00    +0.000 NA
ATOM      4  N   UNL     1       1.550   8.189  19.956  0.00  0.00    +0.000 N 
ATOM      5  N   UNL     1       1.384   9.482  19.595  0.00  0.00    +0.000 NA
ATOM      6  C   UNL     1       1.841   9.771  18.412  0.00  0.00    +0.000 A 
ATOM      7  N   UNL     1       1.751  11.052  17.923  0.00  0.00    +0.000 N 
ATOM      8  C   UNL     1       2.494   8.763  17.513  0.00  0.00    +0.000 A 
ATOM      9  C   UNL     1       2.686   7.521  17.973  0.00  0.00    +0.000 A 
ATOM     10  C   UNL     1       2.210   7.202  19.261  0.00  0.00    +0.000 A 
ATOM     11  H   UNL     1       1.822  11.192  16.924  0.00  0.00    +0.000 HD
ENDROOT
BRANCH   1  14
ATOM     12  C   UNL     1       3.425   2.615  20.143  0.00  0.00    +0.000 A 
ATOM     13  C   UNL     1       2.714   3.719  20.540  0.00  0.00    +0.000 A 
ATOM     14  C   UNL     1       2.911   4.846  19.775  0.00  0.00    +0.000 A 
ATOM     15  N   UNL     1       3.750   4.883  18.721  0.00  0.00    +0.000 NA
ATOM     16  C   UNL     1       4.408   3.758  18.415  0.00  0.00    +0.000 A 
ATOM     17  N   UNL     1       5.280   3.713  17.324  0.00  0.00    +0.000 N 
ATOM     18  N   UNL     1       4.271   2.610  19.095  0.00  0.00    +0.000 NA
ATOM     19  H   UNL     1       5.804   2.852  17.402  0.00  0.00    +0.000 HD
BRANCH  17  20
ATOM     20  C   UNL     1       5.930   4.923  16.835  0.00  0.00    +0.000 C 
ATOM     21  C   UNL     1       6.886   4.899  15.675  0.00  0.00    +0.000 C 
ATOM     22  C   UNL     1       5.520   5.498  15.505  0.00  0.00    +0.000 C 
ENDBRANCH  17  20
ENDBRANCH   1  14
BRANCH   7  23
ATOM     23  C   UNL     1       1.670  12.246  18.739  0.00  0.00    +0.000 C 
ATOM     24  C   UNL     1       2.613  13.310  18.179  0.00  0.00    +0.000 C 
ATOM     25  C   UNL     1       2.027  14.634  18.640  0.00  0.00    +0.000 C 
ATOM     26  C   UNL     1       0.530  14.398  18.791  0.00  0.00    +0.000 C 
ATOM     27  C   UNL     1       0.295  12.894  18.666  0.00  0.00    +0.000 C 
ENDBRANCH   7  23
TORSDOF 3
ENDMDL
