MODEL 1
REMARK VINA RESULT:      -8.1      0.000      0.000
REMARK  Name = 
REMARK  4 active torsions:
REMARK  status: ('A' for Active; 'I' for Inactive)
REMARK    1  A    between atoms: C_1  and  C_2
REMARK    2  A    between atoms: C_2  and  O_4
REMARK    3  A    between atoms: O_4  and  C_5
REMARK    4  A    between atoms: C_6  and  N_7
REMARK                            x       y       z     vdW  Elec       q    Type
REMARK                         _______ _______ _______ _____ _____    ______ ____
ROOT
ATOM      1  C   UNL     1       3.389   4.293  17.904  0.00  0.00    +0.000 C 
ATOM      2  C   UNL     1       4.851   4.682  18.182  0.00  0.00    +0.000 C 
ATOM      3  O   UNL     1       5.418   3.604  18.942  0.00  0.00    +0.000 OA
ATOM      4  C   UNL     1       4.376   3.017  19.721  0.00  0.00    +0.000 C 
ATOM      5  C   UNL     1       3.037   3.440  19.133  0.00  0.00    +0.000 C 
ATOM      6  C   UNL     1       2.127   4.058  20.163  0.00  0.00    +0.000 C 
ATOM      7  O   UNL     1       0.831   3.678  19.737  0.00  0.00    +0.000 OA
ATOM      8  C   UNL     1       0.973   2.523  19.026  0.00  0.00    +0.000 C 
ATOM      9  O   UNL     1       0.058   1.786  18.705  0.00  0.00    +0.000 OA
ATOM     10  O   UNL     1       2.287   2.290  18.739  0.00  0.00    +0.000 OA
ENDROOT
BRANCH   2  11
ATOM     11  N   UNL     1       5.674   4.910  16.997  0.00  0.00    +0.000 N 
ATOM     12  C   UNL     1       5.361   4.319  15.781  0.00  0.00    +0.000 A 
ATOM     13  C   UNL     1       6.109   4.473  14.681  0.00  0.00    +0.000 A 
ATOM     14  I   UNL     1       5.667   3.533  12.920  0.00  0.00    +0.000 I 
ATOM     15  C   UNL     1       7.311   5.346  14.778  0.00  0.00    +0.000 A 
ATOM     16  O   UNL     1       8.082   5.540  13.844  0.00  0.00    +0.000 OA
ATOM     17  N   UNL     1       7.526   5.923  16.001  0.00  0.00    +0.000 N 
ATOM     18  C   UNL     1       6.785   5.731  17.135  0.00  0.00    +0.000 A 
ATOM     19  O   UNL     1       7.118   6.250  18.200  0.00  0.00    +0.000 OA
ATOM     20  H   UNL     1       8.337   6.515  16.083  0.00  0.00    +0.000 HD
ENDBRANCH   2  11
BRANCH   1  21
ATOM     21  O   UNL     1       2.516   5.437  17.827  0.00  0.00    +0.000 OA
BRANCH  21  23
ATOM     22  C   UNL     1       2.642   7.124  19.451  0.00  0.00    +0.000 C 
ATOM     23  C   UNL     1       3.060   6.656  18.089  0.00  0.00    +0.000 C 
ATOM     24  O   UNL     1       3.751   7.296  17.307  0.00  0.00    +0.000 OA
ENDBRANCH  21  23
ENDBRANCH   1  21
TORSDOF 3
ENDMDL
MODEL 2
REMARK VINA RESULT:      -8.1      0.988      1.048
REMARK  Name = 
REMARK  4 active torsions:
REMARK  status: ('A' for Active; 'I' for Inactive)
REMARK    1  A    between atoms: C_1  and  C_2
REMARK    2  A    between atoms: C_2  and  O_4
REMARK    3  A    between atoms: O_4  and  C_5
REMARK    4  A    between atoms: C_6  and  N_7
REMARK                            x       y       z     vdW  Elec       q    Type
REMARK                         _______ _______ _______ _____ _____    ______ ____
ROOT
ATOM      1  C   UNL     1       3.622   4.300  18.751  0.00  0.00    +0.000 C 
ATOM      2  C   UNL     1       5.157   4.261  18.864  0.00  0.00    +0.000 C 
ATOM      3  O   UNL     1       5.499   2.919  19.241  0.00  0.00    +0.000 OA
ATOM      4  C   UNL     1       4.428   2.393  20.024  0.00  0.00    +0.000 C 
ATOM      5  C   UNL     1       3.191   3.249  19.786  0.00  0.00    +0.000 C 
ATOM      6  C   UNL     1       2.586   3.754  21.070  0.00  0.00    +0.000 C 
ATOM      7  O   UNL     1       1.198   3.804  20.790  0.00  0.00    +0.000 OA
ATOM      8  C   UNL     1       0.960   2.883  19.814  0.00  0.00    +0.000 C 
ATOM      9  O   UNL     1      -0.144   2.486  19.486  0.00  0.00    +0.000 OA
ATOM     10  O   UNL     1       2.130   2.448  19.263  0.00  0.00    +0.000 OA
ENDROOT
BRANCH   2  11
ATOM     11  N   UNL     1       5.882   4.610  17.645  0.00  0.00    +0.000 N 
ATOM     12  C   UNL     1       5.464   4.150  16.404  0.00  0.00    +0.000 A 
ATOM     13  C   UNL     1       6.121   4.417  15.268  0.00  0.00    +0.000 A 
ATOM     14  I   UNL     1       5.527   3.668  13.461  0.00  0.00    +0.000 I 
ATOM     15  C   UNL     1       7.337   5.272  15.356  0.00  0.00    +0.000 A 
ATOM     16  O   UNL     1       8.031   5.561  14.387  0.00  0.00    +0.000 OA
ATOM     17  N   UNL     1       7.657   5.718  16.611  0.00  0.00    +0.000 N 
ATOM     18  C   UNL     1       7.010   5.410  17.776  0.00  0.00    +0.000 A 
ATOM     19  O   UNL     1       7.435   5.814  18.858  0.00  0.00    +0.000 OA
ATOM     20  H   UNL     1       8.479   6.296  16.687  0.00  0.00    +0.000 HD
ENDBRANCH   2  11
BRANCH   1  21
ATOM     21  O   UNL     1       3.075   5.589  19.094  0.00  0.00    +0.000 OA
BRANCH  21  23
ATOM     22  C   UNL     1       2.327   7.640  18.239  0.00  0.00    +0.000 C 
ATOM     23  C   UNL     1       2.195   6.147  18.219  0.00  0.00    +0.000 C 
ATOM     24  O   UNL     1       1.383   5.522  17.549  0.00  0.00    +0.000 OA
ENDBRANCH  21  23
ENDBRANCH   1  21
TORSDOF 3
ENDMDL
MODEL 3
REMARK VINA RESULT:      -7.5      3.038      5.944
REMARK  Name = 
REMARK  4 active torsions:
REMARK  status: ('A' for Active; 'I' for Inactive)
REMARK    1  A    between atoms: C_1  and  C_2
REMARK    2  A    between atoms: C_2  and  O_4
REMARK    3  A    between atoms: O_4  and  C_5
REMARK    4  A    between atoms: C_6  and  N_7
REMARK                            x       y       z     vdW  Elec       q    Type
REMARK                         _______ _______ _______ _____ _____    ______ ____
ROOT
ATOM      1  C   UNL     1       4.514   4.920  16.881  0.00  0.00    +0.000 C 
ATOM      2  C   UNL     1       4.856   5.805  18.092  0.00  0.00    +0.000 C 
ATOM      3  O   UNL     1       5.633   6.901  17.586  0.00  0.00    +0.000 OA
ATOM      4  C   UNL     1       6.365   6.436  16.452  0.00  0.00    +0.000 C 
ATOM      5  C   UNL     1       5.723   5.146  15.958  0.00  0.00    +0.000 C 
ATOM      6  C   UNL     1       6.717   4.020  15.837  0.00  0.00    +0.000 C 
ATOM      7  O   UNL     1       6.235   3.264  14.741  0.00  0.00    +0.000 OA
ATOM      8  C   UNL     1       5.525   4.120  13.953  0.00  0.00    +0.000 C 
ATOM      9  O   UNL     1       5.161   3.881  12.816  0.00  0.00    +0.000 OA
ATOM     10  O   UNL     1       5.291   5.297  14.606  0.00  0.00    +0.000 OA
ENDROOT
BRANCH   2  11
ATOM     11  N   UNL     1       3.708   6.336  18.822  0.00  0.00    +0.000 N 
ATOM     12  C   UNL     1       3.073   7.500  18.414  0.00  0.00    +0.000 A 
ATOM     13  C   UNL     1       2.041   8.039  19.076  0.00  0.00    +0.000 A 
ATOM     14  I   UNL     1       1.169   9.795  18.496  0.00  0.00    +0.000 I 
ATOM     15  C   UNL     1       1.547   7.326  20.286  0.00  0.00    +0.000 A 
ATOM     16  O   UNL     1       0.626   7.739  20.984  0.00  0.00    +0.000 OA
ATOM     17  N   UNL     1       2.201   6.164  20.597  0.00  0.00    +0.000 N 
ATOM     18  C   UNL     1       3.282   5.637  19.945  0.00  0.00    +0.000 A 
ATOM     19  O   UNL     1       3.834   4.619  20.361  0.00  0.00    +0.000 OA
ATOM     20  H   UNL     1       1.879   5.671  21.415  0.00  0.00    +0.000 HD
ENDBRANCH   2  11
BRANCH   1  21
ATOM     21  O   UNL     1       4.408   3.524  17.226  0.00  0.00    +0.000 OA
BRANCH  21  23
ATOM     22  C   UNL     1       3.237   1.769  18.248  0.00  0.00    +0.000 C 
ATOM     23  C   UNL     1       3.159   3.027  17.436  0.00  0.00    +0.000 C 
ATOM     24  O   UNL     1       2.129   3.511  16.987  0.00  0.00    +0.000 OA
ENDBRANCH  21  23
ENDBRANCH   1  21
TORSDOF 3
ENDMDL
MODEL 4
REMARK VINA RESULT:      -7.4      3.998      6.205
REMARK  Name = 
REMARK  4 active torsions:
REMARK  status: ('A' for Active; 'I' for Inactive)
REMARK    1  A    between atoms: C_1  and  C_2
REMARK    2  A    between atoms: C_2  and  O_4
REMARK    3  A    between atoms: O_4  and  C_5
REMARK    4  A    between atoms: C_6  and  N_7
REMARK                            x       y       z     vdW  Elec       q    Type
REMARK                         _______ _______ _______ _____ _____    ______ ____
ROOT
ATOM      1  C   UNL     1       2.610   5.673  19.145  0.00  0.00    +0.000 C 
ATOM      2  C   UNL     1       3.107   7.129  19.135  0.00  0.00    +0.000 C 
ATOM      3  O   UNL     1       3.688   7.349  17.841  0.00  0.00    +0.000 OA
ATOM      4  C   UNL     1       4.224   6.109  17.381  0.00  0.00    +0.000 C 
ATOM      5  C   UNL     1       3.601   4.982  18.194  0.00  0.00    +0.000 C 
ATOM      6  C   UNL     1       4.637   4.081  18.816  0.00  0.00    +0.000 C 
ATOM      7  O   UNL     1       4.014   2.809  18.821  0.00  0.00    +0.000 OA
ATOM      8  C   UNL     1       3.105   2.811  17.806  0.00  0.00    +0.000 C 
ATOM      9  O   UNL     1       2.552   1.819  17.366  0.00  0.00    +0.000 OA
ATOM     10  O   UNL     1       2.910   4.076  17.333  0.00  0.00    +0.000 OA
ENDROOT
BRANCH   2  11
ATOM     11  N   UNL     1       2.081   8.141  19.372  0.00  0.00    +0.000 N 
ATOM     12  C   UNL     1       1.547   8.340  20.637  0.00  0.00    +0.000 A 
ATOM     13  C   UNL     1       0.579   9.232  20.889  0.00  0.00    +0.000 A 
ATOM     14  I   UNL     1      -0.242   9.456  22.747  0.00  0.00    +0.000 I 
ATOM     15  C   UNL     1       0.088  10.059  19.752  0.00  0.00    +0.000 A 
ATOM     16  O   UNL     1      -0.810  10.888  19.859  0.00  0.00    +0.000 OA
ATOM     17  N   UNL     1       0.696   9.829  18.547  0.00  0.00    +0.000 N 
ATOM     18  C   UNL     1       1.654   8.889  18.282  0.00  0.00    +0.000 A 
ATOM     19  O   UNL     1       2.076   8.725  17.137  0.00  0.00    +0.000 OA
ATOM     20  H   UNL     1       0.372  10.380  17.767  0.00  0.00    +0.000 HD
ENDBRANCH   2  11
BRANCH   1  21
ATOM     21  O   UNL     1       2.678   5.073  20.454  0.00  0.00    +0.000 OA
BRANCH  21  23
ATOM     22  C   UNL     1       2.149   3.223  21.794  0.00  0.00    +0.000 C 
ATOM     23  C   UNL     1       1.658   4.248  20.816  0.00  0.00    +0.000 C 
ATOM     24  O   UNL     1       0.519   4.307  20.372  0.00  0.00    +0.000 OA
ENDBRANCH  21  23
ENDBRANCH   1  21
TORSDOF 3
ENDMDL
MODEL 5
REMARK VINA RESULT:      -7.3      1.792      1.941
REMARK  Name = 
REMARK  4 active torsions:
REMARK  status: ('A' for Active; 'I' for Inactive)
REMARK    1  A    between atoms: C_1  and  C_2
REMARK    2  A    between atoms: C_2  and  O_4
REMARK    3  A    between atoms: O_4  and  C_5
REMARK    4  A    between atoms: C_6  and  N_7
REMARK                            x       y       z     vdW  Elec       q    Type
REMARK                         _______ _______ _______ _____ _____    ______ ____
ROOT
ATOM      1  C   UNL     1       3.535   4.189  19.543  0.00  0.00    +0.000 C 
ATOM      2  C   UNL     1       5.058   4.144  19.756  0.00  0.00    +0.000 C 
ATOM      3  O   UNL     1       5.437   2.762  19.670  0.00  0.00    +0.000 OA
ATOM      4  C   UNL     1       4.341   1.974  20.134  0.00  0.00    +0.000 C 
ATOM      5  C   UNL     1       3.084   2.833  20.110  0.00  0.00    +0.000 C 
ATOM      6  C   UNL     1       2.371   2.845  21.438  0.00  0.00    +0.000 C 
ATOM      7  O   UNL     1       1.005   2.962  21.083  0.00  0.00    +0.000 OA
ATOM      8  C   UNL     1       0.876   2.435  19.832  0.00  0.00    +0.000 C 
ATOM      9  O   UNL     1      -0.183   2.155  19.301  0.00  0.00    +0.000 OA
ATOM     10  O   UNL     1       2.100   2.245  19.259  0.00  0.00    +0.000 OA
ENDROOT
BRANCH   2  11
ATOM     11  N   UNL     1       5.847   4.912  18.796  0.00  0.00    +0.000 N 
ATOM     12  C   UNL     1       5.481   4.981  17.459  0.00  0.00    +0.000 A 
ATOM     13  C   UNL     1       6.197   5.644  16.541  0.00  0.00    +0.000 A 
ATOM     14  I   UNL     1       5.678   5.671  14.564  0.00  0.00    +0.000 I 
ATOM     15  C   UNL     1       7.420   6.358  17.000  0.00  0.00    +0.000 A 
ATOM     16  O   UNL     1       8.165   6.975  16.245  0.00  0.00    +0.000 OA
ATOM     17  N   UNL     1       7.687   6.274  18.340  0.00  0.00    +0.000 N 
ATOM     18  C   UNL     1       6.979   5.561  19.270  0.00  0.00    +0.000 A 
ATOM     19  O   UNL     1       7.358   5.502  20.439  0.00  0.00    +0.000 OA
ATOM     20  H   UNL     1       8.513   6.750  18.666  0.00  0.00    +0.000 HD
ENDBRANCH   2  11
BRANCH   1  21
ATOM     21  O   UNL     1       2.905   5.265  20.268  0.00  0.00    +0.000 OA
BRANCH  21  23
ATOM     22  C   UNL     1       2.086   5.820  18.142  0.00  0.00    +0.000 C 
ATOM     23  C   UNL     1       2.376   6.284  19.538  0.00  0.00    +0.000 C 
ATOM     24  O   UNL     1       2.206   7.424  19.949  0.00  0.00    +0.000 OA
ENDBRANCH  21  23
ENDBRANCH   1  21
TORSDOF 3
ENDMDL
MODEL 6
REMARK VINA RESULT:      -7.2      3.341      5.287
REMARK  Name = 
REMARK  4 active torsions:
REMARK  status: ('A' for Active; 'I' for Inactive)
REMARK    1  A    between atoms: C_1  and  C_2
REMARK    2  A    between atoms: C_2  and  O_4
REMARK    3  A    between atoms: O_4  and  C_5
REMARK    4  A    between atoms: C_6  and  N_7
REMARK                            x       y       z     vdW  Elec       q    Type
REMARK                         _______ _______ _______ _____ _____    ______ ____
ROOT
ATOM      1  C   UNL     1       3.937   3.969  19.463  0.00  0.00    +0.000 C 
ATOM      2  C   UNL     1       2.661   4.533  18.814  0.00  0.00    +0.000 C 
ATOM      3  O   UNL     1       1.556   3.931  19.504  0.00  0.00    +0.000 OA
ATOM      4  C   UNL     1       1.963   2.635  19.942  0.00  0.00    +0.000 C 
ATOM      5  C   UNL     1       3.485   2.571  19.914  0.00  0.00    +0.000 C 
ATOM      6  C   UNL     1       3.996   1.394  19.124  0.00  0.00    +0.000 C 
ATOM      7  O   UNL     1       5.194   1.038  19.791  0.00  0.00    +0.000 OA
ATOM      8  C   UNL     1       5.064   1.452  21.083  0.00  0.00    +0.000 C 
ATOM      9  O   UNL     1       5.792   1.114  21.999  0.00  0.00    +0.000 OA
ATOM     10  O   UNL     1       3.991   2.285  21.218  0.00  0.00    +0.000 OA
ENDROOT
BRANCH   2  11
ATOM     11  N   UNL     1       2.520   5.986  18.872  0.00  0.00    +0.000 N 
ATOM     12  C   UNL     1       1.853   6.601  19.922  0.00  0.00    +0.000 A 
ATOM     13  C   UNL     1       1.670   7.926  19.994  0.00  0.00    +0.000 A 
ATOM     14  I   UNL     1       0.621   8.803  21.513  0.00  0.00    +0.000 I 
ATOM     15  C   UNL     1       2.243   8.764  18.904  0.00  0.00    +0.000 A 
ATOM     16  O   UNL     1       2.117   9.983  18.852  0.00  0.00    +0.000 OA
ATOM     17  N   UNL     1       2.921   8.083  17.928  0.00  0.00    +0.000 N 
ATOM     18  C   UNL     1       3.070   6.726  17.834  0.00  0.00    +0.000 A 
ATOM     19  O   UNL     1       3.642   6.221  16.868  0.00  0.00    +0.000 OA
ATOM     20  H   UNL     1       3.313   8.636  17.182  0.00  0.00    +0.000 HD
ENDBRANCH   2  11
BRANCH   1  21
ATOM     21  O   UNL     1       5.032   3.860  18.532  0.00  0.00    +0.000 OA
BRANCH  21  23
ATOM     22  C   UNL     1       7.024   4.619  17.554  0.00  0.00    +0.000 C 
ATOM     23  C   UNL     1       6.118   4.650  18.749  0.00  0.00    +0.000 C 
ATOM     24  O   UNL     1       6.343   5.259  19.787  0.00  0.00    +0.000 OA
ENDBRANCH  21  23
ENDBRANCH   1  21
TORSDOF 3
ENDMDL
MODEL 7
REMARK VINA RESULT:      -7.1      3.108      6.033
REMARK  Name = 
REMARK  4 active torsions:
REMARK  status: ('A' for Active; 'I' for Inactive)
REMARK    1  A    between atoms: C_1  and  C_2
REMARK    2  A    between atoms: C_2  and  O_4
REMARK    3  A    between atoms: O_4  and  C_5
REMARK    4  A    between atoms: C_6  and  N_7
REMARK                            x       y       z     vdW  Elec       q    Type
REMARK                         _______ _______ _______ _____ _____    ______ ____
ROOT
ATOM      1  C   UNL     1       4.227   5.221  17.448  0.00  0.00    +0.000 C 
ATOM      2  C   UNL     1       4.022   5.126  18.970  0.00  0.00    +0.000 C 
ATOM      3  O   UNL     1       5.288   5.439  19.569  0.00  0.00    +0.000 OA
ATOM      4  C   UNL     1       6.317   5.019  18.673  0.00  0.00    +0.000 C 
ATOM      5  C   UNL     1       5.705   4.827  17.292  0.00  0.00    +0.000 C 
ATOM      6  C   UNL     1       5.997   3.464  16.718  0.00  0.00    +0.000 C 
ATOM      7  O   UNL     1       6.086   3.700  15.324  0.00  0.00    +0.000 OA
ATOM      8  C   UNL     1       6.458   5.002  15.167  0.00  0.00    +0.000 C 
ATOM      9  O   UNL     1       6.854   5.491  14.125  0.00  0.00    +0.000 OA
ATOM     10  O   UNL     1       6.346   5.682  16.345  0.00  0.00    +0.000 OA
ENDROOT
BRANCH   2  11
ATOM     11  N   UNL     1       3.004   6.017  19.521  0.00  0.00    +0.000 N 
ATOM     12  C   UNL     1       2.711   7.231  18.916  0.00  0.00    +0.000 A 
ATOM     13  C   UNL     1       1.811   8.093  19.409  0.00  0.00    +0.000 A 
ATOM     14  I   UNL     1       1.449   9.908  18.542  0.00  0.00    +0.000 I 
ATOM     15  C   UNL     1       1.081   7.699  20.646  0.00  0.00    +0.000 A 
ATOM     16  O   UNL     1       0.255   8.417  21.200  0.00  0.00    +0.000 OA
ATOM     17  N   UNL     1       1.400   6.468  21.155  0.00  0.00    +0.000 N 
ATOM     18  C   UNL     1       2.349   5.608  20.675  0.00  0.00    +0.000 A 
ATOM     19  O   UNL     1       2.599   4.555  21.262  0.00  0.00    +0.000 OA
ATOM     20  H   UNL     1       0.915   6.189  21.993  0.00  0.00    +0.000 HD
ENDBRANCH   2  11
BRANCH   1  21
ATOM     21  O   UNL     1       3.389   4.303  16.718  0.00  0.00    +0.000 OA
BRANCH  21  23
ATOM     22  C   UNL     1       2.729   2.414  17.940  0.00  0.00    +0.000 C 
ATOM     23  C   UNL     1       2.339   3.751  17.384  0.00  0.00    +0.000 C 
ATOM     24  O   UNL     1       1.226   4.253  17.474  0.00  0.00    +0.000 OA
ENDBRANCH  21  23
ENDBRANCH   1  21
TORSDOF 3
ENDMDL
MODEL 8
REMARK VINA RESULT:      -7.1      1.332      1.415
REMARK  Name = 
REMARK  4 active torsions:
REMARK  status: ('A' for Active; 'I' for Inactive)
REMARK    1  A    between atoms: C_1  and  C_2
REMARK    2  A    between atoms: C_2  and  O_4
REMARK    3  A    between atoms: O_4  and  C_5
REMARK    4  A    between atoms: C_6  and  N_7
REMARK                            x       y       z     vdW  Elec       q    Type
REMARK                         _______ _______ _______ _____ _____    ______ ____
ROOT
ATOM      1  C   UNL     1       3.716   3.869  18.556  0.00  0.00    +0.000 C 
ATOM      2  C   UNL     1       5.081   3.255  18.199  0.00  0.00    +0.000 C 
ATOM      3  O   UNL     1       4.835   1.874  17.894  0.00  0.00    +0.000 OA
ATOM      4  C   UNL     1       3.719   1.442  18.673  0.00  0.00    +0.000 C 
ATOM      5  C   UNL     1       2.966   2.672  19.161  0.00  0.00    +0.000 C 
ATOM      6  C   UNL     1       2.766   2.668  20.655  0.00  0.00    +0.000 C 
ATOM      7  O   UNL     1       1.521   3.321  20.828  0.00  0.00    +0.000 OA
ATOM      8  C   UNL     1       0.813   3.132  19.678  0.00  0.00    +0.000 C 
ATOM      9  O   UNL     1      -0.378   3.350  19.550  0.00  0.00    +0.000 OA
ATOM     10  O   UNL     1       1.618   2.644  18.689  0.00  0.00    +0.000 OA
ENDROOT
BRANCH   2  11
ATOM     11  N   UNL     1       5.769   3.874  17.069  0.00  0.00    +0.000 N 
ATOM     12  C   UNL     1       5.402   3.589  15.762  0.00  0.00    +0.000 A 
ATOM     13  C   UNL     1       6.030   4.107  14.698  0.00  0.00    +0.000 A 
ATOM     14  I   UNL     1       5.518   3.615  12.781  0.00  0.00    +0.000 I 
ATOM     15  C   UNL     1       7.152   5.053  14.950  0.00  0.00    +0.000 A 
ATOM     16  O   UNL     1       7.815   5.568  14.056  0.00  0.00    +0.000 OA
ATOM     17  N   UNL     1       7.423   5.312  16.267  0.00  0.00    +0.000 N 
ATOM     18  C   UNL     1       6.809   4.750  17.352  0.00  0.00    +0.000 A 
ATOM     19  O   UNL     1       7.189   5.007  18.495  0.00  0.00    +0.000 OA
ATOM     20  H   UNL     1       8.182   5.949  16.454  0.00  0.00    +0.000 HD
ENDBRANCH   2  11
BRANCH   1  21
ATOM     21  O   UNL     1       3.822   4.930  19.526  0.00  0.00    +0.000 OA
BRANCH  21  23
ATOM     22  C   UNL     1       3.592   6.695  18.000  0.00  0.00    +0.000 C 
ATOM     23  C   UNL     1       3.125   6.072  19.281  0.00  0.00    +0.000 C 
ATOM     24  O   UNL     1       2.274   6.545  20.024  0.00  0.00    +0.000 OA
ENDBRANCH  21  23
ENDBRANCH   1  21
TORSDOF 3
ENDMDL
MODEL 9
REMARK VINA RESULT:      -6.7      4.152      6.595
REMARK  Name = 
REMARK  4 active torsions:
REMARK  status: ('A' for Active; 'I' for Inactive)
REMARK    1  A    between atoms: C_1  and  C_2
REMARK    2  A    between atoms: C_2  and  O_4
REMARK    3  A    between atoms: O_4  and  C_5
REMARK    4  A    between atoms: C_6  and  N_7
REMARK                            x       y       z     vdW  Elec       q    Type
REMARK                         _______ _______ _______ _____ _____    ______ ____
ROOT
ATOM      1  C   UNL     1       1.482   9.026  20.073  0.00  0.00    +0.000 C 
ATOM      2  C   UNL     1       1.494   7.950  18.973  0.00  0.00    +0.000 C 
ATOM      3  O   UNL     1       1.622   8.648  17.726  0.00  0.00    +0.000 OA
ATOM      4  C   UNL     1       0.996   9.923  17.867  0.00  0.00    +0.000 C 
ATOM      5  C   UNL     1       0.842  10.224  19.352  0.00  0.00    +0.000 C 
ATOM      6  C   UNL     1      -0.575  10.574  19.724  0.00  0.00    +0.000 C 
ATOM      7  O   UNL     1      -0.424  11.505  20.781  0.00  0.00    +0.000 OA
ATOM      8  C   UNL     1       0.789  12.102  20.610  0.00  0.00    +0.000 C 
ATOM      9  O   UNL     1       1.157  13.109  21.187  0.00  0.00    +0.000 OA
ATOM     10  O   UNL     1       1.534  11.427  19.686  0.00  0.00    +0.000 OA
ENDROOT
BRANCH   2  11
ATOM     11  N   UNL     1       2.567   6.963  19.076  0.00  0.00    +0.000 N 
ATOM     12  C   UNL     1       3.688   7.035  18.262  0.00  0.00    +0.000 A 
ATOM     13  C   UNL     1       4.676   6.131  18.299  0.00  0.00    +0.000 A 
ATOM     14  I   UNL     1       6.284   6.217  17.040  0.00  0.00    +0.000 I 
ATOM     15  C   UNL     1       4.561   5.022  19.286  0.00  0.00    +0.000 A 
ATOM     16  O   UNL     1       5.391   4.125  19.393  0.00  0.00    +0.000 OA
ATOM     17  N   UNL     1       3.444   5.047  20.079  0.00  0.00    +0.000 N 
ATOM     18  C   UNL     1       2.416   5.947  20.010  0.00  0.00    +0.000 A 
ATOM     19  O   UNL     1       1.425   5.827  20.730  0.00  0.00    +0.000 OA
ATOM     20  H   UNL     1       3.352   4.302  20.751  0.00  0.00    +0.000 HD
ENDBRANCH   2  11
BRANCH   1  21
ATOM     21  O   UNL     1       0.682   8.646  21.211  0.00  0.00    +0.000 OA
BRANCH  21  23
ATOM     22  C   UNL     1      -0.166   9.348  23.281  0.00  0.00    +0.000 C 
ATOM     23  C   UNL     1       1.047   9.142  22.424  0.00  0.00    +0.000 C 
ATOM     24  O   UNL     1       2.193   9.423  22.748  0.00  0.00    +0.000 OA
ENDBRANCH  21  23
ENDBRANCH   1  21
TORSDOF 3
ENDMDL
