MODEL 1
REMARK VINA RESULT:      -8.7      0.000      0.000
REMARK  Name = 
REMARK  11 active torsions:
REMARK  status: ('A' for Active; 'I' for Inactive)
REMARK    1  A    between atoms: C_1  and  O_2
REMARK    2  A    between atoms: O_2  and  C_3
REMARK    3  A    between atoms: C_5  and  O_6
REMARK    4  A    between atoms: O_6  and  C_7
REMARK    5  A    between atoms: C_9  and  N_10
REMARK    6  A    between atoms: N_10  and  C_11
REMARK    7  A    between atoms: N_10  and  C_15
REMARK    8  A    between atoms: C_11  and  C_12
REMARK    9  A    between atoms: C_21  and  C_22
REMARK   10  A    between atoms: N_25  and  C_26
REMARK   11  A    between atoms: C_26  and  C_27
REMARK                            x       y       z     vdW  Elec       q    Type
REMARK                         _______ _______ _______ _____ _____    ______ ____
ROOT
ATOM      1  C   UNL     1       2.392   7.317  19.054  0.00  0.00    +0.000 A 
ATOM      2  C   UNL     1       2.689   8.139  17.958  0.00  0.00    +0.000 A 
ATOM      3  C   UNL     1       2.081   9.381  17.797  0.00  0.00    +0.000 A 
ATOM      4  C   UNL     1       1.194   9.869  18.731  0.00  0.00    +0.000 A 
ATOM      5  N   UNL     1       0.565  11.017  18.448  0.00  0.00    +0.000 NA
ATOM      6  C   UNL     1      -0.275  11.485  19.396  0.00  0.00    +0.000 A 
ATOM      7  C   UNL     1      -0.449  10.871  20.627  0.00  0.00    +0.000 A 
ATOM      8  N   UNL     1       0.168   9.685  20.903  0.00  0.00    +0.000 NA
ATOM      9  C   UNL     1       0.971   9.155  19.933  0.00  0.00    +0.000 A 
ATOM     10  C   UNL     1       1.579   7.889  20.060  0.00  0.00    +0.000 A 
ENDROOT
BRANCH   7  11
ATOM     11  C   UNL     1      -1.228  11.535  21.665  0.00  0.00    +0.000 A 
ATOM     12  C   UNL     1      -1.446  11.176  23.022  0.00  0.00    +0.000 A 
ATOM     13  N   UNL     1      -2.312  11.976  23.647  0.00  0.00    +0.000 NA
ATOM     14  N   UNL     1      -2.650  12.875  22.706  0.00  0.00    +0.000 N 
ATOM     15  C   UNL     1      -1.993  12.670  21.516  0.00  0.00    +0.000 A 
BRANCH  14  16
ATOM     16  C   UNL     1      -3.523  13.986  23.063  0.00  0.00    +0.000 C 
BRANCH  16  17
ATOM     17  C   UNL     1      -4.832  14.096  22.251  0.00  0.00    +0.000 C 
ATOM     18  C   UNL     1      -5.631  15.381  22.515  0.00  0.00    +0.000 C 
ATOM     19  C   UNL     1      -6.182  15.431  23.940  0.00  0.00    +0.000 C 
ATOM     20  N   UNL     1      -6.973  14.254  24.300  0.00  0.00    +0.000 NA
ATOM     21  C   UNL     1      -6.325  12.982  23.990  0.00  0.00    +0.000 C 
ATOM     22  C   UNL     1      -5.779  12.916  22.562  0.00  0.00    +0.000 C 
ATOM     23  H   UNL     1      -7.879  14.297  23.834  0.00  0.00    +0.000 HD
ENDBRANCH  16  17
ENDBRANCH  14  16
ENDBRANCH   7  11
BRANCH   1  24
ATOM     24  N   UNL     1       2.817   5.950  19.099  0.00  0.00    +0.000 N 
BRANCH  24  29
ATOM     25  C   UNL     1       6.361   4.844  18.476  0.00  0.00    +0.000 A 
ATOM     26  C   UNL     1       6.275   4.372  17.171  0.00  0.00    +0.000 A 
ATOM     27  C   UNL     1       5.054   4.352  16.505  0.00  0.00    +0.000 A 
ATOM     28  C   UNL     1       3.910   4.779  17.183  0.00  0.00    +0.000 A 
ATOM     29  C   UNL     1       3.962   5.358  18.478  0.00  0.00    +0.000 A 
ATOM     30  C   UNL     1       5.220   5.371  19.103  0.00  0.00    +0.000 A 
BRANCH  25  32
ATOM     31  C   UNL     1       8.214   6.016  19.383  0.00  0.00    +0.000 C 
ATOM     32  O   UNL     1       7.611   4.777  19.031  0.00  0.00    +0.000 OA
ENDBRANCH  25  32
BRANCH  27  33
ATOM     33  O   UNL     1       5.119   3.908  15.214  0.00  0.00    +0.000 OA
ATOM     34  C   UNL     1       6.198   4.331  14.390  0.00  0.00    +0.000 C 
ENDBRANCH  27  33
ENDBRANCH  24  29
BRANCH  24  35
ATOM     35  C   UNL     1       1.834   5.008  19.702  0.00  0.00    +0.000 C 
BRANCH  35  36
ATOM     36  C   UNL     1       2.316   4.240  20.910  0.00  0.00    +0.000 C 
ATOM     37  C   UNL     1       1.523   3.106  21.516  0.00  0.00    +0.000 C 
ATOM     38  C   UNL     1       2.869   2.833  20.909  0.00  0.00    +0.000 C 
ENDBRANCH  35  36
ENDBRANCH  24  35
ENDBRANCH   1  24
TORSDOF 9
ENDMDL
MODEL 2
REMARK VINA RESULT:      -8.5      1.928      2.353
REMARK  Name = 
REMARK  11 active torsions:
REMARK  status: ('A' for Active; 'I' for Inactive)
REMARK    1  A    between atoms: C_1  and  O_2
REMARK    2  A    between atoms: O_2  and  C_3
REMARK    3  A    between atoms: C_5  and  O_6
REMARK    4  A    between atoms: O_6  and  C_7
REMARK    5  A    between atoms: C_9  and  N_10
REMARK    6  A    between atoms: N_10  and  C_11
REMARK    7  A    between atoms: N_10  and  C_15
REMARK    8  A    between atoms: C_11  and  C_12
REMARK    9  A    between atoms: C_21  and  C_22
REMARK   10  A    between atoms: N_25  and  C_26
REMARK   11  A    between atoms: C_26  and  C_27
REMARK                            x       y       z     vdW  Elec       q    Type
REMARK                         _______ _______ _______ _____ _____    ______ ____
ROOT
ATOM      1  C   UNL     1       2.263   7.469  19.316  0.00  0.00    +0.000 A 
ATOM      2  C   UNL     1       2.180   8.048  18.043  0.00  0.00    +0.000 A 
ATOM      3  C   UNL     1       1.444   9.209  17.821  0.00  0.00    +0.000 A 
ATOM      4  C   UNL     1       0.803   9.857  18.853  0.00  0.00    +0.000 A 
ATOM      5  N   UNL     1       0.022  10.900  18.541  0.00  0.00    +0.000 NA
ATOM      6  C   UNL     1      -0.568  11.533  19.577  0.00  0.00    +0.000 A 
ATOM      7  C   UNL     1      -0.349  11.189  20.903  0.00  0.00    +0.000 A 
ATOM      8  N   UNL     1       0.422  10.107  21.219  0.00  0.00    +0.000 NA
ATOM      9  C   UNL     1       0.977   9.408  20.185  0.00  0.00    +0.000 A 
ATOM     10  C   UNL     1       1.705   8.216  20.379  0.00  0.00    +0.000 A 
ENDROOT
BRANCH   7  11
ATOM     11  C   UNL     1      -0.873  12.034  21.968  0.00  0.00    +0.000 A 
ATOM     12  C   UNL     1      -1.881  11.776  22.935  0.00  0.00    +0.000 A 
ATOM     13  N   UNL     1      -2.172  12.837  23.691  0.00  0.00    +0.000 NA
ATOM     14  N   UNL     1      -1.342  13.790  23.232  0.00  0.00    +0.000 N 
ATOM     15  C   UNL     1      -0.519  13.340  22.228  0.00  0.00    +0.000 A 
BRANCH  14  16
ATOM     16  C   UNL     1      -1.309  15.086  23.899  0.00  0.00    +0.000 C 
BRANCH  16  17
ATOM     17  C   UNL     1      -2.066  15.166  25.242  0.00  0.00    +0.000 C 
ATOM     18  C   UNL     1      -3.383  15.955  25.178  0.00  0.00    +0.000 C 
ATOM     19  C   UNL     1      -3.149  17.439  24.900  0.00  0.00    +0.000 C 
ATOM     20  N   UNL     1      -2.222  18.069  25.841  0.00  0.00    +0.000 NA
ATOM     21  C   UNL     1      -0.978  17.329  26.038  0.00  0.00    +0.000 C 
ATOM     22  C   UNL     1      -1.200  15.843  26.328  0.00  0.00    +0.000 C 
ATOM     23  H   UNL     1      -2.686  18.200  26.739  0.00  0.00    +0.000 HD
ENDBRANCH  16  17
ENDBRANCH  14  16
ENDBRANCH   7  11
BRANCH   1  24
ATOM     24  N   UNL     1       2.803   6.155  19.505  0.00  0.00    +0.000 N 
BRANCH  24  29
ATOM     25  C   UNL     1       6.192   4.847  18.522  0.00  0.00    +0.000 A 
ATOM     26  C   UNL     1       5.954   4.420  17.221  0.00  0.00    +0.000 A 
ATOM     27  C   UNL     1       4.678   4.497  16.674  0.00  0.00    +0.000 A 
ATOM     28  C   UNL     1       3.633   4.975  17.467  0.00  0.00    +0.000 A 
ATOM     29  C   UNL     1       3.843   5.510  18.765  0.00  0.00    +0.000 A 
ATOM     30  C   UNL     1       5.152   5.426  19.267  0.00  0.00    +0.000 A 
BRANCH  25  32
ATOM     31  C   UNL     1       8.124   5.842  19.476  0.00  0.00    +0.000 C 
ATOM     32  O   UNL     1       7.482   4.685  18.954  0.00  0.00    +0.000 OA
ENDBRANCH  25  32
BRANCH  27  33
ATOM     33  O   UNL     1       4.593   4.087  15.372  0.00  0.00    +0.000 OA
ATOM     34  C   UNL     1       5.692   4.318  14.501  0.00  0.00    +0.000 C 
ENDBRANCH  27  33
ENDBRANCH  24  29
BRANCH  24  35
ATOM     35  C   UNL     1       2.046   5.300  20.461  0.00  0.00    +0.000 C 
BRANCH  35  36
ATOM     36  C   UNL     1       2.059   3.818  20.168  0.00  0.00    +0.000 C 
ATOM     37  C   UNL     1       1.486   2.800  21.126  0.00  0.00    +0.000 C 
ATOM     38  C   UNL     1       0.867   2.977  19.769  0.00  0.00    +0.000 C 
ENDBRANCH  35  36
ENDBRANCH  24  35
ENDBRANCH   1  24
TORSDOF 9
ENDMDL
MODEL 3
REMARK VINA RESULT:      -8.4      0.892      1.239
REMARK  Name = 
REMARK  11 active torsions:
REMARK  status: ('A' for Active; 'I' for Inactive)
REMARK    1  A    between atoms: C_1  and  O_2
REMARK    2  A    between atoms: O_2  and  C_3
REMARK    3  A    between atoms: C_5  and  O_6
REMARK    4  A    between atoms: O_6  and  C_7
REMARK    5  A    between atoms: C_9  and  N_10
REMARK    6  A    between atoms: N_10  and  C_11
REMARK    7  A    between atoms: N_10  and  C_15
REMARK    8  A    between atoms: C_11  and  C_12
REMARK    9  A    between atoms: C_21  and  C_22
REMARK   10  A    between atoms: N_25  and  C_26
REMARK   11  A    between atoms: C_26  and  C_27
REMARK                            x       y       z     vdW  Elec       q    Type
REMARK                         _______ _______ _______ _____ _____    ______ ____
ROOT
ATOM      1  C   UNL     1       2.529   7.237  18.906  0.00  0.00    +0.000 A 
ATOM      2  C   UNL     1       2.879   8.104  17.862  0.00  0.00    +0.000 A 
ATOM      3  C   UNL     1       2.289   9.359  17.733  0.00  0.00    +0.000 A 
ATOM      4  C   UNL     1       1.370   9.814  18.652  0.00  0.00    +0.000 A 
ATOM      5  N   UNL     1       0.763  10.981  18.396  0.00  0.00    +0.000 NA
ATOM      6  C   UNL     1      -0.110  11.415  19.329  0.00  0.00    +0.000 A 
ATOM      7  C   UNL     1      -0.341  10.748  20.523  0.00  0.00    +0.000 A 
ATOM      8  N   UNL     1       0.254   9.544  20.770  0.00  0.00    +0.000 NA
ATOM      9  C   UNL     1       1.091   9.049  19.810  0.00  0.00    +0.000 A 
ATOM     10  C   UNL     1       1.681   7.772  19.903  0.00  0.00    +0.000 A 
ENDROOT
BRANCH   7  11
ATOM     11  C   UNL     1      -1.154  11.373  21.558  0.00  0.00    +0.000 A 
ATOM     12  C   UNL     1      -1.187  11.153  22.960  0.00  0.00    +0.000 A 
ATOM     13  N   UNL     1      -2.147  11.842  23.582  0.00  0.00    +0.000 NA
ATOM     14  N   UNL     1      -2.735  12.532  22.588  0.00  0.00    +0.000 N 
ATOM     15  C   UNL     1      -2.146  12.310  21.367  0.00  0.00    +0.000 A 
BRANCH  14  16
ATOM     16  C   UNL     1      -3.787  13.487  22.912  0.00  0.00    +0.000 C 
BRANCH  16  17
ATOM     17  C   UNL     1      -3.432  14.973  22.693  0.00  0.00    +0.000 C 
ATOM     18  C   UNL     1      -2.531  15.573  23.782  0.00  0.00    +0.000 C 
ATOM     19  C   UNL     1      -3.239  15.653  25.133  0.00  0.00    +0.000 C 
ATOM     20  N   UNL     1      -4.519  16.362  25.080  0.00  0.00    +0.000 NA
ATOM     21  C   UNL     1      -5.402  15.919  24.005  0.00  0.00    +0.000 C 
ATOM     22  C   UNL     1      -4.706  15.847  22.644  0.00  0.00    +0.000 C 
ATOM     23  H   UNL     1      -4.348  17.363  24.990  0.00  0.00    +0.000 HD
ENDBRANCH  16  17
ENDBRANCH  14  16
ENDBRANCH   7  11
BRANCH   1  24
ATOM     24  N   UNL     1       2.939   5.864  18.906  0.00  0.00    +0.000 N 
BRANCH  24  29
ATOM     25  C   UNL     1       6.522   4.823  18.407  0.00  0.00    +0.000 A 
ATOM     26  C   UNL     1       6.488   4.345  17.102  0.00  0.00    +0.000 A 
ATOM     27  C   UNL     1       5.291   4.300  16.396  0.00  0.00    +0.000 A 
ATOM     28  C   UNL     1       4.117   4.708  17.032  0.00  0.00    +0.000 A 
ATOM     29  C   UNL     1       4.115   5.292  18.326  0.00  0.00    +0.000 A 
ATOM     30  C   UNL     1       5.351   5.331  18.993  0.00  0.00    +0.000 A 
BRANCH  25  32
ATOM     31  C   UNL     1       8.123   5.921  19.770  0.00  0.00    +0.000 C 
ATOM     32  O   UNL     1       7.753   4.781  19.004  0.00  0.00    +0.000 OA
ENDBRANCH  25  32
BRANCH  27  33
ATOM     33  O   UNL     1       5.408   3.853  15.109  0.00  0.00    +0.000 OA
ATOM     34  C   UNL     1       6.268   4.542  14.212  0.00  0.00    +0.000 C 
ENDBRANCH  27  33
ENDBRANCH  24  29
BRANCH  24  35
ATOM     35  C   UNL     1       1.913   4.905  19.399  0.00  0.00    +0.000 C 
BRANCH  35  36
ATOM     36  C   UNL     1       2.205   4.259  20.732  0.00  0.00    +0.000 C 
ATOM     37  C   UNL     1       1.383   3.110  21.271  0.00  0.00    +0.000 C 
ATOM     38  C   UNL     1       2.835   2.901  20.946  0.00  0.00    +0.000 C 
ENDBRANCH  35  36
ENDBRANCH  24  35
ENDBRANCH   1  24
TORSDOF 9
ENDMDL
MODEL 4
REMARK VINA RESULT:      -8.2      3.609      4.676
REMARK  Name = 
REMARK  11 active torsions:
REMARK  status: ('A' for Active; 'I' for Inactive)
REMARK    1  A    between atoms: C_1  and  O_2
REMARK    2  A    between atoms: O_2  and  C_3
REMARK    3  A    between atoms: C_5  and  O_6
REMARK    4  A    between atoms: O_6  and  C_7
REMARK    5  A    between atoms: C_9  and  N_10
REMARK    6  A    between atoms: N_10  and  C_11
REMARK    7  A    between atoms: N_10  and  C_15
REMARK    8  A    between atoms: C_11  and  C_12
REMARK    9  A    between atoms: C_21  and  C_22
REMARK   10  A    between atoms: N_25  and  C_26
REMARK   11  A    between atoms: C_26  and  C_27
REMARK                            x       y       z     vdW  Elec       q    Type
REMARK                         _______ _______ _______ _____ _____    ______ ____
ROOT
ATOM      1  C   UNL     1       2.571   5.774  18.709  0.00  0.00    +0.000 A 
ATOM      2  C   UNL     1       2.223   5.364  20.003  0.00  0.00    +0.000 A 
ATOM      3  C   UNL     1       1.731   6.266  20.943  0.00  0.00    +0.000 A 
ATOM      4  C   UNL     1       1.529   7.591  20.623  0.00  0.00    +0.000 A 
ATOM      5  N   UNL     1       1.164   8.418  21.612  0.00  0.00    +0.000 NA
ATOM      6  C   UNL     1       0.943   9.703  21.262  0.00  0.00    +0.000 A 
ATOM      7  C   UNL     1       1.020  10.158  19.954  0.00  0.00    +0.000 A 
ATOM      8  N   UNL     1       1.422   9.323  18.952  0.00  0.00    +0.000 NA
ATOM      9  C   UNL     1       1.716   8.032  19.291  0.00  0.00    +0.000 A 
ATOM     10  C   UNL     1       2.239   7.106  18.366  0.00  0.00    +0.000 A 
ENDROOT
BRANCH   7  11
ATOM     11  C   UNL     1       0.588  11.513  19.631  0.00  0.00    +0.000 A 
ATOM     12  C   UNL     1      -0.126  12.007  18.508  0.00  0.00    +0.000 A 
ATOM     13  N   UNL     1      -0.250  13.335  18.503  0.00  0.00    +0.000 NA
ATOM     14  N   UNL     1       0.367  13.716  19.635  0.00  0.00    +0.000 N 
ATOM     15  C   UNL     1       0.848  12.652  20.360  0.00  0.00    +0.000 A 
BRANCH  14  16
ATOM     16  C   UNL     1       0.345  15.121  20.020  0.00  0.00    +0.000 C 
BRANCH  16  17
ATOM     17  C   UNL     1       1.710  15.730  20.408  0.00  0.00    +0.000 C 
ATOM     18  C   UNL     1       1.657  17.224  20.758  0.00  0.00    +0.000 C 
ATOM     19  C   UNL     1       1.304  18.085  19.545  0.00  0.00    +0.000 C 
ATOM     20  N   UNL     1       2.181  17.859  18.395  0.00  0.00    +0.000 NA
ATOM     21  C   UNL     1       2.366  16.450  18.054  0.00  0.00    +0.000 C 
ATOM     22  C   UNL     1       2.732  15.581  19.259  0.00  0.00    +0.000 C 
ATOM     23  H   UNL     1       3.088  18.289  18.570  0.00  0.00    +0.000 HD
ENDBRANCH  16  17
ENDBRANCH  14  16
ENDBRANCH   7  11
BRANCH   1  24
ATOM     24  N   UNL     1       3.304   4.917  17.826  0.00  0.00    +0.000 N 
BRANCH  24  29
ATOM     25  C   UNL     1       6.862   6.111  17.535  0.00  0.00    +0.000 A 
ATOM     26  C   UNL     1       7.252   5.518  16.339  0.00  0.00    +0.000 A 
ATOM     27  C   UNL     1       6.385   4.678  15.651  0.00  0.00    +0.000 A 
ATOM     28  C   UNL     1       5.129   4.409  16.199  0.00  0.00    +0.000 A 
ATOM     29  C   UNL     1       4.650   5.063  17.364  0.00  0.00    +0.000 A 
ATOM     30  C   UNL     1       5.556   5.916  18.015  0.00  0.00    +0.000 A 
BRANCH  25  32
ATOM     31  C   UNL     1       7.894   8.240  17.704  0.00  0.00    +0.000 C 
ATOM     32  O   UNL     1       7.819   6.886  18.133  0.00  0.00    +0.000 OA
ENDBRANCH  25  32
BRANCH  27  33
ATOM     33  O   UNL     1       6.877   4.200  14.468  0.00  0.00    +0.000 OA
ATOM     34  C   UNL     1       5.968   3.816  13.444  0.00  0.00    +0.000 C 
ENDBRANCH  27  33
ENDBRANCH  24  29
BRANCH  24  35
ATOM     35  C   UNL     1       2.491   3.860  17.163  0.00  0.00    +0.000 C 
BRANCH  35  36
ATOM     36  C   UNL     1       2.628   2.470  17.736  0.00  0.00    +0.000 C 
ATOM     37  C   UNL     1       3.355   2.198  19.032  0.00  0.00    +0.000 C 
ATOM     38  C   UNL     1       1.883   1.920  18.931  0.00  0.00    +0.000 C 
ENDBRANCH  35  36
ENDBRANCH  24  35
ENDBRANCH   1  24
TORSDOF 9
ENDMDL
MODEL 5
REMARK VINA RESULT:      -8.2      3.465      4.304
REMARK  Name = 
REMARK  11 active torsions:
REMARK  status: ('A' for Active; 'I' for Inactive)
REMARK    1  A    between atoms: C_1  and  O_2
REMARK    2  A    between atoms: O_2  and  C_3
REMARK    3  A    between atoms: C_5  and  O_6
REMARK    4  A    between atoms: O_6  and  C_7
REMARK    5  A    between atoms: C_9  and  N_10
REMARK    6  A    between atoms: N_10  and  C_11
REMARK    7  A    between atoms: N_10  and  C_15
REMARK    8  A    between atoms: C_11  and  C_12
REMARK    9  A    between atoms: C_21  and  C_22
REMARK   10  A    between atoms: N_25  and  C_26
REMARK   11  A    between atoms: C_26  and  C_27
REMARK                            x       y       z     vdW  Elec       q    Type
REMARK                         _______ _______ _______ _____ _____    ______ ____
ROOT
ATOM      1  C   UNL     1       2.523   5.960  18.695  0.00  0.00    +0.000 A 
ATOM      2  C   UNL     1       2.118   5.626  19.994  0.00  0.00    +0.000 A 
ATOM      3  C   UNL     1       1.633   6.591  20.873  0.00  0.00    +0.000 A 
ATOM      4  C   UNL     1       1.494   7.905  20.485  0.00  0.00    +0.000 A 
ATOM      5  N   UNL     1       1.132   8.793  21.421  0.00  0.00    +0.000 NA
ATOM      6  C   UNL     1       0.974  10.067  21.004  0.00  0.00    +0.000 A 
ATOM      7  C   UNL     1       1.109  10.455  19.679  0.00  0.00    +0.000 A 
ATOM      8  N   UNL     1       1.509   9.558  18.731  0.00  0.00    +0.000 NA
ATOM      9  C   UNL     1       1.741   8.275  19.141  0.00  0.00    +0.000 A 
ATOM     10  C   UNL     1       2.254   7.285  18.278  0.00  0.00    +0.000 A 
ENDROOT
BRANCH   7  11
ATOM     11  C   UNL     1       0.742  11.808  19.279  0.00  0.00    +0.000 A 
ATOM     12  C   UNL     1      -0.425  12.290  18.629  0.00  0.00    +0.000 A 
ATOM     13  N   UNL     1      -0.363  13.587  18.324  0.00  0.00    +0.000 NA
ATOM     14  N   UNL     1       0.841  13.965  18.790  0.00  0.00    +0.000 N 
ATOM     15  C   UNL     1       1.518  12.940  19.404  0.00  0.00    +0.000 A 
BRANCH  14  16
ATOM     16  C   UNL     1       1.222  15.370  18.718  0.00  0.00    +0.000 C 
BRANCH  16  17
ATOM     17  C   UNL     1       1.194  16.140  20.055  0.00  0.00    +0.000 C 
ATOM     18  C   UNL     1      -0.193  16.220  20.709  0.00  0.00    +0.000 C 
ATOM     19  C   UNL     1      -1.168  17.059  19.884  0.00  0.00    +0.000 C 
ATOM     20  N   UNL     1      -0.669  18.400  19.579  0.00  0.00    +0.000 NA
ATOM     21  C   UNL     1       0.690  18.424  19.043  0.00  0.00    +0.000 C 
ATOM     22  C   UNL     1       1.678  17.596  19.868  0.00  0.00    +0.000 C 
ATOM     23  H   UNL     1      -0.714  18.978  20.418  0.00  0.00    +0.000 HD
ENDBRANCH  16  17
ENDBRANCH  14  16
ENDBRANCH   7  11
BRANCH   1  24
ATOM     24  N   UNL     1       3.248   5.033  17.877  0.00  0.00    +0.000 N 
BRANCH  24  29
ATOM     25  C   UNL     1       6.835   6.124  17.549  0.00  0.00    +0.000 A 
ATOM     26  C   UNL     1       7.206   5.492  16.368  0.00  0.00    +0.000 A 
ATOM     27  C   UNL     1       6.315   4.657  15.702  0.00  0.00    +0.000 A 
ATOM     28  C   UNL     1       5.054   4.436  16.260  0.00  0.00    +0.000 A 
ATOM     29  C   UNL     1       4.596   5.132  17.409  0.00  0.00    +0.000 A 
ATOM     30  C   UNL     1       5.526   5.976  18.036  0.00  0.00    +0.000 A 
BRANCH  25  32
ATOM     31  C   UNL     1       7.885   8.246  17.705  0.00  0.00    +0.000 C 
ATOM     32  O   UNL     1       7.814   6.888  18.125  0.00  0.00    +0.000 OA
ENDBRANCH  25  32
BRANCH  27  33
ATOM     33  O   UNL     1       6.791   4.137  14.531  0.00  0.00    +0.000 OA
ATOM     34  C   UNL     1       5.875   3.822  13.490  0.00  0.00    +0.000 C 
ENDBRANCH  27  33
ENDBRANCH  24  29
BRANCH  24  35
ATOM     35  C   UNL     1       2.425   3.939  17.291  0.00  0.00    +0.000 C 
BRANCH  35  36
ATOM     36  C   UNL     1       2.621   2.571  17.900  0.00  0.00    +0.000 C 
ATOM     37  C   UNL     1       3.315   2.369  19.227  0.00  0.00    +0.000 C 
ATOM     38  C   UNL     1       1.866   2.004  19.081  0.00  0.00    +0.000 C 
ENDBRANCH  35  36
ENDBRANCH  24  35
ENDBRANCH   1  24
TORSDOF 9
ENDMDL
MODEL 6
REMARK VINA RESULT:      -8.1      3.727      4.828
REMARK  Name = 
REMARK  11 active torsions:
REMARK  status: ('A' for Active; 'I' for Inactive)
REMARK    1  A    between atoms: C_1  and  O_2
REMARK    2  A    between atoms: O_2  and  C_3
REMARK    3  A    between atoms: C_5  and  O_6
REMARK    4  A    between atoms: O_6  and  C_7
REMARK    5  A    between atoms: C_9  and  N_10
REMARK    6  A    between atoms: N_10  and  C_11
REMARK    7  A    between atoms: N_10  and  C_15
REMARK    8  A    between atoms: C_11  and  C_12
REMARK    9  A    between atoms: C_21  and  C_22
REMARK   10  A    between atoms: N_25  and  C_26
REMARK   11  A    between atoms: C_26  and  C_27
REMARK                            x       y       z     vdW  Elec       q    Type
REMARK                         _______ _______ _______ _____ _____    ______ ____
ROOT
ATOM      1  C   UNL     1       2.534   5.756  18.691  0.00  0.00    +0.000 A 
ATOM      2  C   UNL     1       2.165   5.376  19.989  0.00  0.00    +0.000 A 
ATOM      3  C   UNL     1       1.672   6.304  20.904  0.00  0.00    +0.000 A 
ATOM      4  C   UNL     1       1.488   7.623  20.554  0.00  0.00    +0.000 A 
ATOM      5  N   UNL     1       1.120   8.474  21.521  0.00  0.00    +0.000 NA
ATOM      6  C   UNL     1       0.918   9.754  21.142  0.00  0.00    +0.000 A 
ATOM      7  C   UNL     1       1.015  10.182  19.826  0.00  0.00    +0.000 A 
ATOM      8  N   UNL     1       1.420   9.321  18.846  0.00  0.00    +0.000 NA
ATOM      9  C   UNL     1       1.697   8.035  19.216  0.00  0.00    +0.000 A 
ATOM     10  C   UNL     1       2.220   7.084  18.317  0.00  0.00    +0.000 A 
ENDROOT
BRANCH   7  11
ATOM     11  C   UNL     1       0.602  11.533  19.470  0.00  0.00    +0.000 A 
ATOM     12  C   UNL     1      -0.400  11.981  18.568  0.00  0.00    +0.000 A 
ATOM     13  N   UNL     1      -0.422  13.307  18.418  0.00  0.00    +0.000 NA
ATOM     14  N   UNL     1       0.556  13.734  19.237  0.00  0.00    +0.000 N 
ATOM     15  C   UNL     1       1.167  12.708  19.915  0.00  0.00    +0.000 A 
BRANCH  14  16
ATOM     16  C   UNL     1       0.763  15.167  19.410  0.00  0.00    +0.000 C 
BRANCH  16  17
ATOM     17  C   UNL     1       1.829  15.804  18.493  0.00  0.00    +0.000 C 
ATOM     18  C   UNL     1       3.246  15.816  19.086  0.00  0.00    +0.000 C 
ATOM     19  C   UNL     1       3.349  16.727  20.308  0.00  0.00    +0.000 C 
ATOM     20  N   UNL     1       2.889  18.094  20.057  0.00  0.00    +0.000 NA
ATOM     21  C   UNL     1       1.586  18.173  19.400  0.00  0.00    +0.000 C 
ATOM     22  C   UNL     1       1.476  17.273  18.168  0.00  0.00    +0.000 C 
ATOM     23  H   UNL     1       3.582  18.588  19.496  0.00  0.00    +0.000 HD
ENDBRANCH  16  17
ENDBRANCH  14  16
ENDBRANCH   7  11
BRANCH   1  24
ATOM     24  N   UNL     1       3.267   4.873  17.834  0.00  0.00    +0.000 N 
BRANCH  24  29
ATOM     25  C   UNL     1       6.936   5.709  17.717  0.00  0.00    +0.000 A 
ATOM     26  C   UNL     1       7.225   5.479  16.377  0.00  0.00    +0.000 A 
ATOM     27  C   UNL     1       6.249   4.993  15.516  0.00  0.00    +0.000 A 
ATOM     28  C   UNL     1       4.982   4.703  16.027  0.00  0.00    +0.000 A 
ATOM     29  C   UNL     1       4.611   5.010  17.362  0.00  0.00    +0.000 A 
ATOM     30  C   UNL     1       5.627   5.516  18.190  0.00  0.00    +0.000 A 
BRANCH  25  32
ATOM     31  C   UNL     1       8.017   5.742  19.829  0.00  0.00    +0.000 C 
ATOM     32  O   UNL     1       7.992   6.153  18.467  0.00  0.00    +0.000 OA
ENDBRANCH  25  32
BRANCH  27  33
ATOM     33  O   UNL     1       6.655   4.856  14.217  0.00  0.00    +0.000 OA
ATOM     34  C   UNL     1       6.110   3.806  13.429  0.00  0.00    +0.000 C 
ENDBRANCH  27  33
ENDBRANCH  24  29
BRANCH  24  35
ATOM     35  C   UNL     1       2.458   3.790  17.211  0.00  0.00    +0.000 C 
BRANCH  35  36
ATOM     36  C   UNL     1       2.624   2.415  17.814  0.00  0.00    +0.000 C 
ATOM     37  C   UNL     1       3.425   2.177  19.073  0.00  0.00    +0.000 C 
ATOM     38  C   UNL     1       1.948   1.903  19.066  0.00  0.00    +0.000 C 
ENDBRANCH  35  36
ENDBRANCH  24  35
ENDBRANCH   1  24
TORSDOF 9
ENDMDL
MODEL 7
REMARK VINA RESULT:      -8.1      0.993      1.379
REMARK  Name = 
REMARK  11 active torsions:
REMARK  status: ('A' for Active; 'I' for Inactive)
REMARK    1  A    between atoms: C_1  and  O_2
REMARK    2  A    between atoms: O_2  and  C_3
REMARK    3  A    between atoms: C_5  and  O_6
REMARK    4  A    between atoms: O_6  and  C_7
REMARK    5  A    between atoms: C_9  and  N_10
REMARK    6  A    between atoms: N_10  and  C_11
REMARK    7  A    between atoms: N_10  and  C_15
REMARK    8  A    between atoms: C_11  and  C_12
REMARK    9  A    between atoms: C_21  and  C_22
REMARK   10  A    between atoms: N_25  and  C_26
REMARK   11  A    between atoms: C_26  and  C_27
REMARK                            x       y       z     vdW  Elec       q    Type
REMARK                         _______ _______ _______ _____ _____    ______ ____
ROOT
ATOM      1  C   UNL     1       2.585   7.092  18.763  0.00  0.00    +0.000 A 
ATOM      2  C   UNL     1       2.822   7.918  17.656  0.00  0.00    +0.000 A 
ATOM      3  C   UNL     1       2.234   9.176  17.550  0.00  0.00    +0.000 A 
ATOM      4  C   UNL     1       1.430   9.674  18.551  0.00  0.00    +0.000 A 
ATOM      5  N   UNL     1       0.810  10.840  18.325  0.00  0.00    +0.000 NA
ATOM      6  C   UNL     1       0.053  11.318  19.335  0.00  0.00    +0.000 A 
ATOM      7  C   UNL     1      -0.047  10.695  20.570  0.00  0.00    +0.000 A 
ATOM      8  N   UNL     1       0.560   9.492  20.790  0.00  0.00    +0.000 NA
ATOM      9  C   UNL     1       1.277   8.953  19.760  0.00  0.00    +0.000 A 
ATOM     10  C   UNL     1       1.861   7.672  19.831  0.00  0.00    +0.000 A 
ENDROOT
BRANCH   7  11
ATOM     11  C   UNL     1      -0.731  11.366  21.668  0.00  0.00    +0.000 A 
ATOM     12  C   UNL     1      -1.190  10.860  22.913  0.00  0.00    +0.000 A 
ATOM     13  N   UNL     1      -1.875  11.755  23.628  0.00  0.00    +0.000 NA
ATOM     14  N   UNL     1      -1.851  12.859  22.860  0.00  0.00    +0.000 N 
ATOM     15  C   UNL     1      -1.143  12.681  21.697  0.00  0.00    +0.000 A 
BRANCH  14  16
ATOM     16  C   UNL     1      -2.430  14.094  23.373  0.00  0.00    +0.000 C 
BRANCH  16  17
ATOM     17  C   UNL     1      -3.295  13.951  24.643  0.00  0.00    +0.000 C 
ATOM     18  C   UNL     1      -4.793  13.750  24.368  0.00  0.00    +0.000 C 
ATOM     19  C   UNL     1      -5.430  14.986  23.735  0.00  0.00    +0.000 C 
ATOM     20  N   UNL     1      -5.212  16.213  24.503  0.00  0.00    +0.000 NA
ATOM     21  C   UNL     1      -3.821  16.431  24.895  0.00  0.00    +0.000 C 
ATOM     22  C   UNL     1      -3.176  15.203  25.540  0.00  0.00    +0.000 C 
ATOM     23  H   UNL     1      -5.802  16.202  25.334  0.00  0.00    +0.000 HD
ENDBRANCH  16  17
ENDBRANCH  14  16
ENDBRANCH   7  11
BRANCH   1  24
ATOM     24  N   UNL     1       2.978   5.714  18.765  0.00  0.00    +0.000 N 
BRANCH  24  29
ATOM     25  C   UNL     1       6.612   4.775  18.471  0.00  0.00    +0.000 A 
ATOM     26  C   UNL     1       6.640   4.184  17.213  0.00  0.00    +0.000 A 
ATOM     27  C   UNL     1       5.471   4.031  16.477  0.00  0.00    +0.000 A 
ATOM     28  C   UNL     1       4.262   4.446  17.039  0.00  0.00    +0.000 A 
ATOM     29  C   UNL     1       4.194   5.140  18.275  0.00  0.00    +0.000 A 
ATOM     30  C   UNL     1       5.404   5.285  18.973  0.00  0.00    +0.000 A 
BRANCH  25  32
ATOM     31  C   UNL     1       8.234   6.116  19.566  0.00  0.00    +0.000 C 
ATOM     32  O   UNL     1       7.823   4.834  19.107  0.00  0.00    +0.000 OA
ENDBRANCH  25  32
BRANCH  27  33
ATOM     33  O   UNL     1       5.648   3.477  15.239  0.00  0.00    +0.000 OA
ATOM     34  C   UNL     1       6.159   4.285  14.187  0.00  0.00    +0.000 C 
ENDBRANCH  27  33
ENDBRANCH  24  29
BRANCH  24  35
ATOM     35  C   UNL     1       1.903   4.757  19.144  0.00  0.00    +0.000 C 
BRANCH  35  36
ATOM     36  C   UNL     1       2.005   4.171  20.533  0.00  0.00    +0.000 C 
ATOM     37  C   UNL     1       1.289   2.900  20.928  0.00  0.00    +0.000 C 
ATOM     38  C   UNL     1       2.791   2.940  20.925  0.00  0.00    +0.000 C 
ENDBRANCH  35  36
ENDBRANCH  24  35
ENDBRANCH   1  24
TORSDOF 9
ENDMDL
MODEL 8
REMARK VINA RESULT:      -8.0      3.512      4.720
REMARK  Name = 
REMARK  11 active torsions:
REMARK  status: ('A' for Active; 'I' for Inactive)
REMARK    1  A    between atoms: C_1  and  O_2
REMARK    2  A    between atoms: O_2  and  C_3
REMARK    3  A    between atoms: C_5  and  O_6
REMARK    4  A    between atoms: O_6  and  C_7
REMARK    5  A    between atoms: C_9  and  N_10
REMARK    6  A    between atoms: N_10  and  C_11
REMARK    7  A    between atoms: N_10  and  C_15
REMARK    8  A    between atoms: C_11  and  C_12
REMARK    9  A    between atoms: C_21  and  C_22
REMARK   10  A    between atoms: N_25  and  C_26
REMARK   11  A    between atoms: C_26  and  C_27
REMARK                            x       y       z     vdW  Elec       q    Type
REMARK                         _______ _______ _______ _____ _____    ______ ____
ROOT
ATOM      1  C   UNL     1       2.558   5.994  18.614  0.00  0.00    +0.000 A 
ATOM      2  C   UNL     1       2.175   5.635  19.913  0.00  0.00    +0.000 A 
ATOM      3  C   UNL     1       1.681   6.578  20.811  0.00  0.00    +0.000 A 
ATOM      4  C   UNL     1       1.512   7.894  20.442  0.00  0.00    +0.000 A 
ATOM      5  N   UNL     1       1.143   8.762  21.394  0.00  0.00    +0.000 NA
ATOM      6  C   UNL     1       0.955  10.038  20.996  0.00  0.00    +0.000 A 
ATOM      7  C   UNL     1       1.068  10.447  19.675  0.00  0.00    +0.000 A 
ATOM      8  N   UNL     1       1.474   9.570  18.711  0.00  0.00    +0.000 NA
ATOM      9  C   UNL     1       1.736   8.286  19.100  0.00  0.00    +0.000 A 
ATOM     10  C   UNL     1       2.259   7.319  18.219  0.00  0.00    +0.000 A 
ENDROOT
BRANCH   7  11
ATOM     11  C   UNL     1       0.669  11.797  19.297  0.00  0.00    +0.000 A 
ATOM     12  C   UNL     1      -0.486  12.257  18.612  0.00  0.00    +0.000 A 
ATOM     13  N   UNL     1      -0.458  13.564  18.346  0.00  0.00    +0.000 NA
ATOM     14  N   UNL     1       0.711  13.970  18.873  0.00  0.00    +0.000 N 
ATOM     15  C   UNL     1       1.398  12.951  19.487  0.00  0.00    +0.000 A 
BRANCH  14  16
ATOM     16  C   UNL     1       1.044  15.388  18.857  0.00  0.00    +0.000 C 
BRANCH  16  17
ATOM     17  C   UNL     1       1.527  15.978  20.200  0.00  0.00    +0.000 C 
ATOM     18  C   UNL     1       0.414  16.172  21.240  0.00  0.00    +0.000 C 
ATOM     19  C   UNL     1      -0.591  17.241  20.812  0.00  0.00    +0.000 C 
ATOM     20  N   UNL     1       0.030  18.525  20.482  0.00  0.00    +0.000 NA
ATOM     21  C   UNL     1       1.167  18.420  19.570  0.00  0.00    +0.000 C 
ATOM     22  C   UNL     1       2.185  17.360  19.996  0.00  0.00    +0.000 C 
ATOM     23  H   UNL     1       0.323  18.991  21.339  0.00  0.00    +0.000 HD
ENDBRANCH  16  17
ENDBRANCH  14  16
ENDBRANCH   7  11
BRANCH   1  24
ATOM     24  N   UNL     1       3.292   5.093  17.775  0.00  0.00    +0.000 N 
BRANCH  24  29
ATOM     25  C   UNL     1       6.309   4.649  15.570  0.00  0.00    +0.000 A 
ATOM     26  C   UNL     1       7.233   5.473  16.202  0.00  0.00    +0.000 A 
ATOM     27  C   UNL     1       6.866   6.226  17.311  0.00  0.00    +0.000 A 
ATOM     28  C   UNL     1       5.544   6.169  17.757  0.00  0.00    +0.000 A 
ATOM     29  C   UNL     1       4.592   5.273  17.207  0.00  0.00    +0.000 A 
ATOM     30  C   UNL     1       5.015   4.520  16.098  0.00  0.00    +0.000 A 
BRANCH  25  32
ATOM     31  C   UNL     1       5.856   3.768  13.414  0.00  0.00    +0.000 C 
ATOM     32  O   UNL     1       6.785   3.989  14.468  0.00  0.00    +0.000 OA
ENDBRANCH  25  32
BRANCH  27  33
ATOM     33  O   UNL     1       7.882   6.957  17.862  0.00  0.00    +0.000 OA
ATOM     34  C   UNL     1       7.876   8.371  17.716  0.00  0.00    +0.000 C 
ENDBRANCH  27  33
ENDBRANCH  24  29
BRANCH  24  35
ATOM     35  C   UNL     1       2.515   3.920  17.287  0.00  0.00    +0.000 C 
BRANCH  35  36
ATOM     36  C   UNL     1       2.874   2.590  17.906  0.00  0.00    +0.000 C 
ATOM     37  C   UNL     1       3.633   2.484  19.208  0.00  0.00    +0.000 C 
ATOM     38  C   UNL     1       2.225   1.968  19.122  0.00  0.00    +0.000 C 
ENDBRANCH  35  36
ENDBRANCH  24  35
ENDBRANCH   1  24
TORSDOF 9
ENDMDL
MODEL 9
REMARK VINA RESULT:      -7.9      3.452      4.268
REMARK  Name = 
REMARK  11 active torsions:
REMARK  status: ('A' for Active; 'I' for Inactive)
REMARK    1  A    between atoms: C_1  and  O_2
REMARK    2  A    between atoms: O_2  and  C_3
REMARK    3  A    between atoms: C_5  and  O_6
REMARK    4  A    between atoms: O_6  and  C_7
REMARK    5  A    between atoms: C_9  and  N_10
REMARK    6  A    between atoms: N_10  and  C_11
REMARK    7  A    between atoms: N_10  and  C_15
REMARK    8  A    between atoms: C_11  and  C_12
REMARK    9  A    between atoms: C_21  and  C_22
REMARK   10  A    between atoms: N_25  and  C_26
REMARK   11  A    between atoms: C_26  and  C_27
REMARK                            x       y       z     vdW  Elec       q    Type
REMARK                         _______ _______ _______ _____ _____    ______ ____
ROOT
ATOM      1  C   UNL     1       2.591   5.897  18.713  0.00  0.00    +0.000 A 
ATOM      2  C   UNL     1       2.169   5.554  20.004  0.00  0.00    +0.000 A 
ATOM      3  C   UNL     1       1.644   6.507  20.874  0.00  0.00    +0.000 A 
ATOM      4  C   UNL     1       1.481   7.817  20.482  0.00  0.00    +0.000 A 
ATOM      5  N   UNL     1       1.079   8.696  21.410  0.00  0.00    +0.000 NA
ATOM      6  C   UNL     1       0.898   9.966  20.990  0.00  0.00    +0.000 A 
ATOM      7  C   UNL     1       1.049  10.357  19.668  0.00  0.00    +0.000 A 
ATOM      8  N   UNL     1       1.489   9.469  18.728  0.00  0.00    +0.000 NA
ATOM      9  C   UNL     1       1.744   8.192  19.143  0.00  0.00    +0.000 A 
ATOM     10  C   UNL     1       2.298   7.215  18.291  0.00  0.00    +0.000 A 
ENDROOT
BRANCH   7  11
ATOM     11  C   UNL     1       0.657  11.700  19.259  0.00  0.00    +0.000 A 
ATOM     12  C   UNL     1      -0.489  12.148  18.552  0.00  0.00    +0.000 A 
ATOM     13  N   UNL     1      -0.457  13.450  18.261  0.00  0.00    +0.000 NA
ATOM     14  N   UNL     1       0.706  13.864  18.796  0.00  0.00    +0.000 N 
ATOM     15  C   UNL     1       1.384  12.857  19.437  0.00  0.00    +0.000 A 
BRANCH  14  16
ATOM     16  C   UNL     1       1.041  15.282  18.757  0.00  0.00    +0.000 C 
BRANCH  16  17
ATOM     17  C   UNL     1      -0.091  16.249  19.168  0.00  0.00    +0.000 C 
ATOM     18  C   UNL     1       0.215  17.729  18.897  0.00  0.00    +0.000 C 
ATOM     19  C   UNL     1       1.356  18.249  19.771  0.00  0.00    +0.000 C 
ATOM     20  N   UNL     1       1.143  18.024  21.201  0.00  0.00    +0.000 NA
ATOM     21  C   UNL     1       0.750  16.658  21.539  0.00  0.00    +0.000 C 
ATOM     22  C   UNL     1      -0.400  16.132  20.677  0.00  0.00    +0.000 C 
ATOM     23  H   UNL     1       0.439  18.676  21.546  0.00  0.00    +0.000 HD
ENDBRANCH  16  17
ENDBRANCH  14  16
ENDBRANCH   7  11
BRANCH   1  24
ATOM     24  N   UNL     1       3.354   4.988  17.909  0.00  0.00    +0.000 N 
BRANCH  24  29
ATOM     25  C   UNL     1       6.904   6.193  17.577  0.00  0.00    +0.000 A 
ATOM     26  C   UNL     1       7.281   5.605  16.375  0.00  0.00    +0.000 A 
ATOM     27  C   UNL     1       6.407   4.764  15.695  0.00  0.00    +0.000 A 
ATOM     28  C   UNL     1       5.159   4.491  16.258  0.00  0.00    +0.000 A 
ATOM     29  C   UNL     1       4.693   5.140  17.431  0.00  0.00    +0.000 A 
ATOM     30  C   UNL     1       5.606   5.993  18.073  0.00  0.00    +0.000 A 
BRANCH  25  32
ATOM     31  C   UNL     1       7.920   8.330  17.754  0.00  0.00    +0.000 C 
ATOM     32  O   UNL     1       7.867   6.969  18.165  0.00  0.00    +0.000 OA
ENDBRANCH  25  32
BRANCH  27  33
ATOM     33  O   UNL     1       6.886   4.291  14.505  0.00  0.00    +0.000 OA
ATOM     34  C   UNL     1       5.966   3.847  13.516  0.00  0.00    +0.000 C 
ENDBRANCH  27  33
ENDBRANCH  24  29
BRANCH  24  35
ATOM     35  C   UNL     1       2.579   3.846  17.350  0.00  0.00    +0.000 C 
BRANCH  35  36
ATOM     36  C   UNL     1       2.537   2.601  18.204  0.00  0.00    +0.000 C 
ATOM     37  C   UNL     1       3.567   1.502  18.083  0.00  0.00    +0.000 C 
ATOM     38  C   UNL     1       3.456   2.282  19.362  0.00  0.00    +0.000 C 
ENDBRANCH  35  36
ENDBRANCH  24  35
ENDBRANCH   1  24
TORSDOF 9
ENDMDL
