MODEL 1
REMARK VINA RESULT:      -8.1      0.000      0.000
REMARK  Name = 
REMARK  3 active torsions:
REMARK  status: ('A' for Active; 'I' for Inactive)
REMARK    1  A    between atoms: N_2  and  C_4
REMARK    2  A    between atoms: C_8  and  C_9
REMARK    3  A    between atoms: N_11  and  C_12
REMARK                            x       y       z     vdW  Elec       q    Type
REMARK                         _______ _______ _______ _____ _____    ______ ____
ROOT
ATOM      1  C   UNL     1       6.011   4.346  16.340  0.00  0.00    +0.000 A 
ATOM      2  C   UNL     1       4.744   4.238  16.860  0.00  0.00    +0.000 A 
ATOM      3  N   UNL     1       4.918   4.244  18.222  0.00  0.00    +0.000 N 
ATOM      4  N   UNL     1       6.236   4.403  18.506  0.00  0.00    +0.000 NA
ATOM      5  N   UNL     1       6.908   4.466  17.361  0.00  0.00    +0.000 NA
ENDROOT
BRANCH   1  10
ATOM      6  C   UNL     1       5.959   3.552  12.670  0.00  0.00    +0.000 A 
ATOM      7  C   UNL     1       7.028   4.325  12.201  0.00  0.00    +0.000 A 
ATOM      8  C   UNL     1       7.758   5.102  13.102  0.00  0.00    +0.000 A 
ATOM      9  C   UNL     1       7.425   5.102  14.461  0.00  0.00    +0.000 A 
ATOM     10  C   UNL     1       6.350   4.337  14.932  0.00  0.00    +0.000 A 
ATOM     11  C   UNL     1       5.616   3.558  14.027  0.00  0.00    +0.000 A 
BRANCH   6  13
ATOM     12  O   UNL     1       4.088   3.149  11.358  0.00  0.00    +0.000 OA
ATOM     13  N   UNL     1       5.189   2.724  11.736  0.00  0.00    +0.000 N 
ATOM     14  O   UNL     1       5.685   1.642  11.382  0.00  0.00    +0.000 OA
ENDBRANCH   6  13
ENDBRANCH   1  10
BRANCH   3  15
ATOM     15  C   UNL     1       3.931   4.099  19.230  0.00  0.00    +0.000 A 
ATOM     16  C   UNL     1       3.774   2.877  19.904  0.00  0.00    +0.000 A 
ATOM     17  C   UNL     1       2.810   2.749  20.905  0.00  0.00    +0.000 A 
ATOM     18  C   UNL     1       1.998   3.830  21.236  0.00  0.00    +0.000 A 
ATOM     19  C   UNL     1       2.148   5.045  20.568  0.00  0.00    +0.000 A 
ATOM     20  C   UNL     1       3.112   5.184  19.567  0.00  0.00    +0.000 A 
ENDBRANCH   3  15
TORSDOF 3
ENDMDL
MODEL 2
REMARK VINA RESULT:      -8.0      0.093      1.085
REMARK  Name = 
REMARK  3 active torsions:
REMARK  status: ('A' for Active; 'I' for Inactive)
REMARK    1  A    between atoms: N_2  and  C_4
REMARK    2  A    between atoms: C_8  and  C_9
REMARK    3  A    between atoms: N_11  and  C_12
REMARK                            x       y       z     vdW  Elec       q    Type
REMARK                         _______ _______ _______ _____ _____    ______ ____
ROOT
ATOM      1  C   UNL     1       6.072   4.364  16.273  0.00  0.00    +0.000 A 
ATOM      2  C   UNL     1       4.811   4.250  16.808  0.00  0.00    +0.000 A 
ATOM      3  N   UNL     1       5.001   4.272  18.168  0.00  0.00    +0.000 N 
ATOM      4  N   UNL     1       6.321   4.443  18.435  0.00  0.00    +0.000 NA
ATOM      5  N   UNL     1       6.979   4.501  17.283  0.00  0.00    +0.000 NA
ENDROOT
BRANCH   1  10
ATOM      6  C   UNL     1       5.983   3.534  12.611  0.00  0.00    +0.000 A 
ATOM      7  C   UNL     1       7.042   4.309  12.123  0.00  0.00    +0.000 A 
ATOM      8  C   UNL     1       7.777   5.099  13.008  0.00  0.00    +0.000 A 
ATOM      9  C   UNL     1       7.459   5.110  14.370  0.00  0.00    +0.000 A 
ATOM     10  C   UNL     1       6.395   4.343  14.861  0.00  0.00    +0.000 A 
ATOM     11  C   UNL     1       5.656   3.550  13.972  0.00  0.00    +0.000 A 
BRANCH   6  13
ATOM     12  O   UNL     1       4.106   3.113  11.314  0.00  0.00    +0.000 OA
ATOM     13  N   UNL     1       5.208   2.692  11.695  0.00  0.00    +0.000 N 
ATOM     14  O   UNL     1       5.701   1.604  11.355  0.00  0.00    +0.000 OA
ENDBRANCH   6  13
ENDBRANCH   1  10
BRANCH   3  15
ATOM     15  C   UNL     1       4.026   4.129  19.188  0.00  0.00    +0.000 A 
ATOM     16  C   UNL     1       3.205   5.209  19.547  0.00  0.00    +0.000 A 
ATOM     17  C   UNL     1       2.238   5.053  20.542  0.00  0.00    +0.000 A 
ATOM     18  C   UNL     1       2.087   3.827  21.184  0.00  0.00    +0.000 A 
ATOM     19  C   UNL     1       2.902   2.751  20.833  0.00  0.00    +0.000 A 
ATOM     20  C   UNL     1       3.870   2.897  19.837  0.00  0.00    +0.000 A 
ENDBRANCH   3  15
TORSDOF 3
ENDMDL
MODEL 3
REMARK VINA RESULT:      -7.9      1.094      1.364
REMARK  Name = 
REMARK  3 active torsions:
REMARK  status: ('A' for Active; 'I' for Inactive)
REMARK    1  A    between atoms: N_2  and  C_4
REMARK    2  A    between atoms: C_8  and  C_9
REMARK    3  A    between atoms: N_11  and  C_12
REMARK                            x       y       z     vdW  Elec       q    Type
REMARK                         _______ _______ _______ _____ _____    ______ ____
ROOT
ATOM      1  C   UNL     1       5.190   4.888  15.979  0.00  0.00    +0.000 A 
ATOM      2  C   UNL     1       4.153   4.172  16.527  0.00  0.00    +0.000 A 
ATOM      3  N   UNL     1       3.915   4.768  17.742  0.00  0.00    +0.000 N 
ATOM      4  N   UNL     1       4.745   5.832  17.891  0.00  0.00    +0.000 NA
ATOM      5  N   UNL     1       5.524   5.911  16.818  0.00  0.00    +0.000 NA
ENDROOT
BRANCH   1  10
ATOM      6  C   UNL     1       5.857   3.491  12.558  0.00  0.00    +0.000 A 
ATOM      7  C   UNL     1       7.095   4.071  12.255  0.00  0.00    +0.000 A 
ATOM      8  C   UNL     1       7.700   4.918  13.185  0.00  0.00    +0.000 A 
ATOM      9  C   UNL     1       7.074   5.179  14.408  0.00  0.00    +0.000 A 
ATOM     10  C   UNL     1       5.831   4.609  14.711  0.00  0.00    +0.000 A 
ATOM     11  C   UNL     1       5.223   3.759  13.776  0.00  0.00    +0.000 A 
BRANCH   6  13
ATOM     12  O   UNL     1       5.809   1.546  11.293  0.00  0.00    +0.000 OA
ATOM     13  N   UNL     1       5.215   2.592  11.595  0.00  0.00    +0.000 N 
ATOM     14  O   UNL     1       4.113   2.932  11.134  0.00  0.00    +0.000 OA
ENDBRANCH   6  13
ENDBRANCH   1  10
BRANCH   3  15
ATOM     15  C   UNL     1       2.982   4.381  18.737  0.00  0.00    +0.000 A 
ATOM     16  C   UNL     1       1.939   3.493  18.430  0.00  0.00    +0.000 A 
ATOM     17  C   UNL     1       1.034   3.106  19.420  0.00  0.00    +0.000 A 
ATOM     18  C   UNL     1       1.161   3.601  20.715  0.00  0.00    +0.000 A 
ATOM     19  C   UNL     1       2.194   4.486  21.025  0.00  0.00    +0.000 A 
ATOM     20  C   UNL     1       3.105   4.876  20.042  0.00  0.00    +0.000 A 
ENDBRANCH   3  15
TORSDOF 3
ENDMDL
MODEL 4
REMARK VINA RESULT:      -7.9      4.492      6.115
REMARK  Name = 
REMARK  3 active torsions:
REMARK  status: ('A' for Active; 'I' for Inactive)
REMARK    1  A    between atoms: N_2  and  C_4
REMARK    2  A    between atoms: C_8  and  C_9
REMARK    3  A    between atoms: N_11  and  C_12
REMARK                            x       y       z     vdW  Elec       q    Type
REMARK                         _______ _______ _______ _____ _____    ______ ____
ROOT
ATOM      1  C   UNL     1       2.769   7.388  18.244  0.00  0.00    +0.000 A 
ATOM      2  C   UNL     1       2.167   7.501  19.474  0.00  0.00    +0.000 A 
ATOM      3  N   UNL     1       1.569   8.738  19.463  0.00  0.00    +0.000 N 
ATOM      4  N   UNL     1       1.763   9.320  18.252  0.00  0.00    +0.000 NA
ATOM      5  N   UNL     1       2.494   8.500  17.504  0.00  0.00    +0.000 NA
ENDROOT
BRANCH   1  10
ATOM      6  C   UNL     1       5.680   5.351  17.027  0.00  0.00    +0.000 A 
ATOM      7  C   UNL     1       5.106   4.079  16.919  0.00  0.00    +0.000 A 
ATOM      8  C   UNL     1       3.761   3.904  17.248  0.00  0.00    +0.000 A 
ATOM      9  C   UNL     1       2.996   4.994  17.678  0.00  0.00    +0.000 A 
ATOM     10  C   UNL     1       3.569   6.267  17.796  0.00  0.00    +0.000 A 
ATOM     11  C   UNL     1       4.920   6.442  17.466  0.00  0.00    +0.000 A 
BRANCH   6  13
ATOM     12  O   UNL     1       7.802   4.545  16.547  0.00  0.00    +0.000 OA
ATOM     13  N   UNL     1       7.089   5.551  16.675  0.00  0.00    +0.000 N 
ATOM     14  O   UNL     1       7.487   6.718  16.528  0.00  0.00    +0.000 OA
ENDBRANCH   6  13
ENDBRANCH   1  10
BRANCH   3  15
ATOM     15  C   UNL     1       0.860   9.375  20.513  0.00  0.00    +0.000 A 
ATOM     16  C   UNL     1       0.659  10.764  20.497  0.00  0.00    +0.000 A 
ATOM     17  C   UNL     1      -0.054  11.380  21.528  0.00  0.00    +0.000 A 
ATOM     18  C   UNL     1      -0.564  10.619  22.576  0.00  0.00    +0.000 A 
ATOM     19  C   UNL     1      -0.365   9.239  22.597  0.00  0.00    +0.000 A 
ATOM     20  C   UNL     1       0.343   8.614  21.569  0.00  0.00    +0.000 A 
ENDBRANCH   3  15
TORSDOF 3
ENDMDL
MODEL 5
REMARK VINA RESULT:      -7.9      4.486      6.027
REMARK  Name = 
REMARK  3 active torsions:
REMARK  status: ('A' for Active; 'I' for Inactive)
REMARK    1  A    between atoms: N_2  and  C_4
REMARK    2  A    between atoms: C_8  and  C_9
REMARK    3  A    between atoms: N_11  and  C_12
REMARK                            x       y       z     vdW  Elec       q    Type
REMARK                         _______ _______ _______ _____ _____    ______ ____
ROOT
ATOM      1  C   UNL     1       2.784   7.365  18.237  0.00  0.00    +0.000 A 
ATOM      2  C   UNL     1       2.175   7.484  19.463  0.00  0.00    +0.000 A 
ATOM      3  N   UNL     1       1.585   8.725  19.447  0.00  0.00    +0.000 N 
ATOM      4  N   UNL     1       1.790   9.303  18.237  0.00  0.00    +0.000 NA
ATOM      5  N   UNL     1       2.520   8.479  17.494  0.00  0.00    +0.000 NA
ENDROOT
BRANCH   1  10
ATOM      6  C   UNL     1       5.693   5.307  17.053  0.00  0.00    +0.000 A 
ATOM      7  C   UNL     1       5.108   4.041  16.930  0.00  0.00    +0.000 A 
ATOM      8  C   UNL     1       3.757   3.878  17.238  0.00  0.00    +0.000 A 
ATOM      9  C   UNL     1       2.996   4.973  17.662  0.00  0.00    +0.000 A 
ATOM     10  C   UNL     1       3.579   6.239  17.795  0.00  0.00    +0.000 A 
ATOM     11  C   UNL     1       4.937   6.403  17.486  0.00  0.00    +0.000 A 
BRANCH   6  13
ATOM     12  O   UNL     1       7.851   4.503  16.768  0.00  0.00    +0.000 OA
ATOM     13  N   UNL     1       7.109   5.495  16.722  0.00  0.00    +0.000 N 
ATOM     14  O   UNL     1       7.484   6.640  16.419  0.00  0.00    +0.000 OA
ENDBRANCH   6  13
ENDBRANCH   1  10
BRANCH   3  15
ATOM     15  C   UNL     1       0.874   9.368  20.492  0.00  0.00    +0.000 A 
ATOM     16  C   UNL     1       0.680   8.724  21.724  0.00  0.00    +0.000 A 
ATOM     17  C   UNL     1      -0.008   9.371  22.752  0.00  0.00    +0.000 A 
ATOM     18  C   UNL     1      -0.507  10.656  22.558  0.00  0.00    +0.000 A 
ATOM     19  C   UNL     1      -0.319  11.300  21.334  0.00  0.00    +0.000 A 
ATOM     20  C   UNL     1       0.370  10.661  20.302  0.00  0.00    +0.000 A 
ENDBRANCH   3  15
TORSDOF 3
ENDMDL
MODEL 6
REMARK VINA RESULT:      -7.9      3.638      7.482
REMARK  Name = 
REMARK  3 active torsions:
REMARK  status: ('A' for Active; 'I' for Inactive)
REMARK    1  A    between atoms: N_2  and  C_4
REMARK    2  A    between atoms: C_8  and  C_9
REMARK    3  A    between atoms: N_11  and  C_12
REMARK                            x       y       z     vdW  Elec       q    Type
REMARK                         _______ _______ _______ _____ _____    ______ ____
ROOT
ATOM      1  C   UNL     1       5.012   4.700  17.753  0.00  0.00    +0.000 A 
ATOM      2  C   UNL     1       4.822   4.607  16.395  0.00  0.00    +0.000 A 
ATOM      3  N   UNL     1       6.084   4.482  15.868  0.00  0.00    +0.000 N 
ATOM      4  N   UNL     1       6.991   4.450  16.878  0.00  0.00    +0.000 NA
ATOM      5  N   UNL     1       6.343   4.581  18.030  0.00  0.00    +0.000 NA
ENDROOT
BRANCH   1  10
ATOM      6  C   UNL     1       2.589   4.044  20.546  0.00  0.00    +0.000 A 
ATOM      7  C   UNL     1       1.937   5.278  20.646  0.00  0.00    +0.000 A 
ATOM      8  C   UNL     1       2.302   6.317  19.789  0.00  0.00    +0.000 A 
ATOM      9  C   UNL     1       3.308   6.122  18.837  0.00  0.00    +0.000 A 
ATOM     10  C   UNL     1       3.970   4.891  18.740  0.00  0.00    +0.000 A 
ATOM     11  C   UNL     1       3.603   3.848  19.602  0.00  0.00    +0.000 A 
BRANCH   6  13
ATOM     12  O   UNL     1       3.118   2.270  21.945  0.00  0.00    +0.000 OA
ATOM     13  N   UNL     1       2.209   2.941  21.434  0.00  0.00    +0.000 N 
ATOM     14  O   UNL     1       0.998   2.740  21.619  0.00  0.00    +0.000 OA
ENDBRANCH   6  13
ENDBRANCH   1  10
BRANCH   3  15
ATOM     15  C   UNL     1       6.458   4.409  14.502  0.00  0.00    +0.000 A 
ATOM     16  C   UNL     1       5.799   3.530  13.628  0.00  0.00    +0.000 A 
ATOM     17  C   UNL     1       6.163   3.476  12.282  0.00  0.00    +0.000 A 
ATOM     18  C   UNL     1       7.184   4.292  11.801  0.00  0.00    +0.000 A 
ATOM     19  C   UNL     1       7.843   5.166  12.665  0.00  0.00    +0.000 A 
ATOM     20  C   UNL     1       7.484   5.229  14.013  0.00  0.00    +0.000 A 
ENDBRANCH   3  15
TORSDOF 3
ENDMDL
MODEL 7
REMARK VINA RESULT:      -7.9      3.645      7.518
REMARK  Name = 
REMARK  3 active torsions:
REMARK  status: ('A' for Active; 'I' for Inactive)
REMARK    1  A    between atoms: N_2  and  C_4
REMARK    2  A    between atoms: C_8  and  C_9
REMARK    3  A    between atoms: N_11  and  C_12
REMARK                            x       y       z     vdW  Elec       q    Type
REMARK                         _______ _______ _______ _____ _____    ______ ____
ROOT
ATOM      1  C   UNL     1       5.033   4.606  17.832  0.00  0.00    +0.000 A 
ATOM      2  C   UNL     1       4.842   4.562  16.472  0.00  0.00    +0.000 A 
ATOM      3  N   UNL     1       6.103   4.446  15.940  0.00  0.00    +0.000 N 
ATOM      4  N   UNL     1       7.010   4.372  16.947  0.00  0.00    +0.000 NA
ATOM      5  N   UNL     1       6.363   4.468  18.103  0.00  0.00    +0.000 NA
ENDROOT
BRANCH   1  10
ATOM      6  C   UNL     1       2.685   3.908  20.677  0.00  0.00    +0.000 A 
ATOM      7  C   UNL     1       1.963   5.105  20.745  0.00  0.00    +0.000 A 
ATOM      8  C   UNL     1       2.257   6.133  19.849  0.00  0.00    +0.000 A 
ATOM      9  C   UNL     1       3.262   5.964  18.890  0.00  0.00    +0.000 A 
ATOM     10  C   UNL     1       3.993   4.771  18.826  0.00  0.00    +0.000 A 
ATOM     11  C   UNL     1       3.698   3.738  19.727  0.00  0.00    +0.000 A 
BRANCH   6  13
ATOM     12  O   UNL     1       1.212   2.705  22.007  0.00  0.00    +0.000 OA
ATOM     13  N   UNL     1       2.380   2.815  21.607  0.00  0.00    +0.000 N 
ATOM     14  O   UNL     1       3.312   2.066  21.942  0.00  0.00    +0.000 OA
ENDBRANCH   6  13
ENDBRANCH   1  10
BRANCH   3  15
ATOM     15  C   UNL     1       6.475   4.418  14.571  0.00  0.00    +0.000 A 
ATOM     16  C   UNL     1       7.502   5.247  14.094  0.00  0.00    +0.000 A 
ATOM     17  C   UNL     1       7.872   5.200  12.749  0.00  0.00    +0.000 A 
ATOM     18  C   UNL     1       7.220   4.334  11.875  0.00  0.00    +0.000 A 
ATOM     19  C   UNL     1       6.197   3.510  12.343  0.00  0.00    +0.000 A 
ATOM     20  C   UNL     1       5.823   3.548  13.688  0.00  0.00    +0.000 A 
ENDBRANCH   3  15
TORSDOF 3
ENDMDL
MODEL 8
REMARK VINA RESULT:      -7.7      1.053      1.080
REMARK  Name = 
REMARK  3 active torsions:
REMARK  status: ('A' for Active; 'I' for Inactive)
REMARK    1  A    between atoms: N_2  and  C_4
REMARK    2  A    between atoms: C_8  and  C_9
REMARK    3  A    between atoms: N_11  and  C_12
REMARK                            x       y       z     vdW  Elec       q    Type
REMARK                         _______ _______ _______ _____ _____    ______ ____
ROOT
ATOM      1  C   UNL     1       4.984   4.855  16.150  0.00  0.00    +0.000 A 
ATOM      2  C   UNL     1       4.221   3.950  16.849  0.00  0.00    +0.000 A 
ATOM      3  N   UNL     1       3.820   4.622  17.978  0.00  0.00    +0.000 N 
ATOM      4  N   UNL     1       4.283   5.897  17.931  0.00  0.00    +0.000 NA
ATOM      5  N   UNL     1       4.993   6.045  16.818  0.00  0.00    +0.000 NA
ENDROOT
BRANCH   1  10
ATOM      6  C   UNL     1       5.743   3.570  12.705  0.00  0.00    +0.000 A 
ATOM      7  C   UNL     1       7.022   4.094  12.486  0.00  0.00    +0.000 A 
ATOM      8  C   UNL     1       7.625   4.867  13.480  0.00  0.00    +0.000 A 
ATOM      9  C   UNL     1       6.954   5.110  14.684  0.00  0.00    +0.000 A 
ATOM     10  C   UNL     1       5.670   4.596  14.902  0.00  0.00    +0.000 A 
ATOM     11  C   UNL     1       5.065   3.820  13.904  0.00  0.00    +0.000 A 
BRANCH   6  13
ATOM     12  O   UNL     1       4.051   3.168  11.169  0.00  0.00    +0.000 OA
ATOM     13  N   UNL     1       5.102   2.748  11.674  0.00  0.00    +0.000 N 
ATOM     14  O   UNL     1       5.649   1.675  11.369  0.00  0.00    +0.000 OA
ENDBRANCH   6  13
ENDBRANCH   1  10
BRANCH   3  15
ATOM     15  C   UNL     1       3.058   4.124  19.066  0.00  0.00    +0.000 A 
ATOM     16  C   UNL     1       3.579   3.127  19.906  0.00  0.00    +0.000 A 
ATOM     17  C   UNL     1       2.827   2.656  20.983  0.00  0.00    +0.000 A 
ATOM     18  C   UNL     1       1.557   3.169  21.227  0.00  0.00    +0.000 A 
ATOM     19  C   UNL     1       1.033   4.158  20.394  0.00  0.00    +0.000 A 
ATOM     20  C   UNL     1       1.779   4.639  19.316  0.00  0.00    +0.000 A 
ENDBRANCH   3  15
TORSDOF 3
ENDMDL
MODEL 9
REMARK VINA RESULT:      -7.6      3.510      7.404
REMARK  Name = 
REMARK  3 active torsions:
REMARK  status: ('A' for Active; 'I' for Inactive)
REMARK    1  A    between atoms: N_2  and  C_4
REMARK    2  A    between atoms: C_8  and  C_9
REMARK    3  A    between atoms: N_11  and  C_12
REMARK                            x       y       z     vdW  Elec       q    Type
REMARK                         _______ _______ _______ _____ _____    ______ ____
ROOT
ATOM      1  C   UNL     1       4.507   5.617  17.377  0.00  0.00    +0.000 A 
ATOM      2  C   UNL     1       4.687   4.688  16.381  0.00  0.00    +0.000 A 
ATOM      3  N   UNL     1       5.572   5.273  15.507  0.00  0.00    +0.000 N 
ATOM      4  N   UNL     1       5.946   6.484  15.991  0.00  0.00    +0.000 NA
ATOM      5  N   UNL     1       5.301   6.700  17.132  0.00  0.00    +0.000 NA
ENDROOT
BRANCH   1  10
ATOM      6  C   UNL     1       2.537   4.097  20.189  0.00  0.00    +0.000 A 
ATOM      7  C   UNL     1       1.885   5.219  20.713  0.00  0.00    +0.000 A 
ATOM      8  C   UNL     1       2.100   6.470  20.132  0.00  0.00    +0.000 A 
ATOM      9  C   UNL     1       2.958   6.595  19.033  0.00  0.00    +0.000 A 
ATOM     10  C   UNL     1       3.620   5.476  18.512  0.00  0.00    +0.000 A 
ATOM     11  C   UNL     1       3.404   4.220  19.097  0.00  0.00    +0.000 A 
BRANCH   6  13
ATOM     12  O   UNL     1       1.640   1.958  20.139  0.00  0.00    +0.000 OA
ATOM     13  N   UNL     1       2.312   2.776  20.784  0.00  0.00    +0.000 N 
ATOM     14  O   UNL     1       2.806   2.554  21.902  0.00  0.00    +0.000 OA
ENDBRANCH   6  13
ENDBRANCH   1  10
BRANCH   3  15
ATOM     15  C   UNL     1       6.050   4.760  14.274  0.00  0.00    +0.000 A 
ATOM     16  C   UNL     1       7.281   5.188  13.753  0.00  0.00    +0.000 A 
ATOM     17  C   UNL     1       7.750   4.665  12.547  0.00  0.00    +0.000 A 
ATOM     18  C   UNL     1       6.998   3.720  11.854  0.00  0.00    +0.000 A 
ATOM     19  C   UNL     1       5.772   3.293  12.367  0.00  0.00    +0.000 A 
ATOM     20  C   UNL     1       5.297   3.808  13.575  0.00  0.00    +0.000 A 
ENDBRANCH   3  15
TORSDOF 3
ENDMDL
