MODEL 1
REMARK VINA RESULT:      -7.9      0.000      0.000
REMARK  Name = 
REMARK  8 active torsions:
REMARK  status: ('A' for Active; 'I' for Inactive)
REMARK    1  A    between atoms: C_1  and  C_2
REMARK    2  A    between atoms: N_5  and  C_6
REMARK    3  A    between atoms: C_6  and  C_7
REMARK    4  A    between atoms: N_13  and  C_14
REMARK    5  A    between atoms: N_17  and  C_18
REMARK    6  A    between atoms: N_19  and  C_20
REMARK    7  A    between atoms: C_20  and  C_21
REMARK    8  A    between atoms: C_21  and  N_22
REMARK                            x       y       z     vdW  Elec       q    Type
REMARK                         _______ _______ _______ _____ _____    ______ ____
ROOT
ATOM      1  C   UNL     1       2.002   6.687  20.201  0.00  0.00    +0.000 A 
ATOM      2  N   UNL     1       1.399   7.418  21.124  0.00  0.00    +0.000 NA
ATOM      3  C   UNL     1       1.242   8.644  20.587  0.00  0.00    +0.000 A 
ATOM      4  C   UNL     1       1.762   8.727  19.335  0.00  0.00    +0.000 A 
ATOM      5  C   UNL     1       1.717   9.973  18.608  0.00  0.00    +0.000 A 
ATOM      6  O   UNL     1       2.211  10.101  17.488  0.00  0.00    +0.000 OA
ATOM      7  N   UNL     1       1.085  11.015  19.314  0.00  0.00    +0.000 N 
ATOM      8  C   UNL     1       0.973  12.332  18.711  0.00  0.00    +0.000 C 
ATOM      9  C   UNL     1       0.509  10.907  20.591  0.00  0.00    +0.000 A 
ATOM     10  O   UNL     1      -0.072  11.862  21.119  0.00  0.00    +0.000 OA
ATOM     11  N   UNL     1       0.615   9.678  21.227  0.00  0.00    +0.000 N 
ATOM     12  C   UNL     1       0.031   9.472  22.538  0.00  0.00    +0.000 C 
ATOM     13  N   UNL     1       2.241   7.448  19.049  0.00  0.00    +0.000 N 
ENDROOT
BRANCH   1  14
ATOM     14  C   UNL     1       2.271   5.227  20.478  0.00  0.00    +0.000 C 
BRANCH  14  19
ATOM     15  C   UNL     1       3.894   1.226  18.434  0.00  0.00    +0.000 C 
ATOM     16  C   UNL     1       2.600   1.921  18.850  0.00  0.00    +0.000 C 
ATOM     17  C   UNL     1       2.409   3.237  18.082  0.00  0.00    +0.000 C 
ATOM     18  C   UNL     1       1.212   4.040  18.600  0.00  0.00    +0.000 C 
ATOM     19  N   UNL     1       1.223   4.283  20.049  0.00  0.00    +0.000 NA
ATOM     20  C   UNL     1       1.337   2.987  20.753  0.00  0.00    +0.000 C 
ATOM     21  C   UNL     1       2.571   2.167  20.362  0.00  0.00    +0.000 C 
ENDBRANCH  14  19
ENDBRANCH   1  14
BRANCH  13  22
ATOM     22  C   UNL     1       2.944   7.070  17.819  0.00  0.00    +0.000 C 
BRANCH  22  23
ATOM     23  C   UNL     1       4.375   6.499  17.956  0.00  0.00    +0.000 C 
BRANCH  23  24
ATOM     24  N   UNL     1       5.347   6.807  16.877  0.00  0.00    +0.000 NA
ATOM     25  C   UNL     1       5.406   5.683  15.898  0.00  0.00    +0.000 C 
ATOM     26  C   UNL     1       6.129   4.428  16.427  0.00  0.00    +0.000 C 
ATOM     27  O   UNL     1       7.466   4.735  16.834  0.00  0.00    +0.000 OA
ATOM     28  C   UNL     1       7.466   5.760  17.836  0.00  0.00    +0.000 C 
ATOM     29  C   UNL     1       6.734   7.028  17.354  0.00  0.00    +0.000 C 
ENDBRANCH  23  24
ENDBRANCH  22  23
ENDBRANCH  13  22
TORSDOF 5
ENDMDL
MODEL 2
REMARK VINA RESULT:      -7.9      0.637      1.107
REMARK  Name = 
REMARK  8 active torsions:
REMARK  status: ('A' for Active; 'I' for Inactive)
REMARK    1  A    between atoms: C_1  and  C_2
REMARK    2  A    between atoms: N_5  and  C_6
REMARK    3  A    between atoms: C_6  and  C_7
REMARK    4  A    between atoms: N_13  and  C_14
REMARK    5  A    between atoms: N_17  and  C_18
REMARK    6  A    between atoms: N_19  and  C_20
REMARK    7  A    between atoms: C_20  and  C_21
REMARK    8  A    between atoms: C_21  and  N_22
REMARK                            x       y       z     vdW  Elec       q    Type
REMARK                         _______ _______ _______ _____ _____    ______ ____
ROOT
ATOM      1  C   UNL     1       2.014   6.660  20.331  0.00  0.00    +0.000 A 
ATOM      2  N   UNL     1       1.409   7.417  21.230  0.00  0.00    +0.000 NA
ATOM      3  C   UNL     1       1.199   8.609  20.637  0.00  0.00    +0.000 A 
ATOM      4  C   UNL     1       1.689   8.646  19.370  0.00  0.00    +0.000 A 
ATOM      5  C   UNL     1       1.586   9.851  18.584  0.00  0.00    +0.000 A 
ATOM      6  O   UNL     1       2.051   9.939  17.448  0.00  0.00    +0.000 OA
ATOM      7  N   UNL     1       0.936  10.907  19.252  0.00  0.00    +0.000 N 
ATOM      8  C   UNL     1       0.767  12.188  18.588  0.00  0.00    +0.000 C 
ATOM      9  C   UNL     1       0.392  10.846  20.547  0.00  0.00    +0.000 A 
ATOM     10  O   UNL     1      -0.208  11.807  21.040  0.00  0.00    +0.000 OA
ATOM     11  N   UNL     1       0.553   9.653  21.240  0.00  0.00    +0.000 N 
ATOM     12  C   UNL     1       0.006   9.495  22.573  0.00  0.00    +0.000 C 
ATOM     13  N   UNL     1       2.203   7.370  19.137  0.00  0.00    +0.000 N 
ENDROOT
BRANCH   1  14
ATOM     14  C   UNL     1       2.338   5.225  20.673  0.00  0.00    +0.000 C 
BRANCH  14  19
ATOM     15  C   UNL     1       3.662   1.300  18.296  0.00  0.00    +0.000 C 
ATOM     16  C   UNL     1       2.452   1.944  18.968  0.00  0.00    +0.000 C 
ATOM     17  C   UNL     1       2.069   3.257  18.270  0.00  0.00    +0.000 C 
ATOM     18  C   UNL     1       0.971   4.013  19.025  0.00  0.00    +0.000 C 
ATOM     19  N   UNL     1       1.259   4.247  20.446  0.00  0.00    +0.000 NA
ATOM     20  C   UNL     1       1.554   2.952  21.096  0.00  0.00    +0.000 C 
ATOM     21  C   UNL     1       2.714   2.179  20.459  0.00  0.00    +0.000 C 
ENDBRANCH  14  19
ENDBRANCH   1  14
BRANCH  13  22
ATOM     22  C   UNL     1       2.891   6.953  17.911  0.00  0.00    +0.000 C 
BRANCH  22  23
ATOM     23  C   UNL     1       4.416   6.709  17.990  0.00  0.00    +0.000 C 
BRANCH  23  24
ATOM     24  N   UNL     1       4.882   5.313  18.186  0.00  0.00    +0.000 NA
ATOM     25  C   UNL     1       6.074   5.289  19.082  0.00  0.00    +0.000 C 
ATOM     26  C   UNL     1       7.367   5.810  18.423  0.00  0.00    +0.000 C 
ATOM     27  O   UNL     1       7.681   5.064  17.242  0.00  0.00    +0.000 OA
ATOM     28  C   UNL     1       6.596   5.120  16.307  0.00  0.00    +0.000 C 
ATOM     29  C   UNL     1       5.278   4.624  16.934  0.00  0.00    +0.000 C 
ENDBRANCH  23  24
ENDBRANCH  22  23
ENDBRANCH  13  22
TORSDOF 5
ENDMDL
MODEL 3
REMARK VINA RESULT:      -7.3      1.694      4.600
REMARK  Name = 
REMARK  8 active torsions:
REMARK  status: ('A' for Active; 'I' for Inactive)
REMARK    1  A    between atoms: C_1  and  C_2
REMARK    2  A    between atoms: N_5  and  C_6
REMARK    3  A    between atoms: C_6  and  C_7
REMARK    4  A    between atoms: N_13  and  C_14
REMARK    5  A    between atoms: N_17  and  C_18
REMARK    6  A    between atoms: N_19  and  C_20
REMARK    7  A    between atoms: C_20  and  C_21
REMARK    8  A    between atoms: C_21  and  N_22
REMARK                            x       y       z     vdW  Elec       q    Type
REMARK                         _______ _______ _______ _____ _____    ______ ____
ROOT
ATOM      1  C   UNL     1       2.727   6.863  18.578  0.00  0.00    +0.000 A 
ATOM      2  N   UNL     1       2.614   8.095  18.111  0.00  0.00    +0.000 NA
ATOM      3  C   UNL     1       1.912   8.782  19.033  0.00  0.00    +0.000 A 
ATOM      4  C   UNL     1       1.539   8.003  20.082  0.00  0.00    +0.000 A 
ATOM      5  C   UNL     1       0.751   8.555  21.157  0.00  0.00    +0.000 A 
ATOM      6  O   UNL     1       0.361   7.875  22.105  0.00  0.00    +0.000 OA
ATOM      7  N   UNL     1       0.458   9.924  20.995  0.00  0.00    +0.000 N 
ATOM      8  C   UNL     1      -0.337  10.615  21.996  0.00  0.00    +0.000 C 
ATOM      9  C   UNL     1       0.886  10.733  19.929  0.00  0.00    +0.000 A 
ATOM     10  O   UNL     1       0.624  11.940  19.891  0.00  0.00    +0.000 OA
ATOM     11  N   UNL     1       1.623  10.116  18.928  0.00  0.00    +0.000 N 
ATOM     12  C   UNL     1       2.122  10.879  17.802  0.00  0.00    +0.000 C 
ATOM     13  N   UNL     1       2.087   6.747  19.820  0.00  0.00    +0.000 N 
ENDROOT
BRANCH   1  14
ATOM     14  C   UNL     1       3.522   5.847  17.793  0.00  0.00    +0.000 C 
BRANCH  14  19
ATOM     15  C   UNL     1       5.851   4.069  14.020  0.00  0.00    +0.000 C 
ATOM     16  C   UNL     1       6.087   4.798  15.341  0.00  0.00    +0.000 C 
ATOM     17  C   UNL     1       5.640   3.938  16.532  0.00  0.00    +0.000 C 
ATOM     18  C   UNL     1       5.703   4.707  17.856  0.00  0.00    +0.000 C 
ATOM     19  N   UNL     1       4.988   5.991  17.848  0.00  0.00    +0.000 NA
ATOM     20  C   UNL     1       5.496   6.816  16.730  0.00  0.00    +0.000 C 
ATOM     21  C   UNL     1       5.373   6.153  15.354  0.00  0.00    +0.000 C 
ENDBRANCH  14  19
ENDBRANCH   1  14
BRANCH  13  22
ATOM     22  C   UNL     1       1.899   5.557  20.656  0.00  0.00    +0.000 C 
BRANCH  22  23
ATOM     23  C   UNL     1       0.954   4.451  20.131  0.00  0.00    +0.000 C 
BRANCH  23  24
ATOM     24  N   UNL     1       1.211   3.057  20.573  0.00  0.00    +0.000 NA
ATOM     25  C   UNL     1       2.573   2.949  21.172  0.00  0.00    +0.000 C 
ATOM     26  C   UNL     1       3.719   3.017  20.143  0.00  0.00    +0.000 C 
ATOM     27  O   UNL     1       3.585   1.992  19.152  0.00  0.00    +0.000 OA
ATOM     28  C   UNL     1       2.320   2.098  18.485  0.00  0.00    +0.000 C 
ATOM     29  C   UNL     1       1.146   2.053  19.483  0.00  0.00    +0.000 C 
ENDBRANCH  23  24
ENDBRANCH  22  23
ENDBRANCH  13  22
TORSDOF 5
ENDMDL
MODEL 4
REMARK VINA RESULT:      -7.0      1.026      1.585
REMARK  Name = 
REMARK  8 active torsions:
REMARK  status: ('A' for Active; 'I' for Inactive)
REMARK    1  A    between atoms: C_1  and  C_2
REMARK    2  A    between atoms: N_5  and  C_6
REMARK    3  A    between atoms: C_6  and  C_7
REMARK    4  A    between atoms: N_13  and  C_14
REMARK    5  A    between atoms: N_17  and  C_18
REMARK    6  A    between atoms: N_19  and  C_20
REMARK    7  A    between atoms: C_20  and  C_21
REMARK    8  A    between atoms: C_21  and  N_22
REMARK                            x       y       z     vdW  Elec       q    Type
REMARK                         _______ _______ _______ _____ _____    ______ ____
ROOT
ATOM      1  C   UNL     1       2.799   6.796  19.525  0.00  0.00    +0.000 A 
ATOM      2  N   UNL     1       1.945   7.170  20.463  0.00  0.00    +0.000 NA
ATOM      3  C   UNL     1       1.431   8.346  20.054  0.00  0.00    +0.000 A 
ATOM      4  C   UNL     1       1.964   8.758  18.874  0.00  0.00    +0.000 A 
ATOM      5  C   UNL     1       1.560  10.014  18.289  0.00  0.00    +0.000 A 
ATOM      6  O   UNL     1       2.046  10.441  17.243  0.00  0.00    +0.000 OA
ATOM      7  N   UNL     1       0.589  10.700  19.045  0.00  0.00    +0.000 N 
ATOM      8  C   UNL     1       0.092  11.986  18.585  0.00  0.00    +0.000 C 
ATOM      9  C   UNL     1       0.010  10.246  20.242  0.00  0.00    +0.000 A 
ATOM     10  O   UNL     1      -0.874  10.890  20.816  0.00  0.00    +0.000 OA
ATOM     11  N   UNL     1       0.472   9.036  20.744  0.00  0.00    +0.000 N 
ATOM     12  C   UNL     1      -0.084   8.482  21.962  0.00  0.00    +0.000 C 
ATOM     13  N   UNL     1       2.843   7.743  18.493  0.00  0.00    +0.000 N 
ENDROOT
BRANCH   1  14
ATOM     14  C   UNL     1       3.508   5.469  19.661  0.00  0.00    +0.000 C 
BRANCH  14  19
ATOM     15  C   UNL     1       1.185   2.179  22.229  0.00  0.00    +0.000 C 
ATOM     16  C   UNL     1       1.569   2.529  20.793  0.00  0.00    +0.000 C 
ATOM     17  C   UNL     1       3.094   2.530  20.615  0.00  0.00    +0.000 C 
ATOM     18  C   UNL     1       3.514   3.045  19.235  0.00  0.00    +0.000 C 
ATOM     19  N   UNL     1       2.950   4.354  18.876  0.00  0.00    +0.000 NA
ATOM     20  C   UNL     1       1.477   4.290  18.992  0.00  0.00    +0.000 C 
ATOM     21  C   UNL     1       0.974   3.880  20.381  0.00  0.00    +0.000 C 
ENDBRANCH  14  19
ENDBRANCH   1  14
BRANCH  13  22
ATOM     22  C   UNL     1       3.696   7.774  17.300  0.00  0.00    +0.000 C 
BRANCH  22  23
ATOM     23  C   UNL     1       4.576   6.535  17.014  0.00  0.00    +0.000 C 
BRANCH  23  24
ATOM     24  N   UNL     1       5.901   6.761  16.383  0.00  0.00    +0.000 NA
ATOM     25  C   UNL     1       6.289   5.579  15.561  0.00  0.00    +0.000 C 
ATOM     26  C   UNL     1       6.702   4.346  16.390  0.00  0.00    +0.000 C 
ATOM     27  O   UNL     1       7.789   4.655  17.268  0.00  0.00    +0.000 OA
ATOM     28  C   UNL     1       7.441   5.738  18.141  0.00  0.00    +0.000 C 
ATOM     29  C   UNL     1       7.003   6.987  17.350  0.00  0.00    +0.000 C 
ENDBRANCH  23  24
ENDBRANCH  22  23
ENDBRANCH  13  22
TORSDOF 5
ENDMDL
MODEL 5
REMARK VINA RESULT:      -6.6      2.748      6.910
REMARK  Name = 
REMARK  8 active torsions:
REMARK  status: ('A' for Active; 'I' for Inactive)
REMARK    1  A    between atoms: C_1  and  C_2
REMARK    2  A    between atoms: N_5  and  C_6
REMARK    3  A    between atoms: C_6  and  C_7
REMARK    4  A    between atoms: N_13  and  C_14
REMARK    5  A    between atoms: N_17  and  C_18
REMARK    6  A    between atoms: N_19  and  C_20
REMARK    7  A    between atoms: C_20  and  C_21
REMARK    8  A    between atoms: C_21  and  N_22
REMARK                            x       y       z     vdW  Elec       q    Type
REMARK                         _______ _______ _______ _____ _____    ______ ____
ROOT
ATOM      1  C   UNL     1       2.831   6.881  18.581  0.00  0.00    +0.000 A 
ATOM      2  N   UNL     1       4.025   7.405  18.361  0.00  0.00    +0.000 NA
ATOM      3  C   UNL     1       4.683   6.525  17.581  0.00  0.00    +0.000 A 
ATOM      4  C   UNL     1       3.941   5.418  17.315  0.00  0.00    +0.000 A 
ATOM      5  C   UNL     1       4.488   4.346  16.520  0.00  0.00    +0.000 A 
ATOM      6  O   UNL     1       3.864   3.311  16.289  0.00  0.00    +0.000 OA
ATOM      7  N   UNL     1       5.799   4.594  16.068  0.00  0.00    +0.000 N 
ATOM      8  C   UNL     1       6.485   3.598  15.262  0.00  0.00    +0.000 C 
ATOM      9  C   UNL     1       6.543   5.761  16.309  0.00  0.00    +0.000 A 
ATOM     10  O   UNL     1       7.672   5.917  15.831  0.00  0.00    +0.000 OA
ATOM     11  N   UNL     1       5.947   6.733  17.101  0.00  0.00    +0.000 N 
ATOM     12  C   UNL     1       6.634   7.978  17.384  0.00  0.00    +0.000 C 
ATOM     13  N   UNL     1       2.712   5.642  17.938  0.00  0.00    +0.000 N 
ENDROOT
BRANCH   1  14
ATOM     14  C   UNL     1       1.820   7.663  19.386  0.00  0.00    +0.000 C 
BRANCH  14  19
ATOM     15  C   UNL     1      -2.136  10.111  18.301  0.00  0.00    +0.000 C 
ATOM     16  C   UNL     1      -0.672  10.307  18.688  0.00  0.00    +0.000 C 
ATOM     17  C   UNL     1       0.263   9.713  17.626  0.00  0.00    +0.000 C 
ATOM     18  C   UNL     1       1.730   9.740  18.067  0.00  0.00    +0.000 C 
ATOM     19  N   UNL     1       1.982   9.129  19.379  0.00  0.00    +0.000 NA
ATOM     20  C   UNL     1       1.113   9.776  20.386  0.00  0.00    +0.000 C 
ATOM     21  C   UNL     1      -0.383   9.700  20.065  0.00  0.00    +0.000 C 
ENDBRANCH  14  19
ENDBRANCH   1  14
BRANCH  13  22
ATOM     22  C   UNL     1       1.600   4.685  17.970  0.00  0.00    +0.000 C 
BRANCH  22  23
ATOM     23  C   UNL     1       1.120   4.189  19.354  0.00  0.00    +0.000 C 
BRANCH  23  24
ATOM     24  N   UNL     1       1.262   2.742  19.655  0.00  0.00    +0.000 NA
ATOM     25  C   UNL     1       1.228   2.517  21.129  0.00  0.00    +0.000 C 
ATOM     26  C   UNL     1       2.506   2.971  21.863  0.00  0.00    +0.000 C 
ATOM     27  O   UNL     1       3.665   2.315  21.337  0.00  0.00    +0.000 OA
ATOM     28  C   UNL     1       3.791   2.564  19.932  0.00  0.00    +0.000 C 
ATOM     29  C   UNL     1       2.525   2.141  19.162  0.00  0.00    +0.000 C 
ENDBRANCH  23  24
ENDBRANCH  22  23
ENDBRANCH  13  22
TORSDOF 5
ENDMDL
MODEL 6
REMARK VINA RESULT:      -6.6      1.554      4.561
REMARK  Name = 
REMARK  8 active torsions:
REMARK  status: ('A' for Active; 'I' for Inactive)
REMARK    1  A    between atoms: C_1  and  C_2
REMARK    2  A    between atoms: N_5  and  C_6
REMARK    3  A    between atoms: C_6  and  C_7
REMARK    4  A    between atoms: N_13  and  C_14
REMARK    5  A    between atoms: N_17  and  C_18
REMARK    6  A    between atoms: N_19  and  C_20
REMARK    7  A    between atoms: C_20  and  C_21
REMARK    8  A    between atoms: C_21  and  N_22
REMARK                            x       y       z     vdW  Elec       q    Type
REMARK                         _______ _______ _______ _____ _____    ______ ____
ROOT
ATOM      1  C   UNL     1       2.858   7.010  18.358  0.00  0.00    +0.000 A 
ATOM      2  N   UNL     1       2.687   8.251  17.936  0.00  0.00    +0.000 NA
ATOM      3  C   UNL     1       1.974   8.878  18.893  0.00  0.00    +0.000 A 
ATOM      4  C   UNL     1       1.654   8.049  19.921  0.00  0.00    +0.000 A 
ATOM      5  C   UNL     1       0.864   8.531  21.028  0.00  0.00    +0.000 A 
ATOM      6  O   UNL     1       0.519   7.804  21.959  0.00  0.00    +0.000 OA
ATOM      7  N   UNL     1       0.512   9.891  20.919  0.00  0.00    +0.000 N 
ATOM      8  C   UNL     1      -0.292  10.515  21.956  0.00  0.00    +0.000 C 
ATOM      9  C   UNL     1       0.886  10.753  19.874  0.00  0.00    +0.000 A 
ATOM     10  O   UNL     1       0.575  11.949  19.882  0.00  0.00    +0.000 OA
ATOM     11  N   UNL     1       1.629  10.201  18.840  0.00  0.00    +0.000 N 
ATOM     12  C   UNL     1       2.076  11.022  17.732  0.00  0.00    +0.000 C 
ATOM     13  N   UNL     1       2.247   6.826  19.606  0.00  0.00    +0.000 N 
ENDROOT
BRANCH   1  14
ATOM     14  C   UNL     1       3.679   6.055  17.525  0.00  0.00    +0.000 C 
BRANCH  14  19
ATOM     15  C   UNL     1       8.117   4.319  17.857  0.00  0.00    +0.000 C 
ATOM     16  C   UNL     1       7.281   5.334  17.081  0.00  0.00    +0.000 C 
ATOM     17  C   UNL     1       6.736   6.426  18.013  0.00  0.00    +0.000 C 
ATOM     18  C   UNL     1       5.754   7.359  17.297  0.00  0.00    +0.000 C 
ATOM     19  N   UNL     1       4.654   6.672  16.607  0.00  0.00    +0.000 NA
ATOM     20  C   UNL     1       5.222   5.679  15.669  0.00  0.00    +0.000 C 
ATOM     21  C   UNL     1       6.138   4.643  16.330  0.00  0.00    +0.000 C 
ENDBRANCH  14  19
ENDBRANCH   1  14
BRANCH  13  22
ATOM     22  C   UNL     1       2.123   5.602  20.405  0.00  0.00    +0.000 C 
BRANCH  22  23
ATOM     23  C   UNL     1       1.244   4.461  19.840  0.00  0.00    +0.000 C 
BRANCH  23  24
ATOM     24  N   UNL     1       1.584   3.070  20.232  0.00  0.00    +0.000 NA
ATOM     25  C   UNL     1       3.007   2.991  20.672  0.00  0.00    +0.000 C 
ATOM     26  C   UNL     1       4.027   3.100  19.521  0.00  0.00    +0.000 C 
ATOM     27  O   UNL     1       3.807   2.082  18.539  0.00  0.00    +0.000 OA
ATOM     28  C   UNL     1       2.473   2.161  18.020  0.00  0.00    +0.000 C 
ATOM     29  C   UNL     1       1.420   2.076  19.143  0.00  0.00    +0.000 C 
ENDBRANCH  23  24
ENDBRANCH  22  23
ENDBRANCH  13  22
TORSDOF 5
ENDMDL
MODEL 7
REMARK VINA RESULT:      -6.4      1.102      1.848
REMARK  Name = 
REMARK  8 active torsions:
REMARK  status: ('A' for Active; 'I' for Inactive)
REMARK    1  A    between atoms: C_1  and  C_2
REMARK    2  A    between atoms: N_5  and  C_6
REMARK    3  A    between atoms: C_6  and  C_7
REMARK    4  A    between atoms: N_13  and  C_14
REMARK    5  A    between atoms: N_17  and  C_18
REMARK    6  A    between atoms: N_19  and  C_20
REMARK    7  A    between atoms: C_20  and  C_21
REMARK    8  A    between atoms: C_21  and  N_22
REMARK                            x       y       z     vdW  Elec       q    Type
REMARK                         _______ _______ _______ _____ _____    ______ ____
ROOT
ATOM      1  C   UNL     1       2.828   6.606  19.573  0.00  0.00    +0.000 A 
ATOM      2  N   UNL     1       2.039   7.063  20.531  0.00  0.00    +0.000 NA
ATOM      3  C   UNL     1       1.553   8.240  20.087  0.00  0.00    +0.000 A 
ATOM      4  C   UNL     1       2.041   8.569  18.862  0.00  0.00    +0.000 A 
ATOM      5  C   UNL     1       1.661   9.811  18.235  0.00  0.00    +0.000 A 
ATOM      6  O   UNL     1       2.110  10.164  17.145  0.00  0.00    +0.000 OA
ATOM      7  N   UNL     1       0.759  10.575  19.001  0.00  0.00    +0.000 N 
ATOM      8  C   UNL     1       0.292  11.857  18.500  0.00  0.00    +0.000 C 
ATOM      9  C   UNL     1       0.223  10.206  20.247  0.00  0.00    +0.000 A 
ATOM     10  O   UNL     1      -0.603  10.917  20.829  0.00  0.00    +0.000 OA
ATOM     11  N   UNL     1       0.660   9.004  20.787  0.00  0.00    +0.000 N 
ATOM     12  C   UNL     1       0.144   8.536  22.058  0.00  0.00    +0.000 C 
ATOM     13  N   UNL     1       2.858   7.499  18.492  0.00  0.00    +0.000 N 
ENDROOT
BRANCH   1  14
ATOM     14  C   UNL     1       3.487   5.258  19.742  0.00  0.00    +0.000 C 
BRANCH  14  19
ATOM     15  C   UNL     1       1.055   2.161  22.445  0.00  0.00    +0.000 C 
ATOM     16  C   UNL     1       1.438   2.444  20.995  0.00  0.00    +0.000 C 
ATOM     17  C   UNL     1       2.960   2.374  20.803  0.00  0.00    +0.000 C 
ATOM     18  C   UNL     1       3.387   2.823  19.402  0.00  0.00    +0.000 C 
ATOM     19  N   UNL     1       2.875   4.141  19.002  0.00  0.00    +0.000 NA
ATOM     20  C   UNL     1       1.401   4.144  19.134  0.00  0.00    +0.000 C 
ATOM     21  C   UNL     1       0.897   3.803  20.540  0.00  0.00    +0.000 C 
ENDBRANCH  14  19
ENDBRANCH   1  14
BRANCH  13  22
ATOM     22  C   UNL     1       3.649   7.433  17.259  0.00  0.00    +0.000 C 
BRANCH  22  23
ATOM     23  C   UNL     1       4.993   6.670  17.307  0.00  0.00    +0.000 C 
BRANCH  23  24
ATOM     24  N   UNL     1       5.031   5.303  16.730  0.00  0.00    +0.000 NA
ATOM     25  C   UNL     1       5.945   4.432  17.525  0.00  0.00    +0.000 C 
ATOM     26  C   UNL     1       7.442   4.745  17.325  0.00  0.00    +0.000 C 
ATOM     27  O   UNL     1       7.811   4.639  15.946  0.00  0.00    +0.000 OA
ATOM     28  C   UNL     1       7.015   5.518  15.141  0.00  0.00    +0.000 C 
ATOM     29  C   UNL     1       5.509   5.250  15.326  0.00  0.00    +0.000 C 
ENDBRANCH  23  24
ENDBRANCH  22  23
ENDBRANCH  13  22
TORSDOF 5
ENDMDL
MODEL 8
REMARK VINA RESULT:      -6.3      2.180      4.862
REMARK  Name = 
REMARK  8 active torsions:
REMARK  status: ('A' for Active; 'I' for Inactive)
REMARK    1  A    between atoms: C_1  and  C_2
REMARK    2  A    between atoms: N_5  and  C_6
REMARK    3  A    between atoms: C_6  and  C_7
REMARK    4  A    between atoms: N_13  and  C_14
REMARK    5  A    between atoms: N_17  and  C_18
REMARK    6  A    between atoms: N_19  and  C_20
REMARK    7  A    between atoms: C_20  and  C_21
REMARK    8  A    between atoms: C_21  and  N_22
REMARK                            x       y       z     vdW  Elec       q    Type
REMARK                         _______ _______ _______ _____ _____    ______ ____
ROOT
ATOM      1  C   UNL     1       3.505   7.126  17.622  0.00  0.00    +0.000 A 
ATOM      2  N   UNL     1       3.132   8.390  17.521  0.00  0.00    +0.000 NA
ATOM      3  C   UNL     1       2.325   8.629  18.573  0.00  0.00    +0.000 A 
ATOM      4  C   UNL     1       2.144   7.524  19.343  0.00  0.00    +0.000 A 
ATOM      5  C   UNL     1       1.285   7.575  20.501  0.00  0.00    +0.000 A 
ATOM      6  O   UNL     1       1.064   6.588  21.202  0.00  0.00    +0.000 OA
ATOM      7  N   UNL     1       0.714   8.843  20.724  0.00  0.00    +0.000 N 
ATOM      8  C   UNL     1      -0.183   9.044  21.850  0.00  0.00    +0.000 C 
ATOM      9  C   UNL     1       0.942   9.993  19.948  0.00  0.00    +0.000 A 
ATOM     10  O   UNL     1       0.438  11.081  20.245  0.00  0.00    +0.000 OA
ATOM     11  N   UNL     1       1.767   9.849  18.841  0.00  0.00    +0.000 N 
ATOM     12  C   UNL     1       2.073  10.987  17.997  0.00  0.00    +0.000 C 
ATOM     13  N   UNL     1       2.931   6.533  18.755  0.00  0.00    +0.000 N 
ENDROOT
BRANCH   1  14
ATOM     14  C   UNL     1       4.473   6.560  16.610  0.00  0.00    +0.000 C 
BRANCH  14  19
ATOM     15  C   UNL     1       7.064   4.499  13.167  0.00  0.00    +0.000 C 
ATOM     16  C   UNL     1       6.729   4.378  14.652  0.00  0.00    +0.000 C 
ATOM     17  C   UNL     1       5.234   4.096  14.859  0.00  0.00    +0.000 C 
ATOM     18  C   UNL     1       4.837   4.141  16.338  0.00  0.00    +0.000 C 
ATOM     19  N   UNL     1       5.233   5.371  17.037  0.00  0.00    +0.000 NA
ATOM     20  C   UNL     1       6.690   5.570  16.873  0.00  0.00    +0.000 C 
ATOM     21  C   UNL     1       7.153   5.638  15.414  0.00  0.00    +0.000 C 
ENDBRANCH  14  19
ENDBRANCH   1  14
BRANCH  13  22
ATOM     22  C   UNL     1       3.010   5.142  19.212  0.00  0.00    +0.000 C 
BRANCH  22  23
ATOM     23  C   UNL     1       1.911   4.164  18.732  0.00  0.00    +0.000 C 
BRANCH  23  24
ATOM     24  N   UNL     1       2.093   2.722  19.032  0.00  0.00    +0.000 NA
ATOM     25  C   UNL     1       1.170   2.302  20.126  0.00  0.00    +0.000 C 
ATOM     26  C   UNL     1       1.574   2.820  21.522  0.00  0.00    +0.000 C 
ATOM     27  O   UNL     1       2.897   2.396  21.866  0.00  0.00    +0.000 OA
ATOM     28  C   UNL     1       3.842   2.842  20.885  0.00  0.00    +0.000 C 
ATOM     29  C   UNL     1       3.463   2.361  19.470  0.00  0.00    +0.000 C 
ENDBRANCH  23  24
ENDBRANCH  22  23
ENDBRANCH  13  22
TORSDOF 5
ENDMDL
MODEL 9
REMARK VINA RESULT:      -6.3      0.929      1.259
REMARK  Name = 
REMARK  8 active torsions:
REMARK  status: ('A' for Active; 'I' for Inactive)
REMARK    1  A    between atoms: C_1  and  C_2
REMARK    2  A    between atoms: N_5  and  C_6
REMARK    3  A    between atoms: C_6  and  C_7
REMARK    4  A    between atoms: N_13  and  C_14
REMARK    5  A    between atoms: N_17  and  C_18
REMARK    6  A    between atoms: N_19  and  C_20
REMARK    7  A    between atoms: C_20  and  C_21
REMARK    8  A    between atoms: C_21  and  N_22
REMARK                            x       y       z     vdW  Elec       q    Type
REMARK                         _______ _______ _______ _____ _____    ______ ____
ROOT
ATOM      1  C   UNL     1       1.927   6.945  19.476  0.00  0.00    +0.000 A 
ATOM      2  N   UNL     1       1.284   7.504  20.487  0.00  0.00    +0.000 NA
ATOM      3  C   UNL     1       1.223   8.821  20.210  0.00  0.00    +0.000 A 
ATOM      4  C   UNL     1       1.846   9.131  19.043  0.00  0.00    +0.000 A 
ATOM      5  C   UNL     1       1.914  10.500  18.593  0.00  0.00    +0.000 A 
ATOM      6  O   UNL     1       2.502  10.827  17.563  0.00  0.00    +0.000 OA
ATOM      7  N   UNL     1       1.271  11.409  19.456  0.00  0.00    +0.000 N 
ATOM      8  C   UNL     1       1.266  12.827  19.137  0.00  0.00    +0.000 C 
ATOM      9  C   UNL     1       0.590  11.075  20.639  0.00  0.00    +0.000 A 
ATOM     10  O   UNL     1       0.010  11.932  21.313  0.00  0.00    +0.000 OA
ATOM     11  N   UNL     1       0.591   9.736  21.007  0.00  0.00    +0.000 N 
ATOM     12  C   UNL     1      -0.105   9.299  22.201  0.00  0.00    +0.000 C 
ATOM     13  N   UNL     1       2.291   7.912  18.529  0.00  0.00    +0.000 N 
ENDROOT
BRANCH   1  14
ATOM     14  C   UNL     1       2.110   5.446  19.458  0.00  0.00    +0.000 C 
BRANCH  14  19
ATOM     15  C   UNL     1       3.784   1.073  18.511  0.00  0.00    +0.000 C 
ATOM     16  C   UNL     1       3.859   2.187  19.553  0.00  0.00    +0.000 C 
ATOM     17  C   UNL     1       2.485   2.439  20.191  0.00  0.00    +0.000 C 
ATOM     18  C   UNL     1       2.492   3.663  21.111  0.00  0.00    +0.000 C 
ATOM     19  N   UNL     1       3.006   4.891  20.488  0.00  0.00    +0.000 NA
ATOM     20  C   UNL     1       4.357   4.626  19.949  0.00  0.00    +0.000 C 
ATOM     21  C   UNL     1       4.415   3.476  18.938  0.00  0.00    +0.000 C 
ENDBRANCH  14  19
ENDBRANCH   1  14
BRANCH  13  22
ATOM     22  C   UNL     1       3.075   7.755  17.299  0.00  0.00    +0.000 C 
BRANCH  22  23
ATOM     23  C   UNL     1       4.267   6.769  17.328  0.00  0.00    +0.000 C 
BRANCH  23  24
ATOM     24  N   UNL     1       5.420   7.056  16.438  0.00  0.00    +0.000 NA
ATOM     25  C   UNL     1       5.579   5.965  15.432  0.00  0.00    +0.000 C 
ATOM     26  C   UNL     1       6.134   4.650  16.015  0.00  0.00    +0.000 C 
ATOM     27  O   UNL     1       7.400   4.861  16.650  0.00  0.00    +0.000 OA
ATOM     28  C   UNL     1       7.289   5.847  17.684  0.00  0.00    +0.000 C 
ATOM     29  C   UNL     1       6.718   7.174  17.146  0.00  0.00    +0.000 C 
ENDBRANCH  23  24
ENDBRANCH  22  23
ENDBRANCH  13  22
TORSDOF 5
ENDMDL
