MODEL 1
REMARK VINA RESULT:      -6.5      0.000      0.000
REMARK  Name = 
REMARK  10 active torsions:
REMARK  status: ('A' for Active; 'I' for Inactive)
REMARK    1  A    between atoms: C_1  and  C_2
REMARK    2  A    between atoms: C_2  and  O_3
REMARK    3  A    between atoms: O_3  and  C_4
REMARK    4  A    between atoms: C_4  and  C_6
REMARK    5  A    between atoms: N_10  and  C_11
REMARK    6  A    between atoms: C_11  and  C_12
REMARK    7  A    between atoms: C_15  and  O_16
REMARK    8  A    between atoms: O_16  and  C_17
REMARK    9  A    between atoms: C_20  and  O_21
REMARK   10  A    between atoms: O_21  and  C_22
REMARK                            x       y       z     vdW  Elec       q    Type
REMARK                         _______ _______ _______ _____ _____    ______ ____
ROOT
ATOM      1  C   UNL     1       2.886   4.609  20.185  0.00  0.00    +0.000 A 
ATOM      2  C   UNL     1       2.658   5.856  19.621  0.00  0.00    +0.000 A 
ATOM      3  C   UNL     1       3.519   6.018  18.525  0.00  0.00    +0.000 A 
ATOM      4  C   UNL     1       4.317   4.892  18.452  0.00  0.00    +0.000 A 
ATOM      5  N   UNL     1       3.907   4.020  19.445  0.00  0.00    +0.000 N 
ATOM      6  C   UNL     1       5.373   4.759  17.462  0.00  0.00    +0.000 C 
ATOM      7  O   UNL     1       6.067   3.759  17.322  0.00  0.00    +0.000 OA
ATOM      8  C   UNL     1       5.582   5.978  16.579  0.00  0.00    +0.000 C 
ATOM      9  C   UNL     1       4.706   7.002  16.621  0.00  0.00    +0.000 C 
ATOM     10  C   UNL     1       3.614   7.131  17.609  0.00  0.00    +0.000 C 
ATOM     11  O   UNL     1       2.901   8.123  17.648  0.00  0.00    +0.000 OA
ENDROOT
BRANCH   1  12
ATOM     12  C   UNL     1       2.148   4.026  21.289  0.00  0.00    +0.000 C 
ATOM     13  O   UNL     1       2.587   3.762  22.399  0.00  0.00    +0.000 OA
BRANCH  12  14
ATOM     14  O   UNL     1       0.892   3.722  20.853  0.00  0.00    +0.000 OA
BRANCH  14  16
ATOM     15  C   UNL     1       0.459   2.715  18.728  0.00  0.00    +0.000 C 
ATOM     16  C   UNL     1       0.726   2.459  20.202  0.00  0.00    +0.000 C 
ENDBRANCH  14  16
ENDBRANCH  12  14
ENDBRANCH   1  12
BRANCH   5  17
ATOM     17  C   UNL     1       4.476   2.699  19.692  0.00  0.00    +0.000 C 
ATOM     18  C   UNL     1       3.881   1.617  18.805  0.00  0.00    +0.000 C 
ENDBRANCH   5  17
BRANCH   8  19
ATOM     19  O   UNL     1       6.688   5.954  15.725  0.00  0.00    +0.000 OA
BRANCH  19  20
ATOM     20  C   UNL     1       6.634   5.185  14.578  0.00  0.00    +0.000 A 
ATOM     21  C   UNL     1       5.583   4.311  14.284  0.00  0.00    +0.000 A 
ATOM     22  C   UNL     1       5.633   3.519  13.136  0.00  0.00    +0.000 A 
ATOM     23  C   UNL     1       6.686   3.648  12.234  0.00  0.00    +0.000 A 
ATOM     24  C   UNL     1       7.713   4.554  12.498  0.00  0.00    +0.000 A 
ATOM     25  C   UNL     1       7.687   5.324  13.671  0.00  0.00    +0.000 A 
BRANCH  23  26
ATOM     26  O   UNL     1       6.632   2.805  11.160  0.00  0.00    +0.000 OA
ATOM     27  C   UNL     1       5.908   1.598  11.371  0.00  0.00    +0.000 C 
ENDBRANCH  23  26
ENDBRANCH  19  20
ENDBRANCH   8  19
TORSDOF 7
ENDMDL
MODEL 2
REMARK VINA RESULT:      -6.5      4.352      8.008
REMARK  Name = 
REMARK  10 active torsions:
REMARK  status: ('A' for Active; 'I' for Inactive)
REMARK    1  A    between atoms: C_1  and  C_2
REMARK    2  A    between atoms: C_2  and  O_3
REMARK    3  A    between atoms: O_3  and  C_4
REMARK    4  A    between atoms: C_4  and  C_6
REMARK    5  A    between atoms: N_10  and  C_11
REMARK    6  A    between atoms: C_11  and  C_12
REMARK    7  A    between atoms: C_15  and  O_16
REMARK    8  A    between atoms: O_16  and  C_17
REMARK    9  A    between atoms: C_20  and  O_21
REMARK   10  A    between atoms: O_21  and  C_22
REMARK                            x       y       z     vdW  Elec       q    Type
REMARK                         _______ _______ _______ _____ _____    ______ ____
ROOT
ATOM      1  C   UNL     1       4.009   5.300  18.864  0.00  0.00    +0.000 A 
ATOM      2  C   UNL     1       3.177   5.506  19.956  0.00  0.00    +0.000 A 
ATOM      3  C   UNL     1       2.456   6.694  19.753  0.00  0.00    +0.000 A 
ATOM      4  C   UNL     1       2.890   7.247  18.563  0.00  0.00    +0.000 A 
ATOM      5  N   UNL     1       3.813   6.379  18.006  0.00  0.00    +0.000 N 
ATOM      6  C   UNL     1       2.392   8.524  18.081  0.00  0.00    +0.000 C 
ATOM      7  O   UNL     1       2.703   9.026  17.007  0.00  0.00    +0.000 OA
ATOM      8  C   UNL     1       1.431   9.235  19.020  0.00  0.00    +0.000 C 
ATOM      9  C   UNL     1       0.961   8.600  20.113  0.00  0.00    +0.000 C 
ATOM     10  C   UNL     1       1.445   7.289  20.594  0.00  0.00    +0.000 C 
ATOM     11  O   UNL     1       1.036   6.800  21.637  0.00  0.00    +0.000 OA
ENDROOT
BRANCH   1  12
ATOM     12  C   UNL     1       4.861   4.145  18.649  0.00  0.00    +0.000 C 
ATOM     13  O   UNL     1       6.001   3.996  19.064  0.00  0.00    +0.000 OA
BRANCH  12  14
ATOM     14  O   UNL     1       4.212   3.284  17.815  0.00  0.00    +0.000 OA
BRANCH  14  16
ATOM     15  C   UNL     1       2.069   2.252  18.056  0.00  0.00    +0.000 C 
ATOM     16  C   UNL     1       3.541   2.179  18.428  0.00  0.00    +0.000 C 
ENDBRANCH  14  16
ENDBRANCH  12  14
ENDBRANCH   1  12
BRANCH   5  17
ATOM     17  C   UNL     1       4.493   6.578  16.731  0.00  0.00    +0.000 C 
ATOM     18  C   UNL     1       5.953   6.973  16.888  0.00  0.00    +0.000 C 
ENDBRANCH   5  17
BRANCH   8  19
ATOM     19  O   UNL     1       1.055  10.534  18.671  0.00  0.00    +0.000 OA
BRANCH  19  20
ATOM     20  C   UNL     1      -0.288  10.835  18.552  0.00  0.00    +0.000 A 
ATOM     21  C   UNL     1      -0.915  11.863  19.263  0.00  0.00    +0.000 A 
ATOM     22  C   UNL     1      -2.290  12.062  19.137  0.00  0.00    +0.000 A 
ATOM     23  C   UNL     1      -3.036  11.296  18.245  0.00  0.00    +0.000 A 
ATOM     24  C   UNL     1      -2.407  10.301  17.497  0.00  0.00    +0.000 A 
ATOM     25  C   UNL     1      -1.032  10.070  17.650  0.00  0.00    +0.000 A 
BRANCH  23  26
ATOM     26  O   UNL     1      -4.375  11.572  18.227  0.00  0.00    +0.000 OA
ATOM     27  C   UNL     1      -4.939  11.761  16.934  0.00  0.00    +0.000 C 
ENDBRANCH  23  26
ENDBRANCH  19  20
ENDBRANCH   8  19
TORSDOF 7
ENDMDL
MODEL 3
REMARK VINA RESULT:      -6.5      1.594      2.993
REMARK  Name = 
REMARK  10 active torsions:
REMARK  status: ('A' for Active; 'I' for Inactive)
REMARK    1  A    between atoms: C_1  and  C_2
REMARK    2  A    between atoms: C_2  and  O_3
REMARK    3  A    between atoms: O_3  and  C_4
REMARK    4  A    between atoms: C_4  and  C_6
REMARK    5  A    between atoms: N_10  and  C_11
REMARK    6  A    between atoms: C_11  and  C_12
REMARK    7  A    between atoms: C_15  and  O_16
REMARK    8  A    between atoms: O_16  and  C_17
REMARK    9  A    between atoms: C_20  and  O_21
REMARK   10  A    between atoms: O_21  and  C_22
REMARK                            x       y       z     vdW  Elec       q    Type
REMARK                         _______ _______ _______ _____ _____    ______ ____
ROOT
ATOM      1  C   UNL     1       3.259   5.974  19.485  0.00  0.00    +0.000 A 
ATOM      2  C   UNL     1       4.452   5.357  19.834  0.00  0.00    +0.000 A 
ATOM      3  C   UNL     1       5.362   5.505  18.776  0.00  0.00    +0.000 A 
ATOM      4  C   UNL     1       4.706   6.162  17.751  0.00  0.00    +0.000 A 
ATOM      5  N   UNL     1       3.434   6.476  18.199  0.00  0.00    +0.000 N 
ATOM      6  C   UNL     1       5.342   6.422  16.471  0.00  0.00    +0.000 C 
ATOM      7  O   UNL     1       4.822   7.049  15.556  0.00  0.00    +0.000 OA
ATOM      8  C   UNL     1       6.741   5.845  16.321  0.00  0.00    +0.000 C 
ATOM      9  C   UNL     1       7.370   5.310  17.387  0.00  0.00    +0.000 C 
ATOM     10  C   UNL     1       6.736   5.067  18.699  0.00  0.00    +0.000 C 
ATOM     11  O   UNL     1       7.335   4.505  19.605  0.00  0.00    +0.000 OA
ENDROOT
BRANCH   1  12
ATOM     12  C   UNL     1       2.091   6.113  20.335  0.00  0.00    +0.000 C 
ATOM     13  O   UNL     1       1.491   7.149  20.581  0.00  0.00    +0.000 OA
BRANCH  12  14
ATOM     14  O   UNL     1       1.827   4.902  20.901  0.00  0.00    +0.000 OA
BRANCH  14  16
ATOM     15  C   UNL     1       1.417   2.636  20.259  0.00  0.00    +0.000 C 
ATOM     16  C   UNL     1       0.893   4.062  20.216  0.00  0.00    +0.000 C 
ENDBRANCH  14  16
ENDBRANCH  12  14
ENDBRANCH   1  12
BRANCH   5  17
ATOM     17  C   UNL     1       2.427   7.199  17.430  0.00  0.00    +0.000 C 
ATOM     18  C   UNL     1       2.427   8.695  17.702  0.00  0.00    +0.000 C 
ENDBRANCH   5  17
BRANCH   8  19
ATOM     19  O   UNL     1       7.324   5.932  15.054  0.00  0.00    +0.000 OA
BRANCH  19  20
ATOM     20  C   UNL     1       6.965   5.014  14.085  0.00  0.00    +0.000 A 
ATOM     21  C   UNL     1       7.579   4.934  12.832  0.00  0.00    +0.000 A 
ATOM     22  C   UNL     1       7.115   4.022  11.883  0.00  0.00    +0.000 A 
ATOM     23  C   UNL     1       6.093   3.131  12.200  0.00  0.00    +0.000 A 
ATOM     24  C   UNL     1       5.509   3.174  13.466  0.00  0.00    +0.000 A 
ATOM     25  C   UNL     1       5.945   4.116  14.410  0.00  0.00    +0.000 A 
BRANCH  23  26
ATOM     26  O   UNL     1       5.714   2.302  11.182  0.00  0.00    +0.000 OA
ATOM     27  C   UNL     1       6.296   1.004  11.207  0.00  0.00    +0.000 C 
ENDBRANCH  23  26
ENDBRANCH  19  20
ENDBRANCH   8  19
TORSDOF 7
ENDMDL
MODEL 4
REMARK VINA RESULT:      -6.4      4.075      8.774
REMARK  Name = 
REMARK  10 active torsions:
REMARK  status: ('A' for Active; 'I' for Inactive)
REMARK    1  A    between atoms: C_1  and  C_2
REMARK    2  A    between atoms: C_2  and  O_3
REMARK    3  A    between atoms: O_3  and  C_4
REMARK    4  A    between atoms: C_4  and  C_6
REMARK    5  A    between atoms: N_10  and  C_11
REMARK    6  A    between atoms: C_11  and  C_12
REMARK    7  A    between atoms: C_15  and  O_16
REMARK    8  A    between atoms: O_16  and  C_17
REMARK    9  A    between atoms: C_20  and  O_21
REMARK   10  A    between atoms: O_21  and  C_22
REMARK                            x       y       z     vdW  Elec       q    Type
REMARK                         _______ _______ _______ _____ _____    ______ ____
ROOT
ATOM      1  C   UNL     1       4.495   5.478  17.378  0.00  0.00    +0.000 A 
ATOM      2  C   UNL     1       4.028   6.722  16.978  0.00  0.00    +0.000 A 
ATOM      3  C   UNL     1       3.199   7.236  17.987  0.00  0.00    +0.000 A 
ATOM      4  C   UNL     1       3.111   6.280  18.982  0.00  0.00    +0.000 A 
ATOM      5  N   UNL     1       3.928   5.222  18.624  0.00  0.00    +0.000 N 
ATOM      6  C   UNL     1       2.272   6.464  20.155  0.00  0.00    +0.000 C 
ATOM      7  O   UNL     1       2.206   5.672  21.088  0.00  0.00    +0.000 OA
ATOM      8  C   UNL     1       1.444   7.739  20.158  0.00  0.00    +0.000 C 
ATOM      9  C   UNL     1       1.652   8.683  19.218  0.00  0.00    +0.000 C 
ATOM     10  C   UNL     1       2.523   8.512  18.037  0.00  0.00    +0.000 C 
ATOM     11  O   UNL     1       2.610   9.375  17.175  0.00  0.00    +0.000 OA
ENDROOT
BRANCH   1  12
ATOM     12  C   UNL     1       5.442   4.650  16.654  0.00  0.00    +0.000 C 
ATOM     13  O   UNL     1       5.201   3.589  16.096  0.00  0.00    +0.000 OA
BRANCH  12  14
ATOM     14  O   UNL     1       6.681   5.204  16.781  0.00  0.00    +0.000 OA
BRANCH  14  16
ATOM     15  C   UNL     1       7.752   5.896  18.803  0.00  0.00    +0.000 C 
ATOM     16  C   UNL     1       7.488   4.731  17.864  0.00  0.00    +0.000 C 
ENDBRANCH  14  16
ENDBRANCH  12  14
ENDBRANCH   1  12
BRANCH   5  17
ATOM     17  C   UNL     1       4.141   4.017  19.418  0.00  0.00    +0.000 C 
ATOM     18  C   UNL     1       3.247   2.861  19.000  0.00  0.00    +0.000 C 
ENDBRANCH   5  17
BRANCH   8  19
ATOM     19  O   UNL     1       0.507   7.877  21.185  0.00  0.00    +0.000 OA
BRANCH  19  20
ATOM     20  C   UNL     1      -0.068   9.115  21.407  0.00  0.00    +0.000 A 
ATOM     21  C   UNL     1      -0.480   9.969  20.380  0.00  0.00    +0.000 A 
ATOM     22  C   UNL     1      -0.992  11.231  20.684  0.00  0.00    +0.000 A 
ATOM     23  C   UNL     1      -1.173  11.619  22.009  0.00  0.00    +0.000 A 
ATOM     24  C   UNL     1      -0.808  10.751  23.038  0.00  0.00    +0.000 A 
ATOM     25  C   UNL     1      -0.255   9.497  22.737  0.00  0.00    +0.000 A 
BRANCH  23  26
ATOM     26  O   UNL     1      -1.663  12.884  22.178  0.00  0.00    +0.000 OA
ATOM     27  C   UNL     1      -1.614  13.383  23.509  0.00  0.00    +0.000 C 
ENDBRANCH  23  26
ENDBRANCH  19  20
ENDBRANCH   8  19
TORSDOF 7
ENDMDL
MODEL 5
REMARK VINA RESULT:      -6.3      3.709      8.581
REMARK  Name = 
REMARK  10 active torsions:
REMARK  status: ('A' for Active; 'I' for Inactive)
REMARK    1  A    between atoms: C_1  and  C_2
REMARK    2  A    between atoms: C_2  and  O_3
REMARK    3  A    between atoms: O_3  and  C_4
REMARK    4  A    between atoms: C_4  and  C_6
REMARK    5  A    between atoms: N_10  and  C_11
REMARK    6  A    between atoms: C_11  and  C_12
REMARK    7  A    between atoms: C_15  and  O_16
REMARK    8  A    between atoms: O_16  and  C_17
REMARK    9  A    between atoms: C_20  and  O_21
REMARK   10  A    between atoms: O_21  and  C_22
REMARK                            x       y       z     vdW  Elec       q    Type
REMARK                         _______ _______ _______ _____ _____    ______ ____
ROOT
ATOM      1  C   UNL     1       5.025   5.342  17.327  0.00  0.00    +0.000 A 
ATOM      2  C   UNL     1       4.472   6.547  16.917  0.00  0.00    +0.000 A 
ATOM      3  C   UNL     1       3.559   6.978  17.892  0.00  0.00    +0.000 A 
ATOM      4  C   UNL     1       3.508   6.007  18.874  0.00  0.00    +0.000 A 
ATOM      5  N   UNL     1       4.427   5.025  18.543  0.00  0.00    +0.000 N 
ATOM      6  C   UNL     1       2.607   6.105  20.009  0.00  0.00    +0.000 C 
ATOM      7  O   UNL     1       2.567   5.300  20.932  0.00  0.00    +0.000 OA
ATOM      8  C   UNL     1       1.675   7.306  19.986  0.00  0.00    +0.000 C 
ATOM      9  C   UNL     1       1.844   8.275  19.064  0.00  0.00    +0.000 C 
ATOM     10  C   UNL     1       2.778   8.192  17.922  0.00  0.00    +0.000 C 
ATOM     11  O   UNL     1       2.829   9.070  17.072  0.00  0.00    +0.000 OA
ENDROOT
BRANCH   1  12
ATOM     12  C   UNL     1       6.068   4.605  16.638  0.00  0.00    +0.000 C 
ATOM     13  O   UNL     1       7.228   4.475  17.003  0.00  0.00    +0.000 OA
BRANCH  12  14
ATOM     14  O   UNL     1       5.565   4.158  15.453  0.00  0.00    +0.000 OA
BRANCH  14  16
ATOM     15  C   UNL     1       5.736   3.652  13.123  0.00  0.00    +0.000 C 
ATOM     16  C   UNL     1       6.349   4.417  14.284  0.00  0.00    +0.000 C 
ENDBRANCH  14  16
ENDBRANCH  12  14
ENDBRANCH   1  12
BRANCH   5  17
ATOM     17  C   UNL     1       4.706   3.833  19.336  0.00  0.00    +0.000 C 
ATOM     18  C   UNL     1       3.862   2.635  18.930  0.00  0.00    +0.000 C 
ENDBRANCH   5  17
BRANCH   8  19
ATOM     19  O   UNL     1       0.686   7.354  20.972  0.00  0.00    +0.000 OA
BRANCH  19  20
ATOM     20  C   UNL     1       0.187   8.582  21.364  0.00  0.00    +0.000 A 
ATOM     21  C   UNL     1      -0.208   9.577  20.465  0.00  0.00    +0.000 A 
ATOM     22  C   UNL     1      -0.640  10.816  20.939  0.00  0.00    +0.000 A 
ATOM     23  C   UNL     1      -0.759  11.046  22.308  0.00  0.00    +0.000 A 
ATOM     24  C   UNL     1      -0.412  10.039  23.208  0.00  0.00    +0.000 A 
ATOM     25  C   UNL     1       0.061   8.806  22.736  0.00  0.00    +0.000 A 
BRANCH  23  26
ATOM     26  O   UNL     1      -1.173  12.303  22.647  0.00  0.00    +0.000 OA
ATOM     27  C   UNL     1      -2.583  12.487  22.693  0.00  0.00    +0.000 C 
ENDBRANCH  23  26
ENDBRANCH  19  20
ENDBRANCH   8  19
TORSDOF 7
ENDMDL
MODEL 6
REMARK VINA RESULT:      -6.3      6.527      8.956
REMARK  Name = 
REMARK  10 active torsions:
REMARK  status: ('A' for Active; 'I' for Inactive)
REMARK    1  A    between atoms: C_1  and  C_2
REMARK    2  A    between atoms: C_2  and  O_3
REMARK    3  A    between atoms: O_3  and  C_4
REMARK    4  A    between atoms: C_4  and  C_6
REMARK    5  A    between atoms: N_10  and  C_11
REMARK    6  A    between atoms: C_11  and  C_12
REMARK    7  A    between atoms: C_15  and  O_16
REMARK    8  A    between atoms: O_16  and  C_17
REMARK    9  A    between atoms: C_20  and  O_21
REMARK   10  A    between atoms: O_21  and  C_22
REMARK                            x       y       z     vdW  Elec       q    Type
REMARK                         _______ _______ _______ _____ _____    ______ ____
ROOT
ATOM      1  C   UNL     1      -2.725  12.435  20.221  0.00  0.00    +0.000 A 
ATOM      2  C   UNL     1      -2.771  11.866  18.956  0.00  0.00    +0.000 A 
ATOM      3  C   UNL     1      -1.663  11.018  18.804  0.00  0.00    +0.000 A 
ATOM      4  C   UNL     1      -0.904  11.115  19.956  0.00  0.00    +0.000 A 
ATOM      5  N   UNL     1      -1.571  11.954  20.831  0.00  0.00    +0.000 N 
ATOM      6  C   UNL     1       0.359  10.411  20.107  0.00  0.00    +0.000 C 
ATOM      7  O   UNL     1       1.037  10.420  21.128  0.00  0.00    +0.000 OA
ATOM      8  C   UNL     1       0.814   9.638  18.880  0.00  0.00    +0.000 C 
ATOM      9  C   UNL     1      -0.017   9.491  17.828  0.00  0.00    +0.000 C 
ATOM     10  C   UNL     1      -1.313  10.183  17.680  0.00  0.00    +0.000 C 
ATOM     11  O   UNL     1      -1.986  10.071  16.665  0.00  0.00    +0.000 OA
ENDROOT
BRANCH   1  12
ATOM     12  C   UNL     1      -3.729  13.310  20.798  0.00  0.00    +0.000 C 
ATOM     13  O   UNL     1      -3.693  14.531  20.838  0.00  0.00    +0.000 OA
BRANCH  12  14
ATOM     14  O   UNL     1      -4.685  12.535  21.386  0.00  0.00    +0.000 OA
BRANCH  14  16
ATOM     15  C   UNL     1      -7.013  12.356  21.899  0.00  0.00    +0.000 C 
ATOM     16  C   UNL     1      -5.989  12.566  20.796  0.00  0.00    +0.000 C 
ENDBRANCH  14  16
ENDBRANCH  12  14
ENDBRANCH   1  12
BRANCH   5  17
ATOM     17  C   UNL     1      -1.119  12.300  22.175  0.00  0.00    +0.000 C 
ATOM     18  C   UNL     1      -1.669  11.372  23.247  0.00  0.00    +0.000 C 
ENDBRANCH   5  17
BRANCH   8  19
ATOM     19  O   UNL     1       2.094   9.081  18.927  0.00  0.00    +0.000 OA
BRANCH  19  20
ATOM     20  C   UNL     1       2.227   7.716  19.098  0.00  0.00    +0.000 A 
ATOM     21  C   UNL     1       1.821   7.040  20.252  0.00  0.00    +0.000 A 
ATOM     22  C   UNL     1       2.049   5.669  20.376  0.00  0.00    +0.000 A 
ATOM     23  C   UNL     1       2.608   4.948  19.324  0.00  0.00    +0.000 A 
ATOM     24  C   UNL     1       2.971   5.610  18.151  0.00  0.00    +0.000 A 
ATOM     25  C   UNL     1       2.780   6.995  18.037  0.00  0.00    +0.000 A 
BRANCH  23  26
ATOM     26  O   UNL     1       2.800   3.618  19.573  0.00  0.00    +0.000 OA
ATOM     27  C   UNL     1       4.130   3.150  19.387  0.00  0.00    +0.000 C 
ENDBRANCH  23  26
ENDBRANCH  19  20
ENDBRANCH   8  19
TORSDOF 7
ENDMDL
MODEL 7
REMARK VINA RESULT:      -6.3      7.965     10.480
REMARK  Name = 
REMARK  10 active torsions:
REMARK  status: ('A' for Active; 'I' for Inactive)
REMARK    1  A    between atoms: C_1  and  C_2
REMARK    2  A    between atoms: C_2  and  O_3
REMARK    3  A    between atoms: O_3  and  C_4
REMARK    4  A    between atoms: C_4  and  C_6
REMARK    5  A    between atoms: N_10  and  C_11
REMARK    6  A    between atoms: C_11  and  C_12
REMARK    7  A    between atoms: C_15  and  O_16
REMARK    8  A    between atoms: O_16  and  C_17
REMARK    9  A    between atoms: C_20  and  O_21
REMARK   10  A    between atoms: O_21  and  C_22
REMARK                            x       y       z     vdW  Elec       q    Type
REMARK                         _______ _______ _______ _____ _____    ______ ____
ROOT
ATOM      1  C   UNL     1      -4.942  12.580  19.323  0.00  0.00    +0.000 A 
ATOM      2  C   UNL     1      -4.773  11.776  18.205  0.00  0.00    +0.000 A 
ATOM      3  C   UNL     1      -3.454  11.297  18.190  0.00  0.00    +0.000 A 
ATOM      4  C   UNL     1      -2.796  11.856  19.269  0.00  0.00    +0.000 A 
ATOM      5  N   UNL     1      -3.714  12.613  19.977  0.00  0.00    +0.000 N 
ATOM      6  C   UNL     1      -1.383  11.620  19.516  0.00  0.00    +0.000 C 
ATOM      7  O   UNL     1      -0.771  12.046  20.489  0.00  0.00    +0.000 OA
ATOM      8  C   UNL     1      -0.677  10.788  18.458  0.00  0.00    +0.000 C 
ATOM      9  C   UNL     1      -1.391  10.180  17.489  0.00  0.00    +0.000 C 
ATOM     10  C   UNL     1      -2.832  10.396  17.248  0.00  0.00    +0.000 C 
ATOM     11  O   UNL     1      -3.408   9.877  16.303  0.00  0.00    +0.000 OA
ENDROOT
BRANCH   1  12
ATOM     12  C   UNL     1      -6.182  13.205  19.745  0.00  0.00    +0.000 C 
ATOM     13  O   UNL     1      -7.079  12.679  20.388  0.00  0.00    +0.000 OA
BRANCH  12  14
ATOM     14  O   UNL     1      -6.231  14.460  19.215  0.00  0.00    +0.000 OA
BRANCH  14  16
ATOM     15  C   UNL     1      -6.891  14.652  16.926  0.00  0.00    +0.000 C 
ATOM     16  C   UNL     1      -7.347  14.759  18.372  0.00  0.00    +0.000 C 
ENDBRANCH  14  16
ENDBRANCH  12  14
ENDBRANCH   1  12
BRANCH   5  17
ATOM     17  C   UNL     1      -3.429  13.349  21.204  0.00  0.00    +0.000 C 
ATOM     18  C   UNL     1      -3.014  14.790  20.954  0.00  0.00    +0.000 C 
ENDBRANCH   5  17
BRANCH   8  19
ATOM     19  O   UNL     1       0.711  10.672  18.572  0.00  0.00    +0.000 OA
BRANCH  19  20
ATOM     20  C   UNL     1       1.257   9.449  18.911  0.00  0.00    +0.000 A 
ATOM     21  C   UNL     1       1.111   8.862  20.172  0.00  0.00    +0.000 A 
ATOM     22  C   UNL     1       1.749   7.654  20.458  0.00  0.00    +0.000 A 
ATOM     23  C   UNL     1       2.467   6.983  19.472  0.00  0.00    +0.000 A 
ATOM     24  C   UNL     1       2.575   7.541  18.198  0.00  0.00    +0.000 A 
ATOM     25  C   UNL     1       1.970   8.775  17.917  0.00  0.00    +0.000 A 
BRANCH  23  26
ATOM     26  O   UNL     1       3.061   5.822  19.880  0.00  0.00    +0.000 OA
ATOM     27  C   UNL     1       4.216   5.438  19.144  0.00  0.00    +0.000 C 
ENDBRANCH  23  26
ENDBRANCH  19  20
ENDBRANCH   8  19
TORSDOF 7
ENDMDL
MODEL 8
REMARK VINA RESULT:      -6.2      8.211     10.746
REMARK  Name = 
REMARK  10 active torsions:
REMARK  status: ('A' for Active; 'I' for Inactive)
REMARK    1  A    between atoms: C_1  and  C_2
REMARK    2  A    between atoms: C_2  and  O_3
REMARK    3  A    between atoms: O_3  and  C_4
REMARK    4  A    between atoms: C_4  and  C_6
REMARK    5  A    between atoms: N_10  and  C_11
REMARK    6  A    between atoms: C_11  and  C_12
REMARK    7  A    between atoms: C_15  and  O_16
REMARK    8  A    between atoms: O_16  and  C_17
REMARK    9  A    between atoms: C_20  and  O_21
REMARK   10  A    between atoms: O_21  and  C_22
REMARK                            x       y       z     vdW  Elec       q    Type
REMARK                         _______ _______ _______ _____ _____    ______ ____
ROOT
ATOM      1  C   UNL     1      -5.635  12.042  18.493  0.00  0.00    +0.000 A 
ATOM      2  C   UNL     1      -5.132  11.338  17.409  0.00  0.00    +0.000 A 
ATOM      3  C   UNL     1      -3.778  11.053  17.647  0.00  0.00    +0.000 A 
ATOM      4  C   UNL     1      -3.436  11.636  18.853  0.00  0.00    +0.000 A 
ATOM      5  N   UNL     1      -4.578  12.210  19.383  0.00  0.00    +0.000 N 
ATOM      6  C   UNL     1      -2.080  11.589  19.374  0.00  0.00    +0.000 C 
ATOM      7  O   UNL     1      -1.741  12.040  20.461  0.00  0.00    +0.000 OA
ATOM      8  C   UNL     1      -1.063  10.930  18.456  0.00  0.00    +0.000 C 
ATOM      9  C   UNL     1      -1.473  10.285  17.345  0.00  0.00    +0.000 C 
ATOM     10  C   UNL     1      -2.855  10.307  16.825  0.00  0.00    +0.000 C 
ATOM     11  O   UNL     1      -3.150   9.769  15.767  0.00  0.00    +0.000 OA
ENDROOT
BRANCH   1  12
ATOM     12  C   UNL     1      -7.014  12.457  18.674  0.00  0.00    +0.000 C 
ATOM     13  O   UNL     1      -7.781  12.073  19.544  0.00  0.00    +0.000 OA
BRANCH  12  14
ATOM     14  O   UNL     1      -7.351  13.282  17.642  0.00  0.00    +0.000 OA
BRANCH  14  16
ATOM     15  C   UNL     1      -7.822  15.395  18.656  0.00  0.00    +0.000 C 
ATOM     16  C   UNL     1      -6.892  14.635  17.725  0.00  0.00    +0.000 C 
ENDBRANCH  14  16
ENDBRANCH  12  14
ENDBRANCH   1  12
BRANCH   5  17
ATOM     17  C   UNL     1      -4.654  12.905  20.664  0.00  0.00    +0.000 C 
ATOM     18  C   UNL     1      -4.457  14.408  20.540  0.00  0.00    +0.000 C 
ENDBRANCH   5  17
BRANCH   8  19
ATOM     19  O   UNL     1       0.277  11.007  18.844  0.00  0.00    +0.000 OA
BRANCH  19  20
ATOM     20  C   UNL     1       1.037   9.852  18.868  0.00  0.00    +0.000 A 
ATOM     21  C   UNL     1       1.878   9.460  17.823  0.00  0.00    +0.000 A 
ATOM     22  C   UNL     1       2.562   8.246  17.894  0.00  0.00    +0.000 A 
ATOM     23  C   UNL     1       2.478   7.454  19.037  0.00  0.00    +0.000 A 
ATOM     24  C   UNL     1       1.678   7.864  20.103  0.00  0.00    +0.000 A 
ATOM     25  C   UNL     1       0.956   9.065  20.019  0.00  0.00    +0.000 A 
BRANCH  23  26
ATOM     26  O   UNL     1       3.177   6.281  18.978  0.00  0.00    +0.000 OA
ATOM     27  C   UNL     1       2.962   5.390  20.067  0.00  0.00    +0.000 C 
ENDBRANCH  23  26
ENDBRANCH  19  20
ENDBRANCH   8  19
TORSDOF 7
ENDMDL
MODEL 9
REMARK VINA RESULT:      -6.2      7.292      9.749
REMARK  Name = 
REMARK  10 active torsions:
REMARK  status: ('A' for Active; 'I' for Inactive)
REMARK    1  A    between atoms: C_1  and  C_2
REMARK    2  A    between atoms: C_2  and  O_3
REMARK    3  A    between atoms: O_3  and  C_4
REMARK    4  A    between atoms: C_4  and  C_6
REMARK    5  A    between atoms: N_10  and  C_11
REMARK    6  A    between atoms: C_11  and  C_12
REMARK    7  A    between atoms: C_15  and  O_16
REMARK    8  A    between atoms: O_16  and  C_17
REMARK    9  A    between atoms: C_20  and  O_21
REMARK   10  A    between atoms: O_21  and  C_22
REMARK                            x       y       z     vdW  Elec       q    Type
REMARK                         _______ _______ _______ _____ _____    ______ ____
ROOT
ATOM      1  C   UNL     1      -4.252  12.312  19.606  0.00  0.00    +0.000 A 
ATOM      2  C   UNL     1      -3.281  12.983  20.335  0.00  0.00    +0.000 A 
ATOM      3  C   UNL     1      -2.017  12.580  19.877  0.00  0.00    +0.000 A 
ATOM      4  C   UNL     1      -2.213  11.616  18.906  0.00  0.00    +0.000 A 
ATOM      5  N   UNL     1      -3.578  11.478  18.719  0.00  0.00    +0.000 N 
ATOM      6  C   UNL     1      -1.103  10.934  18.263  0.00  0.00    +0.000 C 
ATOM      7  O   UNL     1      -1.225  10.115  17.359  0.00  0.00    +0.000 OA
ATOM      8  C   UNL     1       0.272  11.300  18.798  0.00  0.00    +0.000 C 
ATOM      9  C   UNL     1       0.409  12.323  19.666  0.00  0.00    +0.000 C 
ATOM     10  C   UNL     1      -0.715  13.038  20.304  0.00  0.00    +0.000 C 
ATOM     11  O   UNL     1      -0.528  13.905  21.145  0.00  0.00    +0.000 OA
ENDROOT
BRANCH   1  12
ATOM     12  C   UNL     1      -5.686  12.504  19.718  0.00  0.00    +0.000 C 
ATOM     13  O   UNL     1      -6.367  13.292  19.076  0.00  0.00    +0.000 OA
BRANCH  12  14
ATOM     14  O   UNL     1      -6.145  11.725  20.738  0.00  0.00    +0.000 OA
BRANCH  14  16
ATOM     15  C   UNL     1      -7.166   9.818  19.722  0.00  0.00    +0.000 C 
ATOM     16  C   UNL     1      -7.405  11.078  20.536  0.00  0.00    +0.000 C 
ENDBRANCH  14  16
ENDBRANCH  12  14
ENDBRANCH   1  12
BRANCH   5  17
ATOM     17  C   UNL     1      -4.208  10.578  17.759  0.00  0.00    +0.000 C 
ATOM     18  C   UNL     1      -4.438  11.221  16.400  0.00  0.00    +0.000 C 
ENDBRANCH   5  17
BRANCH   8  19
ATOM     19  O   UNL     1       1.352  10.552  18.321  0.00  0.00    +0.000 OA
BRANCH  19  20
ATOM     20  C   UNL     1       1.587   9.299  18.854  0.00  0.00    +0.000 A 
ATOM     21  C   UNL     1       1.175   8.914  20.133  0.00  0.00    +0.000 A 
ATOM     22  C   UNL     1       1.509   7.651  20.625  0.00  0.00    +0.000 A 
ATOM     23  C   UNL     1       2.183   6.736  19.820  0.00  0.00    +0.000 A 
ATOM     24  C   UNL     1       2.554   7.098  18.526  0.00  0.00    +0.000 A 
ATOM     25  C   UNL     1       2.256   8.380  18.042  0.00  0.00    +0.000 A 
BRANCH  23  26
ATOM     26  O   UNL     1       2.469   5.542  20.421  0.00  0.00    +0.000 OA
ATOM     27  C   UNL     1       2.596   4.433  19.540  0.00  0.00    +0.000 C 
ENDBRANCH  23  26
ENDBRANCH  19  20
ENDBRANCH   8  19
TORSDOF 7
ENDMDL
