MODEL 1
REMARK VINA RESULT:      -6.9      0.000      0.000
REMARK  Name = 
REMARK  9 active torsions:
REMARK  status: ('A' for Active; 'I' for Inactive)
REMARK    1  A    between atoms: C_1  and  O_2
REMARK    2  A    between atoms: O_2  and  C_3
REMARK    3  A    between atoms: C_6  and  C_7
REMARK    4  A    between atoms: C_7  and  C_8
REMARK    5  A    between atoms: C_10  and  C_11
REMARK    6  A    between atoms: C_14  and  O_15
REMARK    7  A    between atoms: O_15  and  C_16
REMARK    8  A    between atoms: C_17  and  O_18
REMARK    9  A    between atoms: O_18  and  C_19
REMARK                            x       y       z     vdW  Elec       q    Type
REMARK                         _______ _______ _______ _____ _____    ______ ____
ROOT
ATOM      1  C   UNL     1       1.689   8.046  19.760  0.00  0.00    +0.000 C 
ATOM      2  C   UNL     1       2.055   6.796  20.117  0.00  0.00    +0.000 C 
ENDROOT
BRANCH   1   6
ATOM      3  C   UNL     1      -0.430  10.628  22.500  0.00  0.00    +0.000 A 
ATOM      4  C   UNL     1       0.236   9.494  22.960  0.00  0.00    +0.000 A 
ATOM      5  C   UNL     1       0.938   8.666  22.074  0.00  0.00    +0.000 A 
ATOM      6  C   UNL     1       0.970   8.945  20.700  0.00  0.00    +0.000 A 
ATOM      7  C   UNL     1       0.295  10.094  20.252  0.00  0.00    +0.000 A 
ATOM      8  C   UNL     1      -0.405  10.923  21.140  0.00  0.00    +0.000 A 
BRANCH   3  10
ATOM      9  C   UNL     1      -2.332  11.923  23.045  0.00  0.00    +0.000 C 
ATOM     10  O   UNL     1      -1.099  11.342  23.454  0.00  0.00    +0.000 OA
ENDBRANCH   3  10
ENDBRANCH   1   6
BRANCH   2  11
ATOM     11  C   UNL     1       2.840   5.884  19.272  0.00  0.00    +0.000 A 
ATOM     12  C   UNL     1       2.275   5.254  18.167  0.00  0.00    +0.000 A 
ATOM     13  C   UNL     1       3.061   4.410  17.382  0.00  0.00    +0.000 A 
ATOM     14  C   UNL     1       4.416   4.185  17.675  0.00  0.00    +0.000 A 
ATOM     15  C   UNL     1       4.989   4.815  18.796  0.00  0.00    +0.000 A 
ATOM     16  C   UNL     1       4.188   5.658  19.584  0.00  0.00    +0.000 A 
BRANCH  14  17
ATOM     17  O   UNL     1       5.003   3.336  16.772  0.00  0.00    +0.000 OA
ATOM     18  C   UNL     1       5.715   3.882  15.673  0.00  0.00    +0.000 C 
ENDBRANCH  14  17
BRANCH  15  19
ATOM     19  O   UNL     1       6.308   4.573  19.074  0.00  0.00    +0.000 OA
ATOM     20  C   UNL     1       7.266   5.564  18.726  0.00  0.00    +0.000 C 
ENDBRANCH  15  19
ENDBRANCH   2  11
BRANCH   1  21
ATOM     21  C   UNL     1       2.086   8.560  18.386  0.00  0.00    +0.000 C 
ATOM     22  N   UNL     1       2.416   8.986  17.245  0.00  0.00    +0.000 NA
ENDBRANCH   1  21
TORSDOF 6
ENDMDL
MODEL 2
REMARK VINA RESULT:      -6.8      0.333      1.077
REMARK  Name = 
REMARK  9 active torsions:
REMARK  status: ('A' for Active; 'I' for Inactive)
REMARK    1  A    between atoms: C_1  and  O_2
REMARK    2  A    between atoms: O_2  and  C_3
REMARK    3  A    between atoms: C_6  and  C_7
REMARK    4  A    between atoms: C_7  and  C_8
REMARK    5  A    between atoms: C_10  and  C_11
REMARK    6  A    between atoms: C_14  and  O_15
REMARK    7  A    between atoms: O_15  and  C_16
REMARK    8  A    between atoms: C_17  and  O_18
REMARK    9  A    between atoms: O_18  and  C_19
REMARK                            x       y       z     vdW  Elec       q    Type
REMARK                         _______ _______ _______ _____ _____    ______ ____
ROOT
ATOM      1  C   UNL     1       1.668   8.004  19.798  0.00  0.00    +0.000 C 
ATOM      2  C   UNL     1       2.038   6.749  20.134  0.00  0.00    +0.000 C 
ENDROOT
BRANCH   1   6
ATOM      3  C   UNL     1      -0.422  10.588  22.557  0.00  0.00    +0.000 A 
ATOM      4  C   UNL     1      -0.424  10.856  21.189  0.00  0.00    +0.000 A 
ATOM      5  C   UNL     1       0.239  10.008  20.293  0.00  0.00    +0.000 A 
ATOM      6  C   UNL     1       0.939   8.882  20.750  0.00  0.00    +0.000 A 
ATOM      7  C   UNL     1       0.929   8.625  22.131  0.00  0.00    +0.000 A 
ATOM      8  C   UNL     1       0.263   9.472  23.028  0.00  0.00    +0.000 A 
BRANCH   3  10
ATOM      9  C   UNL     1      -1.126  12.830  22.828  0.00  0.00    +0.000 C 
ATOM     10  O   UNL     1      -1.081  11.500  23.333  0.00  0.00    +0.000 OA
ENDBRANCH   3  10
ENDBRANCH   1   6
BRANCH   2  11
ATOM     11  C   UNL     1       2.832   5.856  19.278  0.00  0.00    +0.000 A 
ATOM     12  C   UNL     1       2.274   5.236  18.164  0.00  0.00    +0.000 A 
ATOM     13  C   UNL     1       3.068   4.410  17.367  0.00  0.00    +0.000 A 
ATOM     14  C   UNL     1       4.425   4.194  17.658  0.00  0.00    +0.000 A 
ATOM     15  C   UNL     1       4.991   4.814  18.788  0.00  0.00    +0.000 A 
ATOM     16  C   UNL     1       4.182   5.638  19.587  0.00  0.00    +0.000 A 
BRANCH  14  17
ATOM     17  O   UNL     1       5.020   3.363  16.745  0.00  0.00    +0.000 OA
ATOM     18  C   UNL     1       5.774   3.930  15.684  0.00  0.00    +0.000 C 
ENDBRANCH  14  17
BRANCH  15  19
ATOM     19  O   UNL     1       6.312   4.581  19.064  0.00  0.00    +0.000 OA
ATOM     20  C   UNL     1       7.256   5.602  18.769  0.00  0.00    +0.000 C 
ENDBRANCH  15  19
ENDBRANCH   2  11
BRANCH   1  21
ATOM     21  C   UNL     1       2.071   8.544  18.436  0.00  0.00    +0.000 C 
ATOM     22  N   UNL     1       2.406   8.993  17.305  0.00  0.00    +0.000 NA
ENDBRANCH   1  21
TORSDOF 6
ENDMDL
MODEL 3
REMARK VINA RESULT:      -6.4      2.647      8.525
REMARK  Name = 
REMARK  9 active torsions:
REMARK  status: ('A' for Active; 'I' for Inactive)
REMARK    1  A    between atoms: C_1  and  O_2
REMARK    2  A    between atoms: O_2  and  C_3
REMARK    3  A    between atoms: C_6  and  C_7
REMARK    4  A    between atoms: C_7  and  C_8
REMARK    5  A    between atoms: C_10  and  C_11
REMARK    6  A    between atoms: C_14  and  O_15
REMARK    7  A    between atoms: O_15  and  C_16
REMARK    8  A    between atoms: C_17  and  O_18
REMARK    9  A    between atoms: O_18  and  C_19
REMARK                            x       y       z     vdW  Elec       q    Type
REMARK                         _______ _______ _______ _____ _____    ______ ____
ROOT
ATOM      1  C   UNL     1       2.177   7.870  18.485  0.00  0.00    +0.000 C 
ATOM      2  C   UNL     1       1.744   8.879  17.699  0.00  0.00    +0.000 C 
ENDROOT
BRANCH   1   6
ATOM      3  C   UNL     1       4.799   4.805  16.939  0.00  0.00    +0.000 A 
ATOM      4  C   UNL     1       5.091   6.155  16.752  0.00  0.00    +0.000 A 
ATOM      5  C   UNL     1       4.251   7.149  17.268  0.00  0.00    +0.000 A 
ATOM      6  C   UNL     1       3.082   6.812  17.967  0.00  0.00    +0.000 A 
ATOM      7  C   UNL     1       2.802   5.447  18.149  0.00  0.00    +0.000 A 
ATOM      8  C   UNL     1       3.645   4.453  17.634  0.00  0.00    +0.000 A 
BRANCH   3  10
ATOM      9  C   UNL     1       6.994   4.427  16.147  0.00  0.00    +0.000 C 
ATOM     10  O   UNL     1       5.679   3.930  16.367  0.00  0.00    +0.000 OA
ENDBRANCH   3  10
ENDBRANCH   1   6
BRANCH   2  11
ATOM     11  C   UNL     1       0.918  10.003  18.163  0.00  0.00    +0.000 A 
ATOM     12  C   UNL     1       1.491  11.140  18.724  0.00  0.00    +0.000 A 
ATOM     13  C   UNL     1       0.671  12.191  19.136  0.00  0.00    +0.000 A 
ATOM     14  C   UNL     1      -0.725  12.135  18.990  0.00  0.00    +0.000 A 
ATOM     15  C   UNL     1      -1.308  10.983  18.429  0.00  0.00    +0.000 A 
ATOM     16  C   UNL     1      -0.476   9.927  18.024  0.00  0.00    +0.000 A 
BRANCH  14  17
ATOM     17  O   UNL     1      -1.335  13.274  19.444  0.00  0.00    +0.000 OA
ATOM     18  C   UNL     1      -0.535  14.381  19.828  0.00  0.00    +0.000 C 
ENDBRANCH  14  17
BRANCH  15  19
ATOM     19  O   UNL     1      -2.672  10.940  18.307  0.00  0.00    +0.000 OA
ATOM     20  C   UNL     1      -3.256   9.846  17.611  0.00  0.00    +0.000 C 
ENDBRANCH  15  19
ENDBRANCH   2  11
BRANCH   1  21
ATOM     21  C   UNL     1       1.776   7.864  19.952  0.00  0.00    +0.000 C 
ATOM     22  N   UNL     1       1.443   7.859  21.169  0.00  0.00    +0.000 NA
ENDBRANCH   1  21
TORSDOF 6
ENDMDL
MODEL 4
REMARK VINA RESULT:      -6.3      1.175      1.320
REMARK  Name = 
REMARK  9 active torsions:
REMARK  status: ('A' for Active; 'I' for Inactive)
REMARK    1  A    between atoms: C_1  and  O_2
REMARK    2  A    between atoms: O_2  and  C_3
REMARK    3  A    between atoms: C_6  and  C_7
REMARK    4  A    between atoms: C_7  and  C_8
REMARK    5  A    between atoms: C_10  and  C_11
REMARK    6  A    between atoms: C_14  and  O_15
REMARK    7  A    between atoms: O_15  and  C_16
REMARK    8  A    between atoms: C_17  and  O_18
REMARK    9  A    between atoms: O_18  and  C_19
REMARK                            x       y       z     vdW  Elec       q    Type
REMARK                         _______ _______ _______ _____ _____    ______ ____
ROOT
ATOM      1  C   UNL     1       1.457   7.985  20.082  0.00  0.00    +0.000 C 
ATOM      2  C   UNL     1       1.564   6.728  20.567  0.00  0.00    +0.000 C 
ENDROOT
BRANCH   1   6
ATOM      3  C   UNL     1      -0.342  11.147  22.412  0.00  0.00    +0.000 A 
ATOM      4  C   UNL     1      -0.238   9.855  22.924  0.00  0.00    +0.000 A 
ATOM      5  C   UNL     1       0.360   8.834  22.176  0.00  0.00    +0.000 A 
ATOM      6  C   UNL     1       0.851   9.079  20.885  0.00  0.00    +0.000 A 
ATOM      7  C   UNL     1       0.741  10.388  20.384  0.00  0.00    +0.000 A 
ATOM      8  C   UNL     1       0.143  11.410  21.134  0.00  0.00    +0.000 A 
BRANCH   3  10
ATOM      9  C   UNL     1      -0.954  13.402  22.778  0.00  0.00    +0.000 C 
ATOM     10  O   UNL     1      -0.968  12.050  23.224  0.00  0.00    +0.000 OA
ENDBRANCH   3  10
ENDBRANCH   1   6
BRANCH   2  11
ATOM     11  C   UNL     1       2.226   5.619  19.865  0.00  0.00    +0.000 A 
ATOM     12  C   UNL     1       1.494   4.666  19.164  0.00  0.00    +0.000 A 
ATOM     13  C   UNL     1       2.163   3.638  18.498  0.00  0.00    +0.000 A 
ATOM     14  C   UNL     1       3.564   3.546  18.510  0.00  0.00    +0.000 A 
ATOM     15  C   UNL     1       4.308   4.504  19.224  0.00  0.00    +0.000 A 
ATOM     16  C   UNL     1       3.625   5.531  19.897  0.00  0.00    +0.000 A 
BRANCH  14  17
ATOM     17  O   UNL     1       4.015   2.474  17.784  0.00  0.00    +0.000 OA
ATOM     18  C   UNL     1       3.888   1.170  18.328  0.00  0.00    +0.000 C 
ENDBRANCH  14  17
BRANCH  15  19
ATOM     19  O   UNL     1       5.673   4.391  19.236  0.00  0.00    +0.000 OA
ATOM     20  C   UNL     1       6.418   5.067  18.232  0.00  0.00    +0.000 C 
ENDBRANCH  15  19
ENDBRANCH   2  11
BRANCH   1  21
ATOM     21  C   UNL     1       2.034   8.291  18.710  0.00  0.00    +0.000 C 
ATOM     22  N   UNL     1       2.512   8.544  17.570  0.00  0.00    +0.000 NA
ENDBRANCH   1  21
TORSDOF 6
ENDMDL
MODEL 5
REMARK VINA RESULT:      -6.3      1.223      2.384
REMARK  Name = 
REMARK  9 active torsions:
REMARK  status: ('A' for Active; 'I' for Inactive)
REMARK    1  A    between atoms: C_1  and  O_2
REMARK    2  A    between atoms: O_2  and  C_3
REMARK    3  A    between atoms: C_6  and  C_7
REMARK    4  A    between atoms: C_7  and  C_8
REMARK    5  A    between atoms: C_10  and  C_11
REMARK    6  A    between atoms: C_14  and  O_15
REMARK    7  A    between atoms: O_15  and  C_16
REMARK    8  A    between atoms: C_17  and  O_18
REMARK    9  A    between atoms: O_18  and  C_19
REMARK                            x       y       z     vdW  Elec       q    Type
REMARK                         _______ _______ _______ _____ _____    ______ ____
ROOT
ATOM      1  C   UNL     1       1.367   8.344  19.946  0.00  0.00    +0.000 C 
ATOM      2  C   UNL     1       1.720   7.098  20.332  0.00  0.00    +0.000 C 
ENDROOT
BRANCH   1   6
ATOM      3  C   UNL     1      -0.576  11.094  22.652  0.00  0.00    +0.000 A 
ATOM      4  C   UNL     1      -0.056  11.536  21.437  0.00  0.00    +0.000 A 
ATOM      5  C   UNL     1       0.558  10.642  20.552  0.00  0.00    +0.000 A 
ATOM      6  C   UNL     1       0.686   9.283  20.874  0.00  0.00    +0.000 A 
ATOM      7  C   UNL     1       0.154   8.852  22.102  0.00  0.00    +0.000 A 
ATOM      8  C   UNL     1      -0.462   9.747  22.986  0.00  0.00    +0.000 A 
BRANCH   3  10
ATOM      9  C   UNL     1      -1.345  13.323  22.818  0.00  0.00    +0.000 C 
ATOM     10  O   UNL     1      -1.128  12.063  23.441  0.00  0.00    +0.000 OA
ENDBRANCH   3  10
ENDBRANCH   1   6
BRANCH   2  11
ATOM     11  C   UNL     1       2.469   6.148  19.498  0.00  0.00    +0.000 A 
ATOM     12  C   UNL     1       3.822   6.330  19.228  0.00  0.00    +0.000 A 
ATOM     13  C   UNL     1       4.499   5.394  18.445  0.00  0.00    +0.000 A 
ATOM     14  C   UNL     1       3.849   4.262  17.927  0.00  0.00    +0.000 A 
ATOM     15  C   UNL     1       2.479   4.078  18.192  0.00  0.00    +0.000 A 
ATOM     16  C   UNL     1       1.804   5.029  18.975  0.00  0.00    +0.000 A 
BRANCH  14  17
ATOM     17  O   UNL     1       4.698   3.469  17.201  0.00  0.00    +0.000 OA
ATOM     18  C   UNL     1       5.402   4.033  16.105  0.00  0.00    +0.000 C 
ENDBRANCH  14  17
BRANCH  15  19
ATOM     19  O   UNL     1       1.858   2.976  17.668  0.00  0.00    +0.000 OA
ATOM     20  C   UNL     1       1.146   2.115  18.548  0.00  0.00    +0.000 C 
ENDBRANCH  15  19
ENDBRANCH   2  11
BRANCH   1  21
ATOM     21  C   UNL     1       1.740   8.808  18.548  0.00  0.00    +0.000 C 
ATOM     22  N   UNL     1       2.050   9.194  17.387  0.00  0.00    +0.000 NA
ENDBRANCH   1  21
TORSDOF 6
ENDMDL
MODEL 6
REMARK VINA RESULT:      -6.3      2.508      8.317
REMARK  Name = 
REMARK  9 active torsions:
REMARK  status: ('A' for Active; 'I' for Inactive)
REMARK    1  A    between atoms: C_1  and  O_2
REMARK    2  A    between atoms: O_2  and  C_3
REMARK    3  A    between atoms: C_6  and  C_7
REMARK    4  A    between atoms: C_7  and  C_8
REMARK    5  A    between atoms: C_10  and  C_11
REMARK    6  A    between atoms: C_14  and  O_15
REMARK    7  A    between atoms: O_15  and  C_16
REMARK    8  A    between atoms: C_17  and  O_18
REMARK    9  A    between atoms: O_18  and  C_19
REMARK                            x       y       z     vdW  Elec       q    Type
REMARK                         _______ _______ _______ _____ _____    ______ ____
ROOT
ATOM      1  C   UNL     1       2.327   7.764  18.403  0.00  0.00    +0.000 C 
ATOM      2  C   UNL     1       1.964   8.816  17.638  0.00  0.00    +0.000 C 
ENDROOT
BRANCH   1   6
ATOM      3  C   UNL     1       4.803   4.602  16.812  0.00  0.00    +0.000 A 
ATOM      4  C   UNL     1       5.195   5.936  16.708  0.00  0.00    +0.000 A 
ATOM      5  C   UNL     1       4.401   6.959  17.239  0.00  0.00    +0.000 A 
ATOM      6  C   UNL     1       3.181   6.671  17.870  0.00  0.00    +0.000 A 
ATOM      7  C   UNL     1       2.802   5.322  17.969  0.00  0.00    +0.000 A 
ATOM      8  C   UNL     1       3.598   4.298  17.439  0.00  0.00    +0.000 A 
BRANCH   3  10
ATOM      9  C   UNL     1       6.079   4.004  14.913  0.00  0.00    +0.000 C 
ATOM     10  O   UNL     1       5.648   3.697  16.234  0.00  0.00    +0.000 OA
ENDBRANCH   3  10
ENDBRANCH   1   6
BRANCH   2  11
ATOM     11  C   UNL     1       1.193   9.971  18.121  0.00  0.00    +0.000 A 
ATOM     12  C   UNL     1      -0.195   9.931  18.208  0.00  0.00    +0.000 A 
ATOM     13  C   UNL     1      -0.886  11.044  18.689  0.00  0.00    +0.000 A 
ATOM     14  C   UNL     1      -0.213  12.206  19.097  0.00  0.00    +0.000 A 
ATOM     15  C   UNL     1       1.191  12.254  19.003  0.00  0.00    +0.000 A 
ATOM     16  C   UNL     1       1.878  11.131  18.513  0.00  0.00    +0.000 A 
BRANCH  14  17
ATOM     17  O   UNL     1      -1.077  13.170  19.546  0.00  0.00    +0.000 OA
ATOM     18  C   UNL     1      -2.329  12.778  20.087  0.00  0.00    +0.000 C 
ENDBRANCH  14  17
BRANCH  15  19
ATOM     19  O   UNL     1       1.830  13.401  19.393  0.00  0.00    +0.000 OA
ATOM     20  C   UNL     1       2.384  13.457  20.701  0.00  0.00    +0.000 C 
ENDBRANCH  15  19
ENDBRANCH   2  11
BRANCH   1  21
ATOM     21  C   UNL     1       1.902   7.740  19.862  0.00  0.00    +0.000 C 
ATOM     22  N   UNL     1       1.549   7.721  21.074  0.00  0.00    +0.000 NA
ENDBRANCH   1  21
TORSDOF 6
ENDMDL
MODEL 7
REMARK VINA RESULT:      -6.2      1.137      2.086
REMARK  Name = 
REMARK  9 active torsions:
REMARK  status: ('A' for Active; 'I' for Inactive)
REMARK    1  A    between atoms: C_1  and  O_2
REMARK    2  A    between atoms: O_2  and  C_3
REMARK    3  A    between atoms: C_6  and  C_7
REMARK    4  A    between atoms: C_7  and  C_8
REMARK    5  A    between atoms: C_10  and  C_11
REMARK    6  A    between atoms: C_14  and  O_15
REMARK    7  A    between atoms: O_15  and  C_16
REMARK    8  A    between atoms: C_17  and  O_18
REMARK    9  A    between atoms: O_18  and  C_19
REMARK                            x       y       z     vdW  Elec       q    Type
REMARK                         _______ _______ _______ _____ _____    ______ ____
ROOT
ATOM      1  C   UNL     1       1.453   8.355  19.852  0.00  0.00    +0.000 C 
ATOM      2  C   UNL     1       1.808   7.104  20.217  0.00  0.00    +0.000 C 
ENDROOT
BRANCH   1   6
ATOM      3  C   UNL     1      -0.554  11.020  22.596  0.00  0.00    +0.000 A 
ATOM      4  C   UNL     1      -0.316   9.690  22.939  0.00  0.00    +0.000 A 
ATOM      5  C   UNL     1       0.350   8.831  22.057  0.00  0.00    +0.000 A 
ATOM      6  C   UNL     1       0.775   9.279  20.797  0.00  0.00    +0.000 A 
ATOM      7  C   UNL     1       0.530  10.623  20.468  0.00  0.00    +0.000 A 
ATOM      8  C   UNL     1      -0.135  11.483  21.352  0.00  0.00    +0.000 A 
BRANCH   3  10
ATOM      9  C   UNL     1      -1.449  13.122  23.206  0.00  0.00    +0.000 C 
ATOM     10  O   UNL     1      -1.234  11.753  23.528  0.00  0.00    +0.000 OA
ENDBRANCH   3  10
ENDBRANCH   1   6
BRANCH   2  11
ATOM     11  C   UNL     1       2.554   6.167  19.366  0.00  0.00    +0.000 A 
ATOM     12  C   UNL     1       3.895   6.378  19.057  0.00  0.00    +0.000 A 
ATOM     13  C   UNL     1       4.570   5.454  18.259  0.00  0.00    +0.000 A 
ATOM     14  C   UNL     1       3.931   4.306  17.763  0.00  0.00    +0.000 A 
ATOM     15  C   UNL     1       2.573   4.093  18.067  0.00  0.00    +0.000 A 
ATOM     16  C   UNL     1       1.900   5.031  18.866  0.00  0.00    +0.000 A 
BRANCH  14  17
ATOM     17  O   UNL     1       4.777   3.529  17.016  0.00  0.00    +0.000 OA
ATOM     18  C   UNL     1       5.790   4.155  16.245  0.00  0.00    +0.000 C 
ENDBRANCH  14  17
BRANCH  15  19
ATOM     19  O   UNL     1       1.962   2.975  17.564  0.00  0.00    +0.000 OA
ATOM     20  C   UNL     1       1.741   1.873  18.435  0.00  0.00    +0.000 C 
ENDBRANCH  15  19
ENDBRANCH   2  11
BRANCH   1  21
ATOM     21  C   UNL     1       1.821   8.841  18.460  0.00  0.00    +0.000 C 
ATOM     22  N   UNL     1       2.126   9.245  17.304  0.00  0.00    +0.000 NA
ENDBRANCH   1  21
TORSDOF 6
ENDMDL
MODEL 8
REMARK VINA RESULT:      -6.2      2.085      8.417
REMARK  Name = 
REMARK  9 active torsions:
REMARK  status: ('A' for Active; 'I' for Inactive)
REMARK    1  A    between atoms: C_1  and  O_2
REMARK    2  A    between atoms: O_2  and  C_3
REMARK    3  A    between atoms: C_6  and  C_7
REMARK    4  A    between atoms: C_7  and  C_8
REMARK    5  A    between atoms: C_10  and  C_11
REMARK    6  A    between atoms: C_14  and  O_15
REMARK    7  A    between atoms: O_15  and  C_16
REMARK    8  A    between atoms: C_17  and  O_18
REMARK    9  A    between atoms: O_18  and  C_19
REMARK                            x       y       z     vdW  Elec       q    Type
REMARK                         _______ _______ _______ _____ _____    ______ ____
ROOT
ATOM      1  C   UNL     1       2.731   6.659  18.432  0.00  0.00    +0.000 C 
ATOM      2  C   UNL     1       2.404   7.953  18.221  0.00  0.00    +0.000 C 
ENDROOT
BRANCH   1   6
ATOM      3  C   UNL     1       5.551   4.569  15.914  0.00  0.00    +0.000 A 
ATOM      4  C   UNL     1       4.600   3.868  16.654  0.00  0.00    +0.000 A 
ATOM      5  C   UNL     1       3.674   4.546  17.456  0.00  0.00    +0.000 A 
ATOM      6  C   UNL     1       3.694   5.946  17.554  0.00  0.00    +0.000 A 
ATOM      7  C   UNL     1       4.657   6.638  16.800  0.00  0.00    +0.000 A 
ATOM      8  C   UNL     1       5.582   5.958  15.995  0.00  0.00    +0.000 A 
BRANCH   3  10
ATOM      9  C   UNL     1       6.360   3.962  13.777  0.00  0.00    +0.000 C 
ATOM     10  O   UNL     1       6.414   3.797  15.189  0.00  0.00    +0.000 OA
ENDBRANCH   3  10
ENDBRANCH   1   6
BRANCH   2  11
ATOM     11  C   UNL     1       1.527   8.744  19.095  0.00  0.00    +0.000 A 
ATOM     12  C   UNL     1       1.561   8.600  20.479  0.00  0.00    +0.000 A 
ATOM     13  C   UNL     1       0.723   9.384  21.273  0.00  0.00    +0.000 A 
ATOM     14  C   UNL     1      -0.153  10.325  20.709  0.00  0.00    +0.000 A 
ATOM     15  C   UNL     1      -0.196  10.469  19.309  0.00  0.00    +0.000 A 
ATOM     16  C   UNL     1       0.646   9.671  18.518  0.00  0.00    +0.000 A 
BRANCH  14  17
ATOM     17  O   UNL     1      -0.872  10.995  21.664  0.00  0.00    +0.000 OA
ATOM     18  C   UNL     1      -0.829  10.538  23.007  0.00  0.00    +0.000 C 
ENDBRANCH  14  17
BRANCH  15  19
ATOM     19  O   UNL     1      -1.066  11.382  18.776  0.00  0.00    +0.000 OA
ATOM     20  C   UNL     1      -0.581  12.683  18.471  0.00  0.00    +0.000 C 
ENDBRANCH  15  19
ENDBRANCH   2  11
BRANCH   1  21
ATOM     21  C   UNL     1       2.145   5.945  19.639  0.00  0.00    +0.000 C 
ATOM     22  N   UNL     1       1.658   5.352  20.641  0.00  0.00    +0.000 NA
ENDBRANCH   1  21
TORSDOF 6
ENDMDL
MODEL 9
REMARK VINA RESULT:      -6.2      2.185      8.480
REMARK  Name = 
REMARK  9 active torsions:
REMARK  status: ('A' for Active; 'I' for Inactive)
REMARK    1  A    between atoms: C_1  and  O_2
REMARK    2  A    between atoms: O_2  and  C_3
REMARK    3  A    between atoms: C_6  and  C_7
REMARK    4  A    between atoms: C_7  and  C_8
REMARK    5  A    between atoms: C_10  and  C_11
REMARK    6  A    between atoms: C_14  and  O_15
REMARK    7  A    between atoms: O_15  and  C_16
REMARK    8  A    between atoms: C_17  and  O_18
REMARK    9  A    between atoms: O_18  and  C_19
REMARK                            x       y       z     vdW  Elec       q    Type
REMARK                         _______ _______ _______ _____ _____    ______ ____
ROOT
ATOM      1  C   UNL     1       2.791   6.662  18.333  0.00  0.00    +0.000 C 
ATOM      2  C   UNL     1       2.474   7.946  18.054  0.00  0.00    +0.000 C 
ENDROOT
BRANCH   1   6
ATOM      3  C   UNL     1       5.658   4.493  15.939  0.00  0.00    +0.000 A 
ATOM      4  C   UNL     1       5.604   5.885  15.900  0.00  0.00    +0.000 A 
ATOM      5  C   UNL     1       4.687   6.589  16.688  0.00  0.00    +0.000 A 
ATOM      6  C   UNL     1       3.784   5.912  17.522  0.00  0.00    +0.000 A 
ATOM      7  C   UNL     1       3.853   4.509  17.552  0.00  0.00    +0.000 A 
ATOM      8  C   UNL     1       4.773   3.805  16.764  0.00  0.00    +0.000 A 
BRANCH   3  10
ATOM      9  C   UNL     1       6.273   3.965  13.718  0.00  0.00    +0.000 C 
ATOM     10  O   UNL     1       6.577   3.918  15.107  0.00  0.00    +0.000 OA
ENDBRANCH   3  10
ENDBRANCH   1   6
BRANCH   2  11
ATOM     11  C   UNL     1       1.566   8.774  18.861  0.00  0.00    +0.000 A 
ATOM     12  C   UNL     1       1.617   8.762  20.251  0.00  0.00    +0.000 A 
ATOM     13  C   UNL     1       0.749   9.577  20.978  0.00  0.00    +0.000 A 
ATOM     14  C   UNL     1      -0.174  10.421  20.339  0.00  0.00    +0.000 A 
ATOM     15  C   UNL     1      -0.233  10.431  18.933  0.00  0.00    +0.000 A 
ATOM     16  C   UNL     1       0.640   9.602  18.209  0.00  0.00    +0.000 A 
BRANCH  14  17
ATOM     17  O   UNL     1      -0.917  11.143  21.236  0.00  0.00    +0.000 OA
ATOM     18  C   UNL     1      -0.763  10.889  22.623  0.00  0.00    +0.000 C 
ENDBRANCH  14  17
BRANCH  15  19
ATOM     19  O   UNL     1      -1.148  11.251  18.326  0.00  0.00    +0.000 OA
ATOM     20  C   UNL     1      -2.075  10.675  17.416  0.00  0.00    +0.000 C 
ENDBRANCH  15  19
ENDBRANCH   2  11
BRANCH   1  21
ATOM     21  C   UNL     1       2.160   6.002  19.548  0.00  0.00    +0.000 C 
ATOM     22  N   UNL     1       1.637   5.454  20.557  0.00  0.00    +0.000 NA
ENDBRANCH   1  21
TORSDOF 6
ENDMDL
