MODEL 1
REMARK VINA RESULT:      -7.9      0.000      0.000
REMARK  Name = 
REMARK  6 active torsions:
REMARK  status: ('A' for Active; 'I' for Inactive)
REMARK    1  A    between atoms: C_1  and  C_2
REMARK    2  A    between atoms: C_6  and  C_7
REMARK    3  A    between atoms: C_9  and  C_11
REMARK    4  A    between atoms: C_11  and  S_12
REMARK    5  A    between atoms: S_12  and  C_13
REMARK    6  A    between atoms: C_18  and  N_19
REMARK                            x       y       z     vdW  Elec       q    Type
REMARK                         _______ _______ _______ _____ _____    ______ ____
ROOT
ATOM      1  S   UNL     1       6.078   4.391  16.699  0.00  0.00    +0.000 S 
ENDROOT
BRANCH   1   2
ATOM      2  C   UNL     1       6.531   4.412  14.988  0.00  0.00    +0.000 A 
ATOM      3  N   UNL     1       5.903   3.571  14.155  0.00  0.00    +0.000 NA
ATOM      4  C   UNL     1       6.304   3.593  12.882  0.00  0.00    +0.000 A 
ATOM      5  N   UNL     1       5.708   2.668  12.029  0.00  0.00    +0.000 N 
ATOM      6  C   UNL     1       7.306   4.420  12.427  0.00  0.00    +0.000 A 
ATOM      7  C   UNL     1       7.892   5.245  13.353  0.00  0.00    +0.000 A 
ATOM      8  N   UNL     1       7.512   5.265  14.633  0.00  0.00    +0.000 NA
ATOM      9  H   UNL     1       4.950   2.219  12.535  0.00  0.00    +0.000 HD
ATOM     10  H   UNL     1       5.400   3.082  11.157  0.00  0.00    +0.000 HD
BRANCH   7  11
ATOM     11  N   UNL     1       8.880   6.145  12.955  0.00  0.00    +0.000 N 
ATOM     12  H   UNL     1       8.515   7.069  12.748  0.00  0.00    +0.000 HD
ATOM     13  H   UNL     1       9.388   5.747  12.166  0.00  0.00    +0.000 HD
ENDBRANCH   7  11
ENDBRANCH   1   2
BRANCH   1  14
ATOM     14  C   UNL     1       4.238   4.283  16.607  0.00  0.00    +0.000 C 
BRANCH  14  23
ATOM     15  C   UNL     1       4.313   2.413  20.073  0.00  0.00    +0.000 C 
ATOM     16  C   UNL     1       3.280   2.796  19.004  0.00  0.00    +0.000 C 
ATOM     17  C   UNL     1       1.918   2.137  19.281  0.00  0.00    +0.000 C 
ATOM     18  C   UNL     1       1.217   2.737  20.495  0.00  0.00    +0.000 C 
ATOM     19  C   UNL     1       1.109   4.250  20.357  0.00  0.00    +0.000 C 
ATOM     20  C   UNL     1       2.469   4.914  20.068  0.00  0.00    +0.000 C 
ATOM     21  C   UNL     1       2.259   6.433  20.054  0.00  0.00    +0.000 C 
ATOM     22  N   UNL     1       3.119   4.265  18.887  0.00  0.00    +0.000 N 
ATOM     23  C   UNL     1       3.599   5.013  17.799  0.00  0.00    +0.000 C 
ATOM     24  O   UNL     1       3.504   6.246  17.778  0.00  0.00    +0.000 OA
ENDBRANCH  14  23
ENDBRANCH   1  14
TORSDOF 4
ENDMDL
MODEL 2
REMARK VINA RESULT:      -7.9      0.218      1.857
REMARK  Name = 
REMARK  6 active torsions:
REMARK  status: ('A' for Active; 'I' for Inactive)
REMARK    1  A    between atoms: C_1  and  C_2
REMARK    2  A    between atoms: C_6  and  C_7
REMARK    3  A    between atoms: C_9  and  C_11
REMARK    4  A    between atoms: C_11  and  S_12
REMARK    5  A    between atoms: S_12  and  C_13
REMARK    6  A    between atoms: C_18  and  N_19
REMARK                            x       y       z     vdW  Elec       q    Type
REMARK                         _______ _______ _______ _____ _____    ______ ____
ROOT
ATOM      1  S   UNL     1       6.299   4.539  16.596  0.00  0.00    +0.000 S 
ENDROOT
BRANCH   1   2
ATOM      2  C   UNL     1       6.693   4.473  14.872  0.00  0.00    +0.000 A 
ATOM      3  N   UNL     1       7.601   5.336  14.394  0.00  0.00    +0.000 NA
ATOM      4  C   UNL     1       7.837   5.277  13.082  0.00  0.00    +0.000 A 
ATOM      5  N   UNL     1       8.722   6.222  12.570  0.00  0.00    +0.000 N 
ATOM      6  C   UNL     1       7.195   4.393  12.245  0.00  0.00    +0.000 A 
ATOM      7  C   UNL     1       6.281   3.549  12.823  0.00  0.00    +0.000 A 
ATOM      8  N   UNL     1       6.025   3.566  14.134  0.00  0.00    +0.000 NA
ATOM      9  H   UNL     1       9.140   6.716  13.352  0.00  0.00    +0.000 HD
ATOM     10  H   UNL     1       9.416   5.814  11.954  0.00  0.00    +0.000 HD
BRANCH   7  11
ATOM     11  N   UNL     1       5.628   2.594  12.045  0.00  0.00    +0.000 N 
ATOM     12  H   UNL     1       5.027   3.003  11.337  0.00  0.00    +0.000 HD
ATOM     13  H   UNL     1       5.120   1.961  12.661  0.00  0.00    +0.000 HD
ENDBRANCH   7  11
ENDBRANCH   1   2
BRANCH   1  14
ATOM     14  C   UNL     1       4.493   4.159  16.592  0.00  0.00    +0.000 C 
BRANCH  14  23
ATOM     15  C   UNL     1       4.325   2.349  20.087  0.00  0.00    +0.000 C 
ATOM     16  C   UNL     1       3.367   2.722  18.946  0.00  0.00    +0.000 C 
ATOM     17  C   UNL     1       1.984   2.078  19.144  0.00  0.00    +0.000 C 
ATOM     18  C   UNL     1       1.211   2.705  20.299  0.00  0.00    +0.000 C 
ATOM     19  C   UNL     1       1.126   4.216  20.129  0.00  0.00    +0.000 C 
ATOM     20  C   UNL     1       2.508   4.864  19.918  0.00  0.00    +0.000 C 
ATOM     21  C   UNL     1       2.313   6.384  19.865  0.00  0.00    +0.000 C 
ATOM     22  N   UNL     1       3.228   4.189  18.794  0.00  0.00    +0.000 N 
ATOM     23  C   UNL     1       3.785   4.915  17.727  0.00  0.00    +0.000 C 
ATOM     24  O   UNL     1       3.702   6.148  17.679  0.00  0.00    +0.000 OA
ENDBRANCH  14  23
ENDBRANCH   1  14
TORSDOF 4
ENDMDL
MODEL 3
REMARK VINA RESULT:      -7.6      2.789      3.603
REMARK  Name = 
REMARK  6 active torsions:
REMARK  status: ('A' for Active; 'I' for Inactive)
REMARK    1  A    between atoms: C_1  and  C_2
REMARK    2  A    between atoms: C_6  and  C_7
REMARK    3  A    between atoms: C_9  and  C_11
REMARK    4  A    between atoms: C_11  and  S_12
REMARK    5  A    between atoms: S_12  and  C_13
REMARK    6  A    between atoms: C_18  and  N_19
REMARK                            x       y       z     vdW  Elec       q    Type
REMARK                         _______ _______ _______ _____ _____    ______ ____
ROOT
ATOM      1  S   UNL     1       5.606   5.218  15.729  0.00  0.00    +0.000 S 
ENDROOT
BRANCH   1   2
ATOM      2  C   UNL     1       6.663   6.009  16.910  0.00  0.00    +0.000 A 
ATOM      3  N   UNL     1       7.117   5.283  17.941  0.00  0.00    +0.000 NA
ATOM      4  C   UNL     1       7.878   5.929  18.827  0.00  0.00    +0.000 A 
ATOM      5  N   UNL     1       8.288   5.198  19.939  0.00  0.00    +0.000 N 
ATOM      6  C   UNL     1       8.188   7.265  18.714  0.00  0.00    +0.000 A 
ATOM      7  C   UNL     1       7.677   7.926  17.626  0.00  0.00    +0.000 A 
ATOM      8  N   UNL     1       6.923   7.315  16.709  0.00  0.00    +0.000 NA
ATOM      9  H   UNL     1       8.027   4.228  19.790  0.00  0.00    +0.000 HD
ATOM     10  H   UNL     1       9.277   5.308  20.135  0.00  0.00    +0.000 HD
BRANCH   7  11
ATOM     11  N   UNL     1       7.989   9.270  17.420  0.00  0.00    +0.000 N 
ATOM     12  H   UNL     1       8.932   9.408  17.070  0.00  0.00    +0.000 HD
ATOM     13  H   UNL     1       7.820   9.782  18.284  0.00  0.00    +0.000 HD
ENDBRANCH   7  11
ENDBRANCH   1   2
BRANCH   1  14
ATOM     14  C   UNL     1       4.619   4.083  16.799  0.00  0.00    +0.000 C 
BRANCH  14  23
ATOM     15  C   UNL     1       4.284   2.433  20.359  0.00  0.00    +0.000 C 
ATOM     16  C   UNL     1       3.383   2.744  19.155  0.00  0.00    +0.000 C 
ATOM     17  C   UNL     1       1.997   2.098  19.312  0.00  0.00    +0.000 C 
ATOM     18  C   UNL     1       1.161   2.769  20.396  0.00  0.00    +0.000 C 
ATOM     19  C   UNL     1       1.074   4.270  20.153  0.00  0.00    +0.000 C 
ATOM     20  C   UNL     1       2.461   4.921  19.983  0.00  0.00    +0.000 C 
ATOM     21  C   UNL     1       2.259   6.435  19.851  0.00  0.00    +0.000 C 
ATOM     22  N   UNL     1       3.242   4.202  18.929  0.00  0.00    +0.000 N 
ATOM     23  C   UNL     1       3.848   4.884  17.860  0.00  0.00    +0.000 C 
ATOM     24  O   UNL     1       3.760   6.112  17.751  0.00  0.00    +0.000 OA
ENDBRANCH  14  23
ENDBRANCH   1  14
TORSDOF 4
ENDMDL
MODEL 4
REMARK VINA RESULT:      -7.5      2.778      3.799
REMARK  Name = 
REMARK  6 active torsions:
REMARK  status: ('A' for Active; 'I' for Inactive)
REMARK    1  A    between atoms: C_1  and  C_2
REMARK    2  A    between atoms: C_6  and  C_7
REMARK    3  A    between atoms: C_9  and  C_11
REMARK    4  A    between atoms: C_11  and  S_12
REMARK    5  A    between atoms: S_12  and  C_13
REMARK    6  A    between atoms: C_18  and  N_19
REMARK                            x       y       z     vdW  Elec       q    Type
REMARK                         _______ _______ _______ _____ _____    ______ ____
ROOT
ATOM      1  S   UNL     1       5.778   4.970  15.733  0.00  0.00    +0.000 S 
ENDROOT
BRANCH   1   2
ATOM      2  C   UNL     1       6.702   5.889  16.932  0.00  0.00    +0.000 A 
ATOM      3  N   UNL     1       6.917   7.192  16.705  0.00  0.00    +0.000 NA
ATOM      4  C   UNL     1       7.652   7.835  17.614  0.00  0.00    +0.000 A 
ATOM      5  N   UNL     1       7.942   9.170  17.344  0.00  0.00    +0.000 N 
ATOM      6  C   UNL     1       8.175   7.217  18.727  0.00  0.00    +0.000 A 
ATOM      7  C   UNL     1       7.903   5.881  18.875  0.00  0.00    +0.000 A 
ATOM      8  N   UNL     1       7.161   5.203  17.996  0.00  0.00    +0.000 NA
ATOM      9  H   UNL     1       7.402   9.449  16.530  0.00  0.00    +0.000 HD
ATOM     10  H   UNL     1       7.781   9.774  18.142  0.00  0.00    +0.000 HD
BRANCH   7  11
ATOM     11  N   UNL     1       8.358   5.200  20.004  0.00  0.00    +0.000 N 
ATOM     12  H   UNL     1       7.954   5.548  20.867  0.00  0.00    +0.000 HD
ATOM     13  H   UNL     1       9.376   5.230  20.017  0.00  0.00    +0.000 HD
ENDBRANCH   7  11
ENDBRANCH   1   2
BRANCH   1  14
ATOM     14  C   UNL     1       4.726   3.895  16.802  0.00  0.00    +0.000 C 
BRANCH  14  23
ATOM     15  C   UNL     1       4.318   2.418  20.431  0.00  0.00    +0.000 C 
ATOM     16  C   UNL     1       3.441   2.676  19.197  0.00  0.00    +0.000 C 
ATOM     17  C   UNL     1       2.049   2.043  19.359  0.00  0.00    +0.000 C 
ATOM     18  C   UNL     1       1.197   2.769  20.395  0.00  0.00    +0.000 C 
ATOM     19  C   UNL     1       1.122   4.257  20.078  0.00  0.00    +0.000 C 
ATOM     20  C   UNL     1       2.515   4.893  19.904  0.00  0.00    +0.000 C 
ATOM     21  C   UNL     1       2.323   6.400  19.695  0.00  0.00    +0.000 C 
ATOM     22  N   UNL     1       3.311   4.122  18.900  0.00  0.00    +0.000 N 
ATOM     23  C   UNL     1       3.940   4.749  17.810  0.00  0.00    +0.000 C 
ATOM     24  O   UNL     1       3.860   5.971  17.641  0.00  0.00    +0.000 OA
ENDBRANCH  14  23
ENDBRANCH   1  14
TORSDOF 4
ENDMDL
MODEL 5
REMARK VINA RESULT:      -7.5      2.883      3.819
REMARK  Name = 
REMARK  6 active torsions:
REMARK  status: ('A' for Active; 'I' for Inactive)
REMARK    1  A    between atoms: C_1  and  C_2
REMARK    2  A    between atoms: C_6  and  C_7
REMARK    3  A    between atoms: C_9  and  C_11
REMARK    4  A    between atoms: C_11  and  S_12
REMARK    5  A    between atoms: S_12  and  C_13
REMARK    6  A    between atoms: C_18  and  N_19
REMARK                            x       y       z     vdW  Elec       q    Type
REMARK                         _______ _______ _______ _____ _____    ______ ____
ROOT
ATOM      1  S   UNL     1       6.861   4.755  15.477  0.00  0.00    +0.000 S 
ENDROOT
BRANCH   1   2
ATOM      2  C   UNL     1       7.424   5.726  16.846  0.00  0.00    +0.000 A 
ATOM      3  N   UNL     1       7.733   5.095  17.987  0.00  0.00    +0.000 NA
ATOM      4  C   UNL     1       8.115   5.870  19.004  0.00  0.00    +0.000 A 
ATOM      5  N   UNL     1       8.364   5.226  20.213  0.00  0.00    +0.000 N 
ATOM      6  C   UNL     1       8.189   7.242  18.914  0.00  0.00    +0.000 A 
ATOM      7  C   UNL     1       7.851   7.799  17.707  0.00  0.00    +0.000 A 
ATOM      8  N   UNL     1       7.478   7.059  16.660  0.00  0.00    +0.000 NA
ATOM      9  H   UNL     1       8.334   4.225  20.047  0.00  0.00    +0.000 HD
ATOM     10  H   UNL     1       9.234   5.521  20.641  0.00  0.00    +0.000 HD
BRANCH   7  11
ATOM     11  N   UNL     1       7.949   9.179  17.527  0.00  0.00    +0.000 N 
ATOM     12  H   UNL     1       8.831   9.462  17.113  0.00  0.00    +0.000 HD
ATOM     13  H   UNL     1       7.778   9.638  18.419  0.00  0.00    +0.000 HD
ENDBRANCH   7  11
ENDBRANCH   1   2
BRANCH   1  14
ATOM     14  C   UNL     1       5.585   3.681  16.268  0.00  0.00    +0.000 C 
BRANCH  14  23
ATOM     15  C   UNL     1       4.340   2.489  19.810  0.00  0.00    +0.000 C 
ATOM     16  C   UNL     1       3.802   2.558  18.374  0.00  0.00    +0.000 C 
ATOM     17  C   UNL     1       2.462   1.816  18.243  0.00  0.00    +0.000 C 
ATOM     18  C   UNL     1       1.321   2.546  18.944  0.00  0.00    +0.000 C 
ATOM     19  C   UNL     1       1.233   3.988  18.462  0.00  0.00    +0.000 C 
ATOM     20  C   UNL     1       2.577   4.733  18.581  0.00  0.00    +0.000 C 
ATOM     21  C   UNL     1       2.346   6.192  18.171  0.00  0.00    +0.000 C 
ATOM     22  N   UNL     1       3.658   3.955  17.900  0.00  0.00    +0.000 N 
ATOM     23  C   UNL     1       4.507   4.542  16.946  0.00  0.00    +0.000 C 
ATOM     24  O   UNL     1       4.393   5.732  16.633  0.00  0.00    +0.000 OA
ENDBRANCH  14  23
ENDBRANCH   1  14
TORSDOF 4
ENDMDL
MODEL 6
REMARK VINA RESULT:      -7.2      3.201      4.253
REMARK  Name = 
REMARK  6 active torsions:
REMARK  status: ('A' for Active; 'I' for Inactive)
REMARK    1  A    between atoms: C_1  and  C_2
REMARK    2  A    between atoms: C_6  and  C_7
REMARK    3  A    between atoms: C_9  and  C_11
REMARK    4  A    between atoms: C_11  and  S_12
REMARK    5  A    between atoms: S_12  and  C_13
REMARK    6  A    between atoms: C_18  and  N_19
REMARK                            x       y       z     vdW  Elec       q    Type
REMARK                         _______ _______ _______ _____ _____    ______ ____
ROOT
ATOM      1  S   UNL     1       5.153   4.314  16.886  0.00  0.00    +0.000 S 
ENDROOT
BRANCH   1   2
ATOM      2  C   UNL     1       6.389   5.326  17.651  0.00  0.00    +0.000 A 
ATOM      3  N   UNL     1       7.016   4.850  18.736  0.00  0.00    +0.000 NA
ATOM      4  C   UNL     1       7.911   5.662  19.302  0.00  0.00    +0.000 A 
ATOM      5  N   UNL     1       8.509   5.202  20.473  0.00  0.00    +0.000 N 
ATOM      6  C   UNL     1       8.189   6.922  18.822  0.00  0.00    +0.000 A 
ATOM      7  C   UNL     1       7.497   7.323  17.708  0.00  0.00    +0.000 A 
ATOM      8  N   UNL     1       6.603   6.537  17.102  0.00  0.00    +0.000 NA
ATOM      9  H   UNL     1       8.233   4.234  20.606  0.00  0.00    +0.000 HD
ATOM     10  H   UNL     1       9.516   5.321  20.470  0.00  0.00    +0.000 HD
BRANCH   7  11
ATOM     11  N   UNL     1       7.761   8.568  17.137  0.00  0.00    +0.000 N 
ATOM     12  H   UNL     1       7.171   8.769  16.336  0.00  0.00    +0.000 HD
ATOM     13  H   UNL     1       8.752   8.619  16.907  0.00  0.00    +0.000 HD
ENDBRANCH   7  11
ENDBRANCH   1   2
BRANCH   1  14
ATOM     14  C   UNL     1       3.598   5.192  17.352  0.00  0.00    +0.000 C 
BRANCH  14  23
ATOM     15  C   UNL     1       1.442   6.077  20.528  0.00  0.00    +0.000 C 
ATOM     16  C   UNL     1       2.537   5.075  20.133  0.00  0.00    +0.000 C 
ATOM     17  C   UNL     1       3.051   4.298  21.356  0.00  0.00    +0.000 C 
ATOM     18  C   UNL     1       2.022   3.306  21.889  0.00  0.00    +0.000 C 
ATOM     19  C   UNL     1       1.543   2.382  20.777  0.00  0.00    +0.000 C 
ATOM     20  C   UNL     1       1.038   3.158  19.544  0.00  0.00    +0.000 C 
ATOM     21  C   UNL     1       0.487   2.138  18.540  0.00  0.00    +0.000 C 
ATOM     22  N   UNL     1       2.076   4.132  19.087  0.00  0.00    +0.000 N 
ATOM     23  C   UNL     1       2.512   4.181  17.752  0.00  0.00    +0.000 C 
ATOM     24  O   UNL     1       2.047   3.417  16.898  0.00  0.00    +0.000 OA
ENDBRANCH  14  23
ENDBRANCH   1  14
TORSDOF 4
ENDMDL
MODEL 7
REMARK VINA RESULT:      -7.1      3.236      4.369
REMARK  Name = 
REMARK  6 active torsions:
REMARK  status: ('A' for Active; 'I' for Inactive)
REMARK    1  A    between atoms: C_1  and  C_2
REMARK    2  A    between atoms: C_6  and  C_7
REMARK    3  A    between atoms: C_9  and  C_11
REMARK    4  A    between atoms: C_11  and  S_12
REMARK    5  A    between atoms: S_12  and  C_13
REMARK    6  A    between atoms: C_18  and  N_19
REMARK                            x       y       z     vdW  Elec       q    Type
REMARK                         _______ _______ _______ _____ _____    ______ ____
ROOT
ATOM      1  S   UNL     1       5.162   4.189  17.008  0.00  0.00    +0.000 S 
ENDROOT
BRANCH   1   2
ATOM      2  C   UNL     1       6.342   5.279  17.753  0.00  0.00    +0.000 A 
ATOM      3  N   UNL     1       6.564   6.467  17.173  0.00  0.00    +0.000 NA
ATOM      4  C   UNL     1       7.489   7.238  17.746  0.00  0.00    +0.000 A 
ATOM      5  N   UNL     1       7.777   8.440  17.103  0.00  0.00    +0.000 N 
ATOM      6  C   UNL     1       8.193   6.858  18.866  0.00  0.00    +0.000 A 
ATOM      7  C   UNL     1       7.899   5.624  19.389  0.00  0.00    +0.000 A 
ATOM      8  N   UNL     1       6.970   4.826  18.855  0.00  0.00    +0.000 NA
ATOM      9  H   UNL     1       7.100   8.565  16.356  0.00  0.00    +0.000 HD
ATOM     10  H   UNL     1       7.801   9.228  17.740  0.00  0.00    +0.000 HD
BRANCH   7  11
ATOM     11  N   UNL     1       8.537   5.192  20.551  0.00  0.00    +0.000 N 
ATOM     12  H   UNL     1       9.543   5.112  20.445  0.00  0.00    +0.000 HD
ATOM     13  H   UNL     1       8.111   4.318  20.853  0.00  0.00    +0.000 HD
ENDBRANCH   7  11
ENDBRANCH   1   2
BRANCH   1  14
ATOM     14  C   UNL     1       3.577   5.092  17.286  0.00  0.00    +0.000 C 
BRANCH  14  23
ATOM     15  C   UNL     1       1.515   6.085  20.492  0.00  0.00    +0.000 C 
ATOM     16  C   UNL     1       2.576   5.050  20.091  0.00  0.00    +0.000 C 
ATOM     17  C   UNL     1       3.097   4.280  21.317  0.00  0.00    +0.000 C 
ATOM     18  C   UNL     1       2.056   3.324  21.889  0.00  0.00    +0.000 C 
ATOM     19  C   UNL     1       1.528   2.394  20.804  0.00  0.00    +0.000 C 
ATOM     20  C   UNL     1       1.016   3.161  19.569  0.00  0.00    +0.000 C 
ATOM     21  C   UNL     1       0.417   2.139  18.595  0.00  0.00    +0.000 C 
ATOM     22  N   UNL     1       2.068   4.101  19.073  0.00  0.00    +0.000 N 
ATOM     23  C   UNL     1       2.475   4.116  17.727  0.00  0.00    +0.000 C 
ATOM     24  O   UNL     1       1.972   3.350  16.897  0.00  0.00    +0.000 OA
ENDBRANCH  14  23
ENDBRANCH   1  14
TORSDOF 4
ENDMDL
MODEL 8
REMARK VINA RESULT:      -7.0      4.176      6.036
REMARK  Name = 
REMARK  6 active torsions:
REMARK  status: ('A' for Active; 'I' for Inactive)
REMARK    1  A    between atoms: C_1  and  C_2
REMARK    2  A    between atoms: C_6  and  C_7
REMARK    3  A    between atoms: C_9  and  C_11
REMARK    4  A    between atoms: C_11  and  S_12
REMARK    5  A    between atoms: S_12  and  C_13
REMARK    6  A    between atoms: C_18  and  N_19
REMARK                            x       y       z     vdW  Elec       q    Type
REMARK                         _______ _______ _______ _____ _____    ______ ____
ROOT
ATOM      1  S   UNL     1       4.324   6.405  17.388  0.00  0.00    +0.000 S 
ENDROOT
BRANCH   1   2
ATOM      2  C   UNL     1       3.114   7.395  18.220  0.00  0.00    +0.000 A 
ATOM      3  N   UNL     1       2.660   8.494  17.603  0.00  0.00    +0.000 NA
ATOM      4  C   UNL     1       1.779   9.230  18.284  0.00  0.00    +0.000 A 
ATOM      5  N   UNL     1       1.363  10.413  17.677  0.00  0.00    +0.000 N 
ATOM      6  C   UNL     1       1.351   8.905  19.550  0.00  0.00    +0.000 A 
ATOM      7  C   UNL     1       1.872   7.762  20.102  0.00  0.00    +0.000 A 
ATOM      8  N   UNL     1       2.744   6.989  19.450  0.00  0.00    +0.000 NA
ATOM      9  H   UNL     1       1.726  10.424  16.729  0.00  0.00    +0.000 HD
ATOM     10  H   UNL     1       0.357  10.534  17.708  0.00  0.00    +0.000 HD
BRANCH   7  11
ATOM     11  N   UNL     1       1.447   7.342  21.362  0.00  0.00    +0.000 N 
ATOM     12  H   UNL     1       1.653   8.014  22.094  0.00  0.00    +0.000 HD
ATOM     13  H   UNL     1       1.849   6.427  21.556  0.00  0.00    +0.000 HD
ENDBRANCH   7  11
ENDBRANCH   1   2
BRANCH   1  14
ATOM     14  C   UNL     1       3.442   4.794  17.208  0.00  0.00    +0.000 C 
BRANCH  14  23
ATOM     15  C   UNL     1       0.755   2.224  18.509  0.00  0.00    +0.000 C 
ATOM     16  C   UNL     1       1.486   3.472  19.024  0.00  0.00    +0.000 C 
ATOM     17  C   UNL     1       0.900   3.950  20.363  0.00  0.00    +0.000 C 
ATOM     18  C   UNL     1       1.231   3.005  21.514  0.00  0.00    +0.000 C 
ATOM     19  C   UNL     1       2.733   2.765  21.593  0.00  0.00    +0.000 C 
ATOM     20  C   UNL     1       3.327   2.298  20.250  0.00  0.00    +0.000 C 
ATOM     21  C   UNL     1       4.812   1.988  20.474  0.00  0.00    +0.000 C 
ATOM     22  N   UNL     1       2.944   3.246  19.159  0.00  0.00    +0.000 N 
ATOM     23  C   UNL     1       3.900   3.809  18.295  0.00  0.00    +0.000 C 
ATOM     24  O   UNL     1       5.101   3.536  18.404  0.00  0.00    +0.000 OA
ENDBRANCH  14  23
ENDBRANCH   1  14
TORSDOF 4
ENDMDL
MODEL 9
REMARK VINA RESULT:      -7.0      3.191      4.285
REMARK  Name = 
REMARK  6 active torsions:
REMARK  status: ('A' for Active; 'I' for Inactive)
REMARK    1  A    between atoms: C_1  and  C_2
REMARK    2  A    between atoms: C_6  and  C_7
REMARK    3  A    between atoms: C_9  and  C_11
REMARK    4  A    between atoms: C_11  and  S_12
REMARK    5  A    between atoms: S_12  and  C_13
REMARK    6  A    between atoms: C_18  and  N_19
REMARK                            x       y       z     vdW  Elec       q    Type
REMARK                         _______ _______ _______ _____ _____    ______ ____
ROOT
ATOM      1  S   UNL     1       5.323   4.302  16.637  0.00  0.00    +0.000 S 
ENDROOT
BRANCH   1   2
ATOM      2  C   UNL     1       6.484   5.347  17.471  0.00  0.00    +0.000 A 
ATOM      3  N   UNL     1       7.090   4.874  18.569  0.00  0.00    +0.000 NA
ATOM      4  C   UNL     1       7.926   5.710  19.187  0.00  0.00    +0.000 A 
ATOM      5  N   UNL     1       8.499   5.250  20.370  0.00  0.00    +0.000 N 
ATOM      6  C   UNL     1       8.165   6.992  18.746  0.00  0.00    +0.000 A 
ATOM      7  C   UNL     1       7.499   7.389  17.615  0.00  0.00    +0.000 A 
ATOM      8  N   UNL     1       6.664   6.579  16.958  0.00  0.00    +0.000 NA
ATOM      9  H   UNL     1       8.261   4.268  20.472  0.00  0.00    +0.000 HD
ATOM     10  H   UNL     1       9.498   5.413  20.409  0.00  0.00    +0.000 HD
BRANCH   7  11
ATOM     11  N   UNL     1       7.729   8.657  17.081  0.00  0.00    +0.000 N 
ATOM     12  H   UNL     1       8.637   8.740  16.636  0.00  0.00    +0.000 HD
ATOM     13  H   UNL     1       7.596   9.350  17.815  0.00  0.00    +0.000 HD
ENDBRANCH   7  11
ENDBRANCH   1   2
BRANCH   1  14
ATOM     14  C   UNL     1       4.999   3.001  17.907  0.00  0.00    +0.000 C 
BRANCH  14  23
ATOM     15  C   UNL     1       2.777   6.246  18.116  0.00  0.00    +0.000 C 
ATOM     16  C   UNL     1       3.262   5.132  19.054  0.00  0.00    +0.000 C 
ATOM     17  C   UNL     1       2.915   5.443  20.519  0.00  0.00    +0.000 C 
ATOM     18  C   UNL     1       1.420   5.336  20.799  0.00  0.00    +0.000 C 
ATOM     19  C   UNL     1       0.888   3.979  20.356  0.00  0.00    +0.000 C 
ATOM     20  C   UNL     1       1.244   3.657  18.891  0.00  0.00    +0.000 C 
ATOM     21  C   UNL     1       0.574   2.328  18.524  0.00  0.00    +0.000 C 
ATOM     22  N   UNL     1       2.716   3.808  18.673  0.00  0.00    +0.000 N 
ATOM     23  C   UNL     1       3.487   2.791  18.083  0.00  0.00    +0.000 C 
ATOM     24  O   UNL     1       2.973   1.728  17.717  0.00  0.00    +0.000 OA
ENDBRANCH  14  23
ENDBRANCH   1  14
TORSDOF 4
ENDMDL
