MODEL 1
REMARK VINA RESULT:      -7.5      0.000      0.000
REMARK  Name = 
REMARK  9 active torsions:
REMARK  status: ('A' for Active; 'I' for Inactive)
REMARK    1  A    between atoms: C_2  and  C_3
REMARK    2  A    between atoms: C_3  and  O_4
REMARK    3  A    between atoms: O_4  and  C_5
REMARK    4  A    between atoms: C_5  and  C_7
REMARK    5  A    between atoms: C_7  and  C_8
REMARK    6  A    between atoms: C_8  and  C_9
REMARK    7  A    between atoms: C_9  and  N_10
REMARK    8  A    between atoms: C_11  and  C_13
REMARK    9  A    between atoms: N_20  and  C_21
REMARK                            x       y       z     vdW  Elec       q    Type
REMARK                         _______ _______ _______ _____ _____    ______ ____
ROOT
ATOM      1  C   UNL     1       2.696   2.223  20.292  0.00  0.00    +0.000 C 
ATOM      2  O   UNL     1       3.858   2.146  20.671  0.00  0.00    +0.000 OA
ENDROOT
BRANCH   1   3
ATOM      3  O   UNL     1       2.272   1.825  19.068  0.00  0.00    +0.000 OA
BRANCH   3   4
ATOM      4  C   UNL     1       3.259   1.978  18.050  0.00  0.00    +0.000 C 
BRANCH   4   6
ATOM      5  O   UNL     1       2.930   4.272  17.431  0.00  0.00    +0.000 OA
ATOM      6  C   UNL     1       3.731   3.424  17.831  0.00  0.00    +0.000 C 
ATOM      7  N   UNL     1       5.074   3.645  18.071  0.00  0.00    +0.000 N 
ATOM      8  H   UNL     1       5.669   2.817  18.158  0.00  0.00    +0.000 HD
BRANCH   7   9
ATOM      9  C   UNL     1       5.747   4.890  18.004  0.00  0.00    +0.000 A 
ATOM     10  C   UNL     1       5.284   5.973  17.250  0.00  0.00    +0.000 A 
ATOM     11  C   UNL     1       6.022   7.160  17.173  0.00  0.00    +0.000 A 
ATOM     12  C   UNL     1       7.219   7.277  17.870  0.00  0.00    +0.000 A 
ATOM     13 BR   UNL     1       8.241   8.860  17.727  0.00  0.00    +0.000 Br
ATOM     14  C   UNL     1       7.669   6.227  18.668  0.00  0.00    +0.000 A 
ATOM     15  C   UNL     1       6.927   5.040  18.743  0.00  0.00    +0.000 A 
ENDBRANCH   7   9
ENDBRANCH   4   6
ENDBRANCH   3   4
ENDBRANCH   1   3
BRANCH   1  16
ATOM     16  C   UNL     1       1.571   2.807  21.103  0.00  0.00    +0.000 C 
BRANCH  16  17
ATOM     17  C   UNL     1       1.167   4.181  20.569  0.00  0.00    +0.000 C 
BRANCH  17  18
ATOM     18  C   UNL     1       2.244   5.241  20.813  0.00  0.00    +0.000 C 
BRANCH  18  19
ATOM     19  N   UNL     1       1.663   6.533  21.106  0.00  0.00    +0.000 N 
ATOM     20  C   UNL     1       1.750   7.577  20.206  0.00  0.00    +0.000 C 
ATOM     21  O   UNL     1       2.298   7.490  19.114  0.00  0.00    +0.000 OA
ATOM     22  H   UNL     1       1.049   6.610  21.906  0.00  0.00    +0.000 HD
BRANCH  20  23
ATOM     23  C   UNL     1       1.084   8.845  20.606  0.00  0.00    +0.000 A 
ATOM     24  C   UNL     1       0.874   9.883  19.689  0.00  0.00    +0.000 A 
ATOM     25  C   UNL     1       0.248  11.062  20.100  0.00  0.00    +0.000 A 
ATOM     26  C   UNL     1      -0.170  11.201  21.423  0.00  0.00    +0.000 A 
ATOM     27 CL   UNL     1      -0.928  12.660  21.927  0.00  0.00    +0.000 Cl
ATOM     28  C   UNL     1       0.017  10.165  22.337  0.00  0.00    +0.000 A 
ATOM     29  C   UNL     1       0.638   8.982  21.927  0.00  0.00    +0.000 A 
ENDBRANCH  20  23
ENDBRANCH  18  19
ENDBRANCH  17  18
ENDBRANCH  16  17
ENDBRANCH   1  16
TORSDOF 9
ENDMDL
MODEL 2
REMARK VINA RESULT:      -7.2      3.192      6.770
REMARK  Name = 
REMARK  9 active torsions:
REMARK  status: ('A' for Active; 'I' for Inactive)
REMARK    1  A    between atoms: C_2  and  C_3
REMARK    2  A    between atoms: C_3  and  O_4
REMARK    3  A    between atoms: O_4  and  C_5
REMARK    4  A    between atoms: C_5  and  C_7
REMARK    5  A    between atoms: C_7  and  C_8
REMARK    6  A    between atoms: C_8  and  C_9
REMARK    7  A    between atoms: C_9  and  N_10
REMARK    8  A    between atoms: C_11  and  C_13
REMARK    9  A    between atoms: N_20  and  C_21
REMARK                            x       y       z     vdW  Elec       q    Type
REMARK                         _______ _______ _______ _____ _____    ______ ____
ROOT
ATOM      1  C   UNL     1       1.528   4.095  19.092  0.00  0.00    +0.000 C 
ATOM      2  O   UNL     1       1.459   4.420  17.913  0.00  0.00    +0.000 OA
ENDROOT
BRANCH   1   3
ATOM      3  O   UNL     1       1.519   4.977  20.121  0.00  0.00    +0.000 OA
BRANCH   3   4
ATOM      4  C   UNL     1       2.603   5.904  20.082  0.00  0.00    +0.000 C 
BRANCH   4   6
ATOM      5  O   UNL     1       2.661   7.737  18.536  0.00  0.00    +0.000 OA
ATOM      6  C   UNL     1       2.219   7.314  19.607  0.00  0.00    +0.000 C 
ATOM      7  N   UNL     1       1.416   8.028  20.476  0.00  0.00    +0.000 N 
ATOM      8  H   UNL     1       1.326   7.660  21.427  0.00  0.00    +0.000 HD
BRANCH   7   9
ATOM      9  C   UNL     1       0.874   9.317  20.254  0.00  0.00    +0.000 A 
ATOM     10  C   UNL     1       0.356   9.730  19.022  0.00  0.00    +0.000 A 
ATOM     11  C   UNL     1      -0.113  11.037  18.843  0.00  0.00    +0.000 A 
ATOM     12  C   UNL     1      -0.086  11.933  19.905  0.00  0.00    +0.000 A 
ATOM     13 BR   UNL     1      -0.672  13.712  19.652  0.00  0.00    +0.000 Br
ATOM     14  C   UNL     1       0.378  11.523  21.154  0.00  0.00    +0.000 A 
ATOM     15  C   UNL     1       0.847  10.214  21.329  0.00  0.00    +0.000 A 
ENDBRANCH   7   9
ENDBRANCH   4   6
ENDBRANCH   3   4
ENDBRANCH   1   3
BRANCH   1  16
ATOM     16  C   UNL     1       1.677   2.680  19.580  0.00  0.00    +0.000 C 
BRANCH  16  17
ATOM     17  C   UNL     1       2.921   2.529  20.454  0.00  0.00    +0.000 C 
BRANCH  17  18
ATOM     18  C   UNL     1       4.172   2.195  19.635  0.00  0.00    +0.000 C 
BRANCH  18  19
ATOM     19  N   UNL     1       4.997   3.364  19.425  0.00  0.00    +0.000 N 
ATOM     20  C   UNL     1       5.105   3.947  18.178  0.00  0.00    +0.000 C 
ATOM     21  O   UNL     1       4.517   3.541  17.183  0.00  0.00    +0.000 OA
ATOM     22  H   UNL     1       5.360   3.845  20.237  0.00  0.00    +0.000 HD
BRANCH  20  23
ATOM     23  C   UNL     1       5.956   5.164  18.094  0.00  0.00    +0.000 A 
ATOM     24  C   UNL     1       7.134   5.287  18.843  0.00  0.00    +0.000 A 
ATOM     25  C   UNL     1       7.908   6.446  18.742  0.00  0.00    +0.000 A 
ATOM     26  C   UNL     1       7.507   7.476  17.892  0.00  0.00    +0.000 A 
ATOM     27 CL   UNL     1       8.457   8.906  17.781  0.00  0.00    +0.000 Cl
ATOM     28  C   UNL     1       6.348   7.353  17.127  0.00  0.00    +0.000 A 
ATOM     29  C   UNL     1       5.575   6.192  17.222  0.00  0.00    +0.000 A 
ENDBRANCH  20  23
ENDBRANCH  18  19
ENDBRANCH  17  18
ENDBRANCH  16  17
ENDBRANCH   1  16
TORSDOF 9
ENDMDL
MODEL 3
REMARK VINA RESULT:      -7.2      4.754      8.858
REMARK  Name = 
REMARK  9 active torsions:
REMARK  status: ('A' for Active; 'I' for Inactive)
REMARK    1  A    between atoms: C_2  and  C_3
REMARK    2  A    between atoms: C_3  and  O_4
REMARK    3  A    between atoms: O_4  and  C_5
REMARK    4  A    between atoms: C_5  and  C_7
REMARK    5  A    between atoms: C_7  and  C_8
REMARK    6  A    between atoms: C_8  and  C_9
REMARK    7  A    between atoms: C_9  and  N_10
REMARK    8  A    between atoms: C_11  and  C_13
REMARK    9  A    between atoms: N_20  and  C_21
REMARK                            x       y       z     vdW  Elec       q    Type
REMARK                         _______ _______ _______ _____ _____    ______ ____
ROOT
ATOM      1  C   UNL     1       0.405   9.896  22.403  0.00  0.00    +0.000 C 
ATOM      2  O   UNL     1       0.170   9.858  23.604  0.00  0.00    +0.000 OA
ENDROOT
BRANCH   1   3
ATOM      3  O   UNL     1       0.839  11.003  21.752  0.00  0.00    +0.000 OA
BRANCH   3   4
ATOM      4  C   UNL     1      -0.221  11.818  21.255  0.00  0.00    +0.000 C 
BRANCH   4   6
ATOM      5  O   UNL     1       0.326  11.969  18.924  0.00  0.00    +0.000 OA
ATOM      6  C   UNL     1      -0.520  11.636  19.758  0.00  0.00    +0.000 C 
ATOM      7  N   UNL     1      -1.773  11.135  19.466  0.00  0.00    +0.000 N 
ATOM      8  H   UNL     1      -2.457  11.132  20.228  0.00  0.00    +0.000 HD
BRANCH   7   9
ATOM      9  C   UNL     1      -2.274  10.817  18.180  0.00  0.00    +0.000 A 
ATOM     10  C   UNL     1      -1.686   9.863  17.342  0.00  0.00    +0.000 A 
ATOM     11  C   UNL     1      -2.189   9.632  16.056  0.00  0.00    +0.000 A 
ATOM     12  C   UNL     1      -3.298  10.340  15.609  0.00  0.00    +0.000 A 
ATOM     13 BR   UNL     1      -3.947  10.066  13.855  0.00  0.00    +0.000 Br
ATOM     14  C   UNL     1      -3.928  11.257  16.450  0.00  0.00    +0.000 A 
ATOM     15  C   UNL     1      -3.422  11.485  17.737  0.00  0.00    +0.000 A 
ENDBRANCH   7   9
ENDBRANCH   4   6
ENDBRANCH   3   4
ENDBRANCH   1   3
BRANCH   1  16
ATOM     16  C   UNL     1       0.210   8.742  21.458  0.00  0.00    +0.000 C 
BRANCH  16  17
ATOM     17  C   UNL     1       1.505   8.417  20.714  0.00  0.00    +0.000 C 
BRANCH  17  18
ATOM     18  C   UNL     1       1.705   6.911  20.522  0.00  0.00    +0.000 C 
BRANCH  18  19
ATOM     19  N   UNL     1       2.510   6.626  19.355  0.00  0.00    +0.000 N 
ATOM     20  C   UNL     1       3.284   5.484  19.282  0.00  0.00    +0.000 C 
ATOM     21  O   UNL     1       3.338   4.641  20.169  0.00  0.00    +0.000 OA
ATOM     22  H   UNL     1       2.369   7.190  18.528  0.00  0.00    +0.000 HD
BRANCH  20  23
ATOM     23  C   UNL     1       4.041   5.285  18.018  0.00  0.00    +0.000 A 
ATOM     24  C   UNL     1       4.369   4.004  17.554  0.00  0.00    +0.000 A 
ATOM     25  C   UNL     1       5.084   3.854  16.364  0.00  0.00    +0.000 A 
ATOM     26  C   UNL     1       5.467   4.981  15.638  0.00  0.00    +0.000 A 
ATOM     27 CL   UNL     1       6.359   4.790  14.179  0.00  0.00    +0.000 Cl
ATOM     28  C   UNL     1       5.127   6.259  16.081  0.00  0.00    +0.000 A 
ATOM     29  C   UNL     1       4.407   6.411  17.269  0.00  0.00    +0.000 A 
ENDBRANCH  20  23
ENDBRANCH  18  19
ENDBRANCH  17  18
ENDBRANCH  16  17
ENDBRANCH   1  16
TORSDOF 9
ENDMDL
MODEL 4
REMARK VINA RESULT:      -7.2      3.287      6.642
REMARK  Name = 
REMARK  9 active torsions:
REMARK  status: ('A' for Active; 'I' for Inactive)
REMARK    1  A    between atoms: C_2  and  C_3
REMARK    2  A    between atoms: C_3  and  O_4
REMARK    3  A    between atoms: O_4  and  C_5
REMARK    4  A    between atoms: C_5  and  C_7
REMARK    5  A    between atoms: C_7  and  C_8
REMARK    6  A    between atoms: C_8  and  C_9
REMARK    7  A    between atoms: C_9  and  N_10
REMARK    8  A    between atoms: C_11  and  C_13
REMARK    9  A    between atoms: N_20  and  C_21
REMARK                            x       y       z     vdW  Elec       q    Type
REMARK                         _______ _______ _______ _____ _____    ______ ____
ROOT
ATOM      1  C   UNL     1       1.586   3.953  20.773  0.00  0.00    +0.000 C 
ATOM      2  O   UNL     1       2.503   3.652  21.528  0.00  0.00    +0.000 OA
ENDROOT
BRANCH   1   3
ATOM      3  O   UNL     1       1.103   5.211  20.634  0.00  0.00    +0.000 OA
BRANCH   3   4
ATOM      4  C   UNL     1       2.096   6.159  20.245  0.00  0.00    +0.000 C 
BRANCH   4   6
ATOM      5  O   UNL     1       1.463   8.104  21.499  0.00  0.00    +0.000 OA
ATOM      6  C   UNL     1       1.664   7.628  20.379  0.00  0.00    +0.000 C 
ATOM      7  N   UNL     1       1.490   8.299  19.184  0.00  0.00    +0.000 N 
ATOM      8  H   UNL     1       1.451   7.727  18.336  0.00  0.00    +0.000 HD
BRANCH   7   9
ATOM      9  C   UNL     1       1.157   9.667  19.028  0.00  0.00    +0.000 A 
ATOM     10  C   UNL     1       2.037  10.614  18.494  0.00  0.00    +0.000 A 
ATOM     11  C   UNL     1       1.677  11.965  18.418  0.00  0.00    +0.000 A 
ATOM     12  C   UNL     1       0.422  12.372  18.857  0.00  0.00    +0.000 A 
ATOM     13 BR   UNL     1      -0.048  14.202  18.803  0.00  0.00    +0.000 Br
ATOM     14  C   UNL     1      -0.487  11.433  19.344  0.00  0.00    +0.000 A 
ATOM     15  C   UNL     1      -0.122  10.082  19.418  0.00  0.00    +0.000 A 
ENDBRANCH   7   9
ENDBRANCH   4   6
ENDBRANCH   3   4
ENDBRANCH   1   3
BRANCH   1  16
ATOM     16  C   UNL     1       0.827   2.973  19.920  0.00  0.00    +0.000 C 
BRANCH  16  17
ATOM     17  C   UNL     1       1.256   3.073  18.456  0.00  0.00    +0.000 C 
BRANCH  17  18
ATOM     18  C   UNL     1       2.699   2.611  18.239  0.00  0.00    +0.000 C 
BRANCH  18  19
ATOM     19  N   UNL     1       3.590   3.731  18.025  0.00  0.00    +0.000 N 
ATOM     20  C   UNL     1       4.746   3.876  18.765  0.00  0.00    +0.000 C 
ATOM     21  O   UNL     1       5.107   3.084  19.627  0.00  0.00    +0.000 OA
ATOM     22  H   UNL     1       3.437   4.314  17.213  0.00  0.00    +0.000 HD
BRANCH  20  23
ATOM     23  C   UNL     1       5.597   5.049  18.430  0.00  0.00    +0.000 A 
ATOM     24  C   UNL     1       5.149   6.056  17.565  0.00  0.00    +0.000 A 
ATOM     25  C   UNL     1       5.976   7.142  17.270  0.00  0.00    +0.000 A 
ATOM     26  C   UNL     1       7.246   7.223  17.841  0.00  0.00    +0.000 A 
ATOM     27 CL   UNL     1       8.264   8.556  17.464  0.00  0.00    +0.000 Cl
ATOM     28  C   UNL     1       7.691   6.236  18.720  0.00  0.00    +0.000 A 
ATOM     29  C   UNL     1       6.863   5.152  19.021  0.00  0.00    +0.000 A 
ENDBRANCH  20  23
ENDBRANCH  18  19
ENDBRANCH  17  18
ENDBRANCH  16  17
ENDBRANCH   1  16
TORSDOF 9
ENDMDL
MODEL 5
REMARK VINA RESULT:      -7.2      4.455      7.422
REMARK  Name = 
REMARK  9 active torsions:
REMARK  status: ('A' for Active; 'I' for Inactive)
REMARK    1  A    between atoms: C_2  and  C_3
REMARK    2  A    between atoms: C_3  and  O_4
REMARK    3  A    between atoms: O_4  and  C_5
REMARK    4  A    between atoms: C_5  and  C_7
REMARK    5  A    between atoms: C_7  and  C_8
REMARK    6  A    between atoms: C_8  and  C_9
REMARK    7  A    between atoms: C_9  and  N_10
REMARK    8  A    between atoms: C_11  and  C_13
REMARK    9  A    between atoms: N_20  and  C_21
REMARK                            x       y       z     vdW  Elec       q    Type
REMARK                         _______ _______ _______ _____ _____    ______ ____
ROOT
ATOM      1  C   UNL     1       5.557   5.532  16.227  0.00  0.00    +0.000 C 
ATOM      2  O   UNL     1       5.276   6.624  15.748  0.00  0.00    +0.000 OA
ENDROOT
BRANCH   1   3
ATOM      3  O   UNL     1       4.681   4.504  16.332  0.00  0.00    +0.000 OA
BRANCH   3   4
ATOM      4  C   UNL     1       4.109   4.379  17.634  0.00  0.00    +0.000 C 
BRANCH   4   6
ATOM      5  O   UNL     1       1.786   4.976  17.708  0.00  0.00    +0.000 OA
ATOM      6  C   UNL     1       2.946   5.344  17.915  0.00  0.00    +0.000 C 
ATOM      7  N   UNL     1       3.317   6.600  18.352  0.00  0.00    +0.000 N 
ATOM      8  H   UNL     1       4.304   6.851  18.247  0.00  0.00    +0.000 HD
BRANCH   7   9
ATOM      9  C   UNL     1       2.446   7.649  18.737  0.00  0.00    +0.000 A 
ATOM     10  C   UNL     1       1.995   7.827  20.049  0.00  0.00    +0.000 A 
ATOM     11  C   UNL     1       1.087   8.847  20.362  0.00  0.00    +0.000 A 
ATOM     12  C   UNL     1       0.642   9.707  19.365  0.00  0.00    +0.000 A 
ATOM     13 BR   UNL     1      -0.622  11.051  19.775  0.00  0.00    +0.000 Br
ATOM     14  C   UNL     1       1.123   9.576  18.063  0.00  0.00    +0.000 A 
ATOM     15  C   UNL     1       2.032   8.555  17.754  0.00  0.00    +0.000 A 
ENDBRANCH   7   9
ENDBRANCH   4   6
ENDBRANCH   3   4
ENDBRANCH   1   3
BRANCH   1  16
ATOM     16  C   UNL     1       6.898   5.175  16.809  0.00  0.00    +0.000 C 
BRANCH  16  17
ATOM     17  C   UNL     1       7.704   6.431  17.140  0.00  0.00    +0.000 C 
BRANCH  17  18
ATOM     18  C   UNL     1       7.836   6.658  18.648  0.00  0.00    +0.000 C 
BRANCH  18  19
ATOM     19  N   UNL     1       8.605   7.848  18.942  0.00  0.00    +0.000 N 
ATOM     20  C   UNL     1       8.304   9.058  18.349  0.00  0.00    +0.000 C 
ATOM     21  O   UNL     1       7.379   9.219  17.562  0.00  0.00    +0.000 OA
ATOM     22  H   UNL     1       9.260   7.814  19.711  0.00  0.00    +0.000 HD
BRANCH  20  23
ATOM     23  C   UNL     1       9.145  10.215  18.756  0.00  0.00    +0.000 A 
ATOM     24  C   UNL     1       9.530  10.408  20.089  0.00  0.00    +0.000 A 
ATOM     25  C   UNL     1      10.318  11.508  20.436  0.00  0.00    +0.000 A 
ATOM     26  C   UNL     1      10.723  12.410  19.453  0.00  0.00    +0.000 A 
ATOM     27 CL   UNL     1      11.682  13.770  19.888  0.00  0.00    +0.000 Cl
ATOM     28  C   UNL     1      10.361  12.214  18.120  0.00  0.00    +0.000 A 
ATOM     29  C   UNL     1       9.577  11.111  17.770  0.00  0.00    +0.000 A 
ENDBRANCH  20  23
ENDBRANCH  18  19
ENDBRANCH  17  18
ENDBRANCH  16  17
ENDBRANCH   1  16
TORSDOF 9
ENDMDL
MODEL 6
REMARK VINA RESULT:      -7.2      5.208      7.885
REMARK  Name = 
REMARK  9 active torsions:
REMARK  status: ('A' for Active; 'I' for Inactive)
REMARK    1  A    between atoms: C_2  and  C_3
REMARK    2  A    between atoms: C_3  and  O_4
REMARK    3  A    between atoms: O_4  and  C_5
REMARK    4  A    between atoms: C_5  and  C_7
REMARK    5  A    between atoms: C_7  and  C_8
REMARK    6  A    between atoms: C_8  and  C_9
REMARK    7  A    between atoms: C_9  and  N_10
REMARK    8  A    between atoms: C_11  and  C_13
REMARK    9  A    between atoms: N_20  and  C_21
REMARK                            x       y       z     vdW  Elec       q    Type
REMARK                         _______ _______ _______ _____ _____    ______ ____
ROOT
ATOM      1  C   UNL     1       7.756   6.696  18.528  0.00  0.00    +0.000 C 
ATOM      2  O   UNL     1       7.760   5.855  19.418  0.00  0.00    +0.000 OA
ENDROOT
BRANCH   1   3
ATOM      3  O   UNL     1       8.632   7.728  18.458  0.00  0.00    +0.000 OA
BRANCH   3   4
ATOM      4  C   UNL     1       8.031   8.952  18.039  0.00  0.00    +0.000 C 
BRANCH   4   6
ATOM      5  O   UNL     1       9.537  10.187  19.441  0.00  0.00    +0.000 OA
ATOM      6  C   UNL     1       8.806  10.216  18.447  0.00  0.00    +0.000 C 
ATOM      7  N   UNL     1       8.574  11.327  17.660  0.00  0.00    +0.000 N 
ATOM      8  H   UNL     1       7.770  11.283  17.027  0.00  0.00    +0.000 HD
BRANCH   7   9
ATOM      9  C   UNL     1       9.201  12.590  17.781  0.00  0.00    +0.000 A 
ATOM     10  C   UNL     1      10.506  12.844  17.345  0.00  0.00    +0.000 A 
ATOM     11  C   UNL     1      11.098  14.097  17.544  0.00  0.00    +0.000 A 
ATOM     12  C   UNL     1      10.377  15.111  18.164  0.00  0.00    +0.000 A 
ATOM     13 BR   UNL     1      11.192  16.787  18.480  0.00  0.00    +0.000 Br
ATOM     14  C   UNL     1       9.058  14.892  18.558  0.00  0.00    +0.000 A 
ATOM     15  C   UNL     1       8.469  13.636  18.356  0.00  0.00    +0.000 A 
ENDBRANCH   7   9
ENDBRANCH   4   6
ENDBRANCH   3   4
ENDBRANCH   1   3
BRANCH   1  16
ATOM     16  C   UNL     1       6.758   6.743  17.403  0.00  0.00    +0.000 C 
BRANCH  16  17
ATOM     17  C   UNL     1       7.263   5.964  16.188  0.00  0.00    +0.000 C 
BRANCH  17  18
ATOM     18  C   UNL     1       7.011   4.460  16.315  0.00  0.00    +0.000 C 
BRANCH  18  19
ATOM     19  N   UNL     1       6.042   4.167  17.349  0.00  0.00    +0.000 N 
ATOM     20  C   UNL     1       4.721   3.910  17.039  0.00  0.00    +0.000 C 
ATOM     21  O   UNL     1       4.280   3.896  15.896  0.00  0.00    +0.000 OA
ATOM     22  H   UNL     1       6.382   3.991  18.285  0.00  0.00    +0.000 HD
BRANCH  20  23
ATOM     23  C   UNL     1       3.829   3.590  18.185  0.00  0.00    +0.000 A 
ATOM     24  C   UNL     1       2.467   3.915  18.166  0.00  0.00    +0.000 A 
ATOM     25  C   UNL     1       1.659   3.602  19.261  0.00  0.00    +0.000 A 
ATOM     26  C   UNL     1       2.211   2.962  20.371  0.00  0.00    +0.000 A 
ATOM     27 CL   UNL     1       1.214   2.591  21.722  0.00  0.00    +0.000 Cl
ATOM     28  C   UNL     1       3.562   2.616  20.389  0.00  0.00    +0.000 A 
ATOM     29  C   UNL     1       4.371   2.924  19.292  0.00  0.00    +0.000 A 
ENDBRANCH  20  23
ENDBRANCH  18  19
ENDBRANCH  17  18
ENDBRANCH  16  17
ENDBRANCH   1  16
TORSDOF 9
ENDMDL
MODEL 7
REMARK VINA RESULT:      -7.1      3.842      5.482
REMARK  Name = 
REMARK  9 active torsions:
REMARK  status: ('A' for Active; 'I' for Inactive)
REMARK    1  A    between atoms: C_2  and  C_3
REMARK    2  A    between atoms: C_3  and  O_4
REMARK    3  A    between atoms: O_4  and  C_5
REMARK    4  A    between atoms: C_5  and  C_7
REMARK    5  A    between atoms: C_7  and  C_8
REMARK    6  A    between atoms: C_8  and  C_9
REMARK    7  A    between atoms: C_9  and  N_10
REMARK    8  A    between atoms: C_11  and  C_13
REMARK    9  A    between atoms: N_20  and  C_21
REMARK                            x       y       z     vdW  Elec       q    Type
REMARK                         _______ _______ _______ _____ _____    ______ ____
ROOT
ATOM      1  C   UNL     1       6.749   5.067  18.073  0.00  0.00    +0.000 C 
ATOM      2  O   UNL     1       6.575   4.353  19.052  0.00  0.00    +0.000 OA
ENDROOT
BRANCH   1   3
ATOM      3  O   UNL     1       6.785   6.421  18.120  0.00  0.00    +0.000 OA
BRANCH   3   4
ATOM      4  C   UNL     1       8.084   6.943  18.395  0.00  0.00    +0.000 C 
BRANCH   4   6
ATOM      5  O   UNL     1       7.479   9.087  17.505  0.00  0.00    +0.000 OA
ATOM      6  C   UNL     1       8.189   8.474  18.306  0.00  0.00    +0.000 C 
ATOM      7  N   UNL     1       9.136   9.047  19.132  0.00  0.00    +0.000 N 
ATOM      8  H   UNL     1       9.817   8.414  19.560  0.00  0.00    +0.000 HD
BRANCH   7   9
ATOM      9  C   UNL     1       9.390  10.432  19.287  0.00  0.00    +0.000 A 
ATOM     10  C   UNL     1       9.707  11.278  18.220  0.00  0.00    +0.000 A 
ATOM     11  C   UNL     1      10.009  12.628  18.440  0.00  0.00    +0.000 A 
ATOM     12  C   UNL     1       9.973  13.142  19.730  0.00  0.00    +0.000 A 
ATOM     13 BR   UNL     1      10.429  14.951  20.035  0.00  0.00    +0.000 Br
ATOM     14  C   UNL     1       9.608  12.326  20.800  0.00  0.00    +0.000 A 
ATOM     15  C   UNL     1       9.307  10.975  20.575  0.00  0.00    +0.000 A 
ENDBRANCH   7   9
ENDBRANCH   4   6
ENDBRANCH   3   4
ENDBRANCH   1   3
BRANCH   1  16
ATOM     16  C   UNL     1       6.907   4.561  16.664  0.00  0.00    +0.000 C 
BRANCH  16  17
ATOM     17  C   UNL     1       5.604   4.711  15.879  0.00  0.00    +0.000 C 
BRANCH  17  18
ATOM     18  C   UNL     1       4.372   4.373  16.723  0.00  0.00    +0.000 C 
BRANCH  18  19
ATOM     19  N   UNL     1       3.695   5.567  17.178  0.00  0.00    +0.000 N 
ATOM     20  C   UNL     1       3.106   5.623  18.426  0.00  0.00    +0.000 C 
ATOM     21  O   UNL     1       3.120   4.697  19.227  0.00  0.00    +0.000 OA
ATOM     22  H   UNL     1       3.805   6.414  16.637  0.00  0.00    +0.000 HD
BRANCH  20  23
ATOM     23  C   UNL     1       2.470   6.916  18.794  0.00  0.00    +0.000 A 
ATOM     24  C   UNL     1       2.249   7.921  17.844  0.00  0.00    +0.000 A 
ATOM     25  C   UNL     1       1.652   9.124  18.226  0.00  0.00    +0.000 A 
ATOM     26  C   UNL     1       1.274   9.321  19.553  0.00  0.00    +0.000 A 
ATOM     27 CL   UNL     1       0.552  10.810  20.021  0.00  0.00    +0.000 Cl
ATOM     28  C   UNL     1       1.471   8.318  20.502  0.00  0.00    +0.000 A 
ATOM     29  C   UNL     1       2.063   7.111  20.121  0.00  0.00    +0.000 A 
ENDBRANCH  20  23
ENDBRANCH  18  19
ENDBRANCH  17  18
ENDBRANCH  16  17
ENDBRANCH   1  16
TORSDOF 9
ENDMDL
MODEL 8
REMARK VINA RESULT:      -7.1      3.999      7.861
REMARK  Name = 
REMARK  9 active torsions:
REMARK  status: ('A' for Active; 'I' for Inactive)
REMARK    1  A    between atoms: C_2  and  C_3
REMARK    2  A    between atoms: C_3  and  O_4
REMARK    3  A    between atoms: O_4  and  C_5
REMARK    4  A    between atoms: C_5  and  C_7
REMARK    5  A    between atoms: C_7  and  C_8
REMARK    6  A    between atoms: C_8  and  C_9
REMARK    7  A    between atoms: C_9  and  N_10
REMARK    8  A    between atoms: C_11  and  C_13
REMARK    9  A    between atoms: N_20  and  C_21
REMARK                            x       y       z     vdW  Elec       q    Type
REMARK                         _______ _______ _______ _____ _____    ______ ____
ROOT
ATOM      1  C   UNL     1       1.902   5.110  18.955  0.00  0.00    +0.000 C 
ATOM      2  O   UNL     1       1.677   4.837  17.782  0.00  0.00    +0.000 OA
ENDROOT
BRANCH   1   3
ATOM      3  O   UNL     1       2.637   6.176  19.356  0.00  0.00    +0.000 OA
BRANCH   3   4
ATOM      4  C   UNL     1       2.562   7.284  18.460  0.00  0.00    +0.000 C 
BRANCH   4   6
ATOM      5  O   UNL     1       1.873   9.581  18.400  0.00  0.00    +0.000 OA
ATOM      6  C   UNL     1       1.855   8.522  19.033  0.00  0.00    +0.000 C 
ATOM      7  N   UNL     1       1.275   8.346  20.275  0.00  0.00    +0.000 N 
ATOM      8  H   UNL     1       1.541   7.502  20.791  0.00  0.00    +0.000 HD
BRANCH   7   9
ATOM      9  C   UNL     1       0.516   9.301  20.993  0.00  0.00    +0.000 A 
ATOM     10  C   UNL     1       0.317   9.240  22.376  0.00  0.00    +0.000 A 
ATOM     11  C   UNL     1      -0.493  10.179  23.026  0.00  0.00    +0.000 A 
ATOM     12  C   UNL     1      -1.093  11.198  22.295  0.00  0.00    +0.000 A 
ATOM     13 BR   UNL     1      -2.229  12.436  23.162  0.00  0.00    +0.000 Br
ATOM     14  C   UNL     1      -0.864  11.305  20.924  0.00  0.00    +0.000 A 
ATOM     15  C   UNL     1      -0.052  10.363  20.278  0.00  0.00    +0.000 A 
ENDBRANCH   7   9
ENDBRANCH   4   6
ENDBRANCH   3   4
ENDBRANCH   1   3
BRANCH   1  16
ATOM     16  C   UNL     1       1.440   4.287  20.126  0.00  0.00    +0.000 C 
BRANCH  16  17
ATOM     17  C   UNL     1       2.030   2.878  20.074  0.00  0.00    +0.000 C 
BRANCH  17  18
ATOM     18  C   UNL     1       3.560   2.883  20.145  0.00  0.00    +0.000 C 
BRANCH  18  19
ATOM     19  N   UNL     1       4.151   3.204  18.865  0.00  0.00    +0.000 N 
ATOM     20  C   UNL     1       5.223   4.070  18.769  0.00  0.00    +0.000 C 
ATOM     21  O   UNL     1       5.751   4.609  19.734  0.00  0.00    +0.000 OA
ATOM     22  H   UNL     1       3.875   2.656  18.061  0.00  0.00    +0.000 HD
BRANCH  20  23
ATOM     23  C   UNL     1       5.765   4.294  17.403  0.00  0.00    +0.000 A 
ATOM     24  C   UNL     1       7.089   4.700  17.197  0.00  0.00    +0.000 A 
ATOM     25  C   UNL     1       7.564   4.905  15.900  0.00  0.00    +0.000 A 
ATOM     26  C   UNL     1       6.718   4.700  14.811  0.00  0.00    +0.000 A 
ATOM     27 CL   UNL     1       7.304   4.966  13.216  0.00  0.00    +0.000 Cl
ATOM     28  C   UNL     1       5.403   4.276  15.005  0.00  0.00    +0.000 A 
ATOM     29  C   UNL     1       4.928   4.065  16.302  0.00  0.00    +0.000 A 
ENDBRANCH  20  23
ENDBRANCH  18  19
ENDBRANCH  17  18
ENDBRANCH  16  17
ENDBRANCH   1  16
TORSDOF 9
ENDMDL
MODEL 9
REMARK VINA RESULT:      -7.0      4.021      7.984
REMARK  Name = 
REMARK  9 active torsions:
REMARK  status: ('A' for Active; 'I' for Inactive)
REMARK    1  A    between atoms: C_2  and  C_3
REMARK    2  A    between atoms: C_3  and  O_4
REMARK    3  A    between atoms: O_4  and  C_5
REMARK    4  A    between atoms: C_5  and  C_7
REMARK    5  A    between atoms: C_7  and  C_8
REMARK    6  A    between atoms: C_8  and  C_9
REMARK    7  A    between atoms: C_9  and  N_10
REMARK    8  A    between atoms: C_11  and  C_13
REMARK    9  A    between atoms: N_20  and  C_21
REMARK                            x       y       z     vdW  Elec       q    Type
REMARK                         _______ _______ _______ _____ _____    ______ ____
ROOT
ATOM      1  C   UNL     1       2.252   5.759  19.460  0.00  0.00    +0.000 C 
ATOM      2  O   UNL     1       2.126   5.383  18.302  0.00  0.00    +0.000 OA
ENDROOT
BRANCH   1   3
ATOM      3  O   UNL     1       2.399   7.056  19.823  0.00  0.00    +0.000 OA
BRANCH   3   4
ATOM      4  C   UNL     1       1.470   7.473  20.822  0.00  0.00    +0.000 C 
BRANCH   4   6
ATOM      5  O   UNL     1       1.298   9.589  21.940  0.00  0.00    +0.000 OA
ATOM      6  C   UNL     1       1.215   8.988  20.865  0.00  0.00    +0.000 C 
ATOM      7  N   UNL     1       0.862   9.559  19.658  0.00  0.00    +0.000 N 
ATOM      8  H   UNL     1       0.593   8.917  18.907  0.00  0.00    +0.000 HD
BRANCH   7   9
ATOM      9  C   UNL     1       0.634  10.935  19.412  0.00  0.00    +0.000 A 
ATOM     10  C   UNL     1       1.594  11.781  18.846  0.00  0.00    +0.000 A 
ATOM     11  C   UNL     1       1.336  13.148  18.680  0.00  0.00    +0.000 A 
ATOM     12  C   UNL     1       0.105  13.670  19.061  0.00  0.00    +0.000 A 
ATOM     13 BR   UNL     1      -0.227  15.522  18.885  0.00  0.00    +0.000 Br
ATOM     14  C   UNL     1      -0.882  12.831  19.577  0.00  0.00    +0.000 A 
ATOM     15  C   UNL     1      -0.619  11.464  19.742  0.00  0.00    +0.000 A 
ENDBRANCH   7   9
ENDBRANCH   4   6
ENDBRANCH   3   4
ENDBRANCH   1   3
BRANCH   1  16
ATOM     16  C   UNL     1       2.307   4.843  20.653  0.00  0.00    +0.000 C 
BRANCH  16  17
ATOM     17  C   UNL     1       2.359   3.378  20.219  0.00  0.00    +0.000 C 
BRANCH  17  18
ATOM     18  C   UNL     1       3.793   2.874  20.038  0.00  0.00    +0.000 C 
BRANCH  18  19
ATOM     19  N   UNL     1       4.308   3.195  18.725  0.00  0.00    +0.000 N 
ATOM     20  C   UNL     1       5.351   4.085  18.564  0.00  0.00    +0.000 C 
ATOM     21  O   UNL     1       5.916   4.647  19.494  0.00  0.00    +0.000 OA
ATOM     22  H   UNL     1       4.003   2.631  17.942  0.00  0.00    +0.000 HD
BRANCH  20  23
ATOM     23  C   UNL     1       5.814   4.307  17.168  0.00  0.00    +0.000 A 
ATOM     24  C   UNL     1       4.948   4.166  16.077  0.00  0.00    +0.000 A 
ATOM     25  C   UNL     1       5.418   4.380  14.779  0.00  0.00    +0.000 A 
ATOM     26  C   UNL     1       6.750   4.736  14.573  0.00  0.00    +0.000 A 
ATOM     27 CL   UNL     1       7.327   4.985  12.972  0.00  0.00    +0.000 Cl
ATOM     28  C   UNL     1       7.615   4.899  15.655  0.00  0.00    +0.000 A 
ATOM     29  C   UNL     1       7.145   4.692  16.955  0.00  0.00    +0.000 A 
ENDBRANCH  20  23
ENDBRANCH  18  19
ENDBRANCH  17  18
ENDBRANCH  16  17
ENDBRANCH   1  16
TORSDOF 9
ENDMDL
