MODEL 1
REMARK VINA RESULT:      -6.9      0.000      0.000
REMARK  Name = 
REMARK  16 active torsions:
REMARK  status: ('A' for Active; 'I' for Inactive)
REMARK    1  A    between atoms: C_1  and  C_2
REMARK    2  A    between atoms: C_2  and  O_3
REMARK    3  A    between atoms: O_3  and  C_4
REMARK    4  A    between atoms: C_4  and  C_6
REMARK    5  A    between atoms: C_6  and  C_7
REMARK    6  A    between atoms: C_6  and  C_21
REMARK    7  A    between atoms: C_7  and  C_8
REMARK    8  A    between atoms: C_10  and  C_11
REMARK    9  A    between atoms: C_11  and  C_12
REMARK   10  A    between atoms: C_16  and  O_17
REMARK   11  A    between atoms: O_17  and  C_18
REMARK   12  A    between atoms: C_18  and  C_19
REMARK   13  A    between atoms: C_18  and  C_20
REMARK   14  A    between atoms: C_21  and  O_23
REMARK   15  A    between atoms: O_23  and  C_24
REMARK   16  A    between atoms: C_24  and  C_25
REMARK                            x       y       z     vdW  Elec       q    Type
REMARK                         _______ _______ _______ _____ _____    ______ ____
ROOT
ATOM      1  C   UNL     1       3.229   5.199  18.443  0.00  0.00    +0.000 A 
ATOM      2  C   UNL     1       2.748   6.436  17.985  0.00  0.00    +0.000 A 
ATOM      3  C   UNL     1       2.150   7.345  18.837  0.00  0.00    +0.000 A 
ATOM      4  C   UNL     1       1.831   6.908  20.123  0.00  0.00    +0.000 A 
ATOM      5  C   UNL     1       2.130   5.584  20.541  0.00  0.00    +0.000 A 
ATOM      6  C   UNL     1       2.859   4.718  19.727  0.00  0.00    +0.000 A 
ENDROOT
BRANCH   3   7
ATOM      7  C   UNL     1       2.030   8.744  18.310  0.00  0.00    +0.000 C 
ATOM      8  C   UNL     1       1.297   9.803  19.075  0.00  0.00    +0.000 C 
ATOM      9  O   UNL     1       2.635   9.064  17.277  0.00  0.00    +0.000 OA
ENDBRANCH   3   7
BRANCH   1  10
ATOM     10  C   UNL     1       4.288   4.577  17.554  0.00  0.00    +0.000 C 
BRANCH  10  11
ATOM     11  C   UNL     1       5.380   5.610  17.126  0.00  0.00    +0.000 C 
BRANCH  11  12
ATOM     12  C   UNL     1       5.456   5.666  15.619  0.00  0.00    +0.000 C 
ATOM     13  O   UNL     1       5.408   6.760  15.054  0.00  0.00    +0.000 OA
BRANCH  12  14
ATOM     14  O   UNL     1       5.425   4.493  14.930  0.00  0.00    +0.000 OA
BRANCH  14  16
ATOM     15  C   UNL     1       6.055   3.512  12.728  0.00  0.00    +0.000 C 
ATOM     16  C   UNL     1       6.476   4.345  13.934  0.00  0.00    +0.000 C 
ENDBRANCH  14  16
ENDBRANCH  12  14
ENDBRANCH  11  12
BRANCH  11  17
ATOM     17  C   UNL     1       6.565   5.692  18.079  0.00  0.00    +0.000 C 
ATOM     18  O   UNL     1       6.470   5.252  19.226  0.00  0.00    +0.000 OA
BRANCH  17  19
ATOM     19  O   UNL     1       7.609   6.471  17.695  0.00  0.00    +0.000 OA
BRANCH  19  20
ATOM     20  C   UNL     1       7.332   7.891  17.500  0.00  0.00    +0.000 C 
ATOM     21  C   UNL     1       8.304   8.929  18.063  0.00  0.00    +0.000 C 
ENDBRANCH  19  20
ENDBRANCH  17  19
ENDBRANCH  11  17
ENDBRANCH  10  11
ENDBRANCH   1  10
BRANCH   6  22
ATOM     22  O   UNL     1       3.322   3.493  20.113  0.00  0.00    +0.000 OA
BRANCH  22  23
ATOM     23  C   UNL     1       2.820   2.196  19.731  0.00  0.00    +0.000 C 
ATOM     24  C   UNL     1       1.324   2.113  19.396  0.00  0.00    +0.000 C 
ATOM     25  C   UNL     1       3.636   1.392  18.722  0.00  0.00    +0.000 C 
ENDBRANCH  22  23
ENDBRANCH   6  22
TORSDOF 11
ENDMDL
MODEL 2
REMARK VINA RESULT:      -6.9      1.871      6.701
REMARK  Name = 
REMARK  16 active torsions:
REMARK  status: ('A' for Active; 'I' for Inactive)
REMARK    1  A    between atoms: C_1  and  C_2
REMARK    2  A    between atoms: C_2  and  O_3
REMARK    3  A    between atoms: O_3  and  C_4
REMARK    4  A    between atoms: C_4  and  C_6
REMARK    5  A    between atoms: C_6  and  C_7
REMARK    6  A    between atoms: C_6  and  C_21
REMARK    7  A    between atoms: C_7  and  C_8
REMARK    8  A    between atoms: C_10  and  C_11
REMARK    9  A    between atoms: C_11  and  C_12
REMARK   10  A    between atoms: C_16  and  O_17
REMARK   11  A    between atoms: O_17  and  C_18
REMARK   12  A    between atoms: C_18  and  C_19
REMARK   13  A    between atoms: C_18  and  C_20
REMARK   14  A    between atoms: C_21  and  O_23
REMARK   15  A    between atoms: O_23  and  C_24
REMARK   16  A    between atoms: C_24  and  C_25
REMARK                            x       y       z     vdW  Elec       q    Type
REMARK                         _______ _______ _______ _____ _____    ______ ____
ROOT
ATOM      1  C   UNL     1       5.655   4.094  15.636  0.00  0.00    +0.000 A 
ATOM      2  C   UNL     1       5.048   3.820  14.400  0.00  0.00    +0.000 A 
ATOM      3  C   UNL     1       5.765   3.839  13.217  0.00  0.00    +0.000 A 
ATOM      4  C   UNL     1       7.058   4.359  13.257  0.00  0.00    +0.000 A 
ATOM      5  C   UNL     1       7.619   4.833  14.473  0.00  0.00    +0.000 A 
ATOM      6  C   UNL     1       6.946   4.682  15.685  0.00  0.00    +0.000 A 
ENDROOT
BRANCH   3   7
ATOM      7  C   UNL     1       5.101   3.173  12.048  0.00  0.00    +0.000 C 
ATOM      8  C   UNL     1       3.954   3.819  11.334  0.00  0.00    +0.000 C 
ATOM      9  O   UNL     1       5.572   2.121  11.594  0.00  0.00    +0.000 OA
ENDBRANCH   3   7
BRANCH   1  10
ATOM     10  C   UNL     1       4.909   3.532  16.831  0.00  0.00    +0.000 C 
BRANCH  10  11
ATOM     11  C   UNL     1       3.599   4.327  17.137  0.00  0.00    +0.000 C 
BRANCH  11  12
ATOM     12  C   UNL     1       3.946   5.610  17.854  0.00  0.00    +0.000 C 
ATOM     13  O   UNL     1       4.074   5.598  19.079  0.00  0.00    +0.000 OA
BRANCH  12  14
ATOM     14  O   UNL     1       3.957   6.765  17.135  0.00  0.00    +0.000 OA
BRANCH  14  16
ATOM     15  C   UNL     1       1.922   8.050  17.780  0.00  0.00    +0.000 C 
ATOM     16  C   UNL     1       3.440   7.927  17.844  0.00  0.00    +0.000 C 
ENDBRANCH  14  16
ENDBRANCH  12  14
ENDBRANCH  11  12
BRANCH  11  17
ATOM     17  C   UNL     1       2.391   3.446  17.426  0.00  0.00    +0.000 C 
ATOM     18  O   UNL     1       1.252   3.862  17.207  0.00  0.00    +0.000 OA
BRANCH  17  19
ATOM     19  O   UNL     1       2.615   2.315  18.145  0.00  0.00    +0.000 OA
BRANCH  19  20
ATOM     20  C   UNL     1       2.672   2.462  19.597  0.00  0.00    +0.000 C 
ATOM     21  C   UNL     1       1.398   2.815  20.366  0.00  0.00    +0.000 C 
ENDBRANCH  19  20
ENDBRANCH  17  19
ENDBRANCH  11  17
ENDBRANCH  10  11
ENDBRANCH   1  10
BRANCH   6  22
ATOM     22  O   UNL     1       7.479   4.964  16.910  0.00  0.00    +0.000 OA
BRANCH  22  23
ATOM     23  C   UNL     1       7.251   6.130  17.728  0.00  0.00    +0.000 C 
ATOM     24  C   UNL     1       7.856   6.104  19.139  0.00  0.00    +0.000 C 
ATOM     25  C   UNL     1       7.463   7.497  17.084  0.00  0.00    +0.000 C 
ENDBRANCH  22  23
ENDBRANCH   6  22
TORSDOF 11
ENDMDL
MODEL 3
REMARK VINA RESULT:      -6.8      1.682      2.073
REMARK  Name = 
REMARK  16 active torsions:
REMARK  status: ('A' for Active; 'I' for Inactive)
REMARK    1  A    between atoms: C_1  and  C_2
REMARK    2  A    between atoms: C_2  and  O_3
REMARK    3  A    between atoms: O_3  and  C_4
REMARK    4  A    between atoms: C_4  and  C_6
REMARK    5  A    between atoms: C_6  and  C_7
REMARK    6  A    between atoms: C_6  and  C_21
REMARK    7  A    between atoms: C_7  and  C_8
REMARK    8  A    between atoms: C_10  and  C_11
REMARK    9  A    between atoms: C_11  and  C_12
REMARK   10  A    between atoms: C_16  and  O_17
REMARK   11  A    between atoms: O_17  and  C_18
REMARK   12  A    between atoms: C_18  and  C_19
REMARK   13  A    between atoms: C_18  and  C_20
REMARK   14  A    between atoms: C_21  and  O_23
REMARK   15  A    between atoms: O_23  and  C_24
REMARK   16  A    between atoms: C_24  and  C_25
REMARK                            x       y       z     vdW  Elec       q    Type
REMARK                         _______ _______ _______ _____ _____    ______ ____
ROOT
ATOM      1  C   UNL     1       2.457   6.400  18.720  0.00  0.00    +0.000 A 
ATOM      2  C   UNL     1       2.151   7.665  18.192  0.00  0.00    +0.000 A 
ATOM      3  C   UNL     1       1.732   8.708  18.997  0.00  0.00    +0.000 A 
ATOM      4  C   UNL     1       1.402   8.408  20.319  0.00  0.00    +0.000 A 
ATOM      5  C   UNL     1       1.512   7.083  20.818  0.00  0.00    +0.000 A 
ATOM      6  C   UNL     1       2.068   6.065  20.044  0.00  0.00    +0.000 A 
ENDROOT
BRANCH   3   7
ATOM      7  C   UNL     1       1.805  10.073  18.378  0.00  0.00    +0.000 C 
ATOM      8  C   UNL     1       1.138  11.252  19.016  0.00  0.00    +0.000 C 
ATOM      9  O   UNL     1       2.516  10.255  17.380  0.00  0.00    +0.000 OA
ENDBRANCH   3   7
BRANCH   1  10
ATOM     10  C   UNL     1       3.373   5.567  17.846  0.00  0.00    +0.000 C 
BRANCH  10  11
ATOM     11  C   UNL     1       4.881   5.900  18.086  0.00  0.00    +0.000 C 
BRANCH  11  12
ATOM     12  C   UNL     1       5.478   6.472  16.823  0.00  0.00    +0.000 C 
ATOM     13  O   UNL     1       6.317   7.370  16.906  0.00  0.00    +0.000 OA
BRANCH  12  14
ATOM     14  O   UNL     1       4.956   6.076  15.630  0.00  0.00    +0.000 OA
BRANCH  14  16
ATOM     15  C   UNL     1       5.841   3.763  15.362  0.00  0.00    +0.000 C 
ATOM     16  C   UNL     1       5.817   5.199  14.851  0.00  0.00    +0.000 C 
ENDBRANCH  14  16
ENDBRANCH  12  14
ENDBRANCH  11  12
BRANCH  11  17
ATOM     17  C   UNL     1       5.580   4.948  19.048  0.00  0.00    +0.000 C 
ATOM     18  O   UNL     1       5.103   3.836  19.278  0.00  0.00    +0.000 OA
BRANCH  17  19
ATOM     19  O   UNL     1       6.585   5.466  19.802  0.00  0.00    +0.000 OA
BRANCH  19  20
ATOM     20  C   UNL     1       7.936   5.360  19.257  0.00  0.00    +0.000 C 
ATOM     21  C   UNL     1       8.168   4.545  17.984  0.00  0.00    +0.000 C 
ENDBRANCH  19  20
ENDBRANCH  17  19
ENDBRANCH  11  17
ENDBRANCH  10  11
ENDBRANCH   1  10
BRANCH   6  22
ATOM     22  O   UNL     1       2.354   4.810  20.501  0.00  0.00    +0.000 OA
BRANCH  22  23
ATOM     23  C   UNL     1       1.432   3.734  20.770  0.00  0.00    +0.000 C 
ATOM     24  C   UNL     1       0.854   3.008  19.548  0.00  0.00    +0.000 C 
ATOM     25  C   UNL     1       1.815   2.730  21.854  0.00  0.00    +0.000 C 
ENDBRANCH  22  23
ENDBRANCH   6  22
TORSDOF 11
ENDMDL
MODEL 4
REMARK VINA RESULT:      -6.7      1.015      1.144
REMARK  Name = 
REMARK  16 active torsions:
REMARK  status: ('A' for Active; 'I' for Inactive)
REMARK    1  A    between atoms: C_1  and  C_2
REMARK    2  A    between atoms: C_2  and  O_3
REMARK    3  A    between atoms: O_3  and  C_4
REMARK    4  A    between atoms: C_4  and  C_6
REMARK    5  A    between atoms: C_6  and  C_7
REMARK    6  A    between atoms: C_6  and  C_21
REMARK    7  A    between atoms: C_7  and  C_8
REMARK    8  A    between atoms: C_10  and  C_11
REMARK    9  A    between atoms: C_11  and  C_12
REMARK   10  A    between atoms: C_16  and  O_17
REMARK   11  A    between atoms: O_17  and  C_18
REMARK   12  A    between atoms: C_18  and  C_19
REMARK   13  A    between atoms: C_18  and  C_20
REMARK   14  A    between atoms: C_21  and  O_23
REMARK   15  A    between atoms: O_23  and  C_24
REMARK   16  A    between atoms: C_24  and  C_25
REMARK                            x       y       z     vdW  Elec       q    Type
REMARK                         _______ _______ _______ _____ _____    ______ ____
ROOT
ATOM      1  C   UNL     1       2.662   5.593  18.479  0.00  0.00    +0.000 A 
ATOM      2  C   UNL     1       2.275   6.851  17.990  0.00  0.00    +0.000 A 
ATOM      3  C   UNL     1       1.928   7.887  18.837  0.00  0.00    +0.000 A 
ATOM      4  C   UNL     1       1.753   7.582  20.187  0.00  0.00    +0.000 A 
ATOM      5  C   UNL     1       1.944   6.259  20.669  0.00  0.00    +0.000 A 
ATOM      6  C   UNL     1       2.430   5.252  19.838  0.00  0.00    +0.000 A 
ENDROOT
BRANCH   3   7
ATOM      7  C   UNL     1       1.906   9.252  18.215  0.00  0.00    +0.000 C 
ATOM      8  C   UNL     1       1.322  10.426  18.939  0.00  0.00    +0.000 C 
ATOM      9  O   UNL     1       2.473   9.440  17.130  0.00  0.00    +0.000 OA
ENDBRANCH   3   7
BRANCH   1  10
ATOM     10  C   UNL     1       3.491   4.777  17.507  0.00  0.00    +0.000 C 
BRANCH  10  11
ATOM     11  C   UNL     1       4.963   5.293  17.409  0.00  0.00    +0.000 C 
BRANCH  11  12
ATOM     12  C   UNL     1       5.229   5.791  16.009  0.00  0.00    +0.000 C 
ATOM     13  O   UNL     1       5.465   6.987  15.830  0.00  0.00    +0.000 OA
BRANCH  12  14
ATOM     14  O   UNL     1       5.051   4.925  14.974  0.00  0.00    +0.000 OA
BRANCH  14  16
ATOM     15  C   UNL     1       7.386   4.802  14.113  0.00  0.00    +0.000 C 
ATOM     16  C   UNL     1       6.191   4.062  14.703  0.00  0.00    +0.000 C 
ENDBRANCH  14  16
ENDBRANCH  12  14
ENDBRANCH  11  12
BRANCH  11  17
ATOM     17  C   UNL     1       5.949   4.527  18.282  0.00  0.00    +0.000 C 
ATOM     18  O   UNL     1       5.553   3.917  19.277  0.00  0.00    +0.000 OA
BRANCH  17  19
ATOM     19  O   UNL     1       7.270   4.752  18.058  0.00  0.00    +0.000 OA
BRANCH  19  20
ATOM     20  C   UNL     1       7.895   5.818  18.835  0.00  0.00    +0.000 C 
ATOM     21  C   UNL     1       7.919   7.240  18.273  0.00  0.00    +0.000 C 
ENDBRANCH  19  20
ENDBRANCH  17  19
ENDBRANCH  11  17
ENDBRANCH  10  11
ENDBRANCH   1  10
BRANCH   6  22
ATOM     22  O   UNL     1       2.789   4.003  20.258  0.00  0.00    +0.000 OA
BRANCH  22  23
ATOM     23  C   UNL     1       2.081   2.763  20.056  0.00  0.00    +0.000 C 
ATOM     24  C   UNL     1       0.605   2.877  19.652  0.00  0.00    +0.000 C 
ATOM     25  C   UNL     1       2.774   1.678  19.236  0.00  0.00    +0.000 C 
ENDBRANCH  22  23
ENDBRANCH   6  22
TORSDOF 11
ENDMDL
MODEL 5
REMARK VINA RESULT:      -6.6      1.785      6.747
REMARK  Name = 
REMARK  16 active torsions:
REMARK  status: ('A' for Active; 'I' for Inactive)
REMARK    1  A    between atoms: C_1  and  C_2
REMARK    2  A    between atoms: C_2  and  O_3
REMARK    3  A    between atoms: O_3  and  C_4
REMARK    4  A    between atoms: C_4  and  C_6
REMARK    5  A    between atoms: C_6  and  C_7
REMARK    6  A    between atoms: C_6  and  C_21
REMARK    7  A    between atoms: C_7  and  C_8
REMARK    8  A    between atoms: C_10  and  C_11
REMARK    9  A    between atoms: C_11  and  C_12
REMARK   10  A    between atoms: C_16  and  O_17
REMARK   11  A    between atoms: O_17  and  C_18
REMARK   12  A    between atoms: C_18  and  C_19
REMARK   13  A    between atoms: C_18  and  C_20
REMARK   14  A    between atoms: C_21  and  O_23
REMARK   15  A    between atoms: O_23  and  C_24
REMARK   16  A    between atoms: C_24  and  C_25
REMARK                            x       y       z     vdW  Elec       q    Type
REMARK                         _______ _______ _______ _____ _____    ______ ____
ROOT
ATOM      1  C   UNL     1       5.403   4.333  15.969  0.00  0.00    +0.000 A 
ATOM      2  C   UNL     1       5.169   3.849  14.672  0.00  0.00    +0.000 A 
ATOM      3  C   UNL     1       6.010   4.154  13.617  0.00  0.00    +0.000 A 
ATOM      4  C   UNL     1       6.972   5.142  13.828  0.00  0.00    +0.000 A 
ATOM      5  C   UNL     1       7.090   5.793  15.085  0.00  0.00    +0.000 A 
ATOM      6  C   UNL     1       6.335   5.382  16.183  0.00  0.00    +0.000 A 
ENDROOT
BRANCH   3   7
ATOM      7  C   UNL     1       5.866   3.286  12.402  0.00  0.00    +0.000 C 
ATOM      8  C   UNL     1       4.549   3.139  11.705  0.00  0.00    +0.000 C 
ATOM      9  O   UNL     1       6.871   2.765  11.899  0.00  0.00    +0.000 OA
ENDBRANCH   3   7
BRANCH   1  10
ATOM     10  C   UNL     1       4.745   3.517  17.064  0.00  0.00    +0.000 C 
BRANCH  10  11
ATOM     11  C   UNL     1       3.319   4.048  17.420  0.00  0.00    +0.000 C 
BRANCH  11  12
ATOM     12  C   UNL     1       3.440   5.369  18.142  0.00  0.00    +0.000 C 
ATOM     13  O   UNL     1       3.854   5.385  19.302  0.00  0.00    +0.000 OA
BRANCH  12  14
ATOM     14  O   UNL     1       2.946   6.481  17.534  0.00  0.00    +0.000 OA
BRANCH  14  16
ATOM     15  C   UNL     1       2.313   8.868  17.865  0.00  0.00    +0.000 C 
ATOM     16  C   UNL     1       2.355   7.456  18.438  0.00  0.00    +0.000 C 
ENDBRANCH  14  16
ENDBRANCH  12  14
ENDBRANCH  11  12
BRANCH  11  17
ATOM     17  C   UNL     1       2.309   2.952  17.736  0.00  0.00    +0.000 C 
ATOM     18  O   UNL     1       2.567   1.776  17.474  0.00  0.00    +0.000 OA
BRANCH  17  19
ATOM     19  O   UNL     1       1.056   3.352  18.078  0.00  0.00    +0.000 OA
BRANCH  19  20
ATOM     20  C   UNL     1       0.570   2.937  19.390  0.00  0.00    +0.000 C 
ATOM     21  C   UNL     1       1.244   3.489  20.648  0.00  0.00    +0.000 C 
ENDBRANCH  19  20
ENDBRANCH  17  19
ENDBRANCH  11  17
ENDBRANCH  10  11
ENDBRANCH   1  10
BRANCH   6  22
ATOM     22  O   UNL     1       6.501   5.846  17.457  0.00  0.00    +0.000 OA
BRANCH  22  23
ATOM     23  C   UNL     1       7.720   6.289  18.087  0.00  0.00    +0.000 C 
ATOM     24  C   UNL     1       8.003   7.797  18.041  0.00  0.00    +0.000 C 
ATOM     25  C   UNL     1       8.046   5.729  19.468  0.00  0.00    +0.000 C 
ENDBRANCH  22  23
ENDBRANCH   6  22
TORSDOF 11
ENDMDL
MODEL 6
REMARK VINA RESULT:      -6.6      1.666      5.509
REMARK  Name = 
REMARK  16 active torsions:
REMARK  status: ('A' for Active; 'I' for Inactive)
REMARK    1  A    between atoms: C_1  and  C_2
REMARK    2  A    between atoms: C_2  and  O_3
REMARK    3  A    between atoms: O_3  and  C_4
REMARK    4  A    between atoms: C_4  and  C_6
REMARK    5  A    between atoms: C_6  and  C_7
REMARK    6  A    between atoms: C_6  and  C_21
REMARK    7  A    between atoms: C_7  and  C_8
REMARK    8  A    between atoms: C_10  and  C_11
REMARK    9  A    between atoms: C_11  and  C_12
REMARK   10  A    between atoms: C_16  and  O_17
REMARK   11  A    between atoms: O_17  and  C_18
REMARK   12  A    between atoms: C_18  and  C_19
REMARK   13  A    between atoms: C_18  and  C_20
REMARK   14  A    between atoms: C_21  and  O_23
REMARK   15  A    between atoms: O_23  and  C_24
REMARK   16  A    between atoms: C_24  and  C_25
REMARK                            x       y       z     vdW  Elec       q    Type
REMARK                         _______ _______ _______ _____ _____    ______ ____
ROOT
ATOM      1  C   UNL     1       3.969   4.719  17.141  0.00  0.00    +0.000 A 
ATOM      2  C   UNL     1       4.761   4.403  16.026  0.00  0.00    +0.000 A 
ATOM      3  C   UNL     1       5.511   5.362  15.369  0.00  0.00    +0.000 A 
ATOM      4  C   UNL     1       5.282   6.696  15.704  0.00  0.00    +0.000 A 
ATOM      5  C   UNL     1       4.328   7.049  16.695  0.00  0.00    +0.000 A 
ATOM      6  C   UNL     1       3.680   6.074  17.452  0.00  0.00    +0.000 A 
ENDROOT
BRANCH   3   7
ATOM      7  C   UNL     1       6.579   4.835  14.458  0.00  0.00    +0.000 C 
ATOM      8  C   UNL     1       6.284   3.769  13.448  0.00  0.00    +0.000 C 
ATOM      9  O   UNL     1       7.701   5.361  14.461  0.00  0.00    +0.000 OA
ENDBRANCH   3   7
BRANCH   1  10
ATOM     10  C   UNL     1       3.655   3.536  18.035  0.00  0.00    +0.000 C 
BRANCH  10  11
ATOM     11  C   UNL     1       4.776   3.283  19.095  0.00  0.00    +0.000 C 
BRANCH  11  12
ATOM     12  C   UNL     1       4.240   2.397  20.193  0.00  0.00    +0.000 C 
ATOM     13  O   UNL     1       5.031   1.804  20.928  0.00  0.00    +0.000 OA
BRANCH  12  14
ATOM     14  O   UNL     1       2.899   2.168  20.236  0.00  0.00    +0.000 OA
BRANCH  14  16
ATOM     15  C   UNL     1       2.170   4.240  21.412  0.00  0.00    +0.000 C 
ATOM     16  C   UNL     1       2.227   2.717  21.404  0.00  0.00    +0.000 C 
ENDBRANCH  14  16
ENDBRANCH  12  14
ENDBRANCH  11  12
BRANCH  11  17
ATOM     17  C   UNL     1       5.726   4.459  19.286  0.00  0.00    +0.000 C 
ATOM     18  O   UNL     1       5.377   5.437  19.949  0.00  0.00    +0.000 OA
BRANCH  17  19
ATOM     19  O   UNL     1       6.839   4.482  18.507  0.00  0.00    +0.000 OA
BRANCH  19  20
ATOM     20  C   UNL     1       7.837   5.501  18.818  0.00  0.00    +0.000 C 
ATOM     21  C   UNL     1       7.784   6.847  18.093  0.00  0.00    +0.000 C 
ENDBRANCH  19  20
ENDBRANCH  17  19
ENDBRANCH  11  17
ENDBRANCH  10  11
ENDBRANCH   1  10
BRANCH   6  22
ATOM     22  O   UNL     1       2.874   6.331  18.524  0.00  0.00    +0.000 OA
BRANCH  22  23
ATOM     23  C   UNL     1       2.037   7.484  18.747  0.00  0.00    +0.000 C 
ATOM     24  C   UNL     1       1.839   7.912  20.208  0.00  0.00    +0.000 C 
ATOM     25  C   UNL     1       2.267   8.706  17.862  0.00  0.00    +0.000 C 
ENDBRANCH  22  23
ENDBRANCH   6  22
TORSDOF 11
ENDMDL
MODEL 7
REMARK VINA RESULT:      -6.6      2.068      6.373
REMARK  Name = 
REMARK  16 active torsions:
REMARK  status: ('A' for Active; 'I' for Inactive)
REMARK    1  A    between atoms: C_1  and  C_2
REMARK    2  A    between atoms: C_2  and  O_3
REMARK    3  A    between atoms: O_3  and  C_4
REMARK    4  A    between atoms: C_4  and  C_6
REMARK    5  A    between atoms: C_6  and  C_7
REMARK    6  A    between atoms: C_6  and  C_21
REMARK    7  A    between atoms: C_7  and  C_8
REMARK    8  A    between atoms: C_10  and  C_11
REMARK    9  A    between atoms: C_11  and  C_12
REMARK   10  A    between atoms: C_16  and  O_17
REMARK   11  A    between atoms: O_17  and  C_18
REMARK   12  A    between atoms: C_18  and  C_19
REMARK   13  A    between atoms: C_18  and  C_20
REMARK   14  A    between atoms: C_21  and  O_23
REMARK   15  A    between atoms: O_23  and  C_24
REMARK   16  A    between atoms: C_24  and  C_25
REMARK                            x       y       z     vdW  Elec       q    Type
REMARK                         _______ _______ _______ _____ _____    ______ ____
ROOT
ATOM      1  C   UNL     1       3.388   5.972  17.784  0.00  0.00    +0.000 A 
ATOM      2  C   UNL     1       2.260   5.220  18.153  0.00  0.00    +0.000 A 
ATOM      3  C   UNL     1       2.255   3.838  18.095  0.00  0.00    +0.000 A 
ATOM      4  C   UNL     1       3.322   3.218  17.445  0.00  0.00    +0.000 A 
ATOM      5  C   UNL     1       4.380   3.982  16.882  0.00  0.00    +0.000 A 
ATOM      6  C   UNL     1       4.451   5.362  17.067  0.00  0.00    +0.000 A 
ENDROOT
BRANCH   3   7
ATOM      7  C   UNL     1       1.154   3.163  18.857  0.00  0.00    +0.000 C 
ATOM      8  C   UNL     1       0.877   3.505  20.289  0.00  0.00    +0.000 C 
ATOM      9  O   UNL     1       0.389   2.387  18.269  0.00  0.00    +0.000 OA
ENDBRANCH   3   7
BRANCH   1  10
ATOM     10  C   UNL     1       3.430   7.363  18.385  0.00  0.00    +0.000 C 
BRANCH  10  11
ATOM     11  C   UNL     1       2.014   7.858  18.825  0.00  0.00    +0.000 C 
BRANCH  11  12
ATOM     12  C   UNL     1       1.546   8.943  17.883  0.00  0.00    +0.000 C 
ATOM     13  O   UNL     1       2.382   9.645  17.313  0.00  0.00    +0.000 OA
BRANCH  12  14
ATOM     14  O   UNL     1       0.212   9.202  17.814  0.00  0.00    +0.000 OA
BRANCH  14  16
ATOM     15  C   UNL     1      -1.711  10.576  18.603  0.00  0.00    +0.000 C 
ATOM     16  C   UNL     1      -0.199  10.441  18.457  0.00  0.00    +0.000 C 
ENDBRANCH  14  16
ENDBRANCH  12  14
ENDBRANCH  11  12
BRANCH  11  17
ATOM     17  C   UNL     1       1.786   7.830  20.330  0.00  0.00    +0.000 C 
ATOM     18  O   UNL     1       1.462   6.781  20.890  0.00  0.00    +0.000 OA
BRANCH  17  19
ATOM     19  O   UNL     1       1.715   9.030  20.963  0.00  0.00    +0.000 OA
BRANCH  19  20
ATOM     20  C   UNL     1       1.046   9.049  22.260  0.00  0.00    +0.000 C 
ATOM     21  C   UNL     1      -0.468   9.259  22.319  0.00  0.00    +0.000 C 
ENDBRANCH  19  20
ENDBRANCH  17  19
ENDBRANCH  11  17
ENDBRANCH  10  11
ENDBRANCH   1  10
BRANCH   6  22
ATOM     22  O   UNL     1       5.509   6.142  16.698  0.00  0.00    +0.000 OA
BRANCH  22  23
ATOM     23  C   UNL     1       6.805   6.230  17.324  0.00  0.00    +0.000 C 
ATOM     24  C   UNL     1       7.439   7.627  17.388  0.00  0.00    +0.000 C 
ATOM     25  C   UNL     1       7.004   5.495  18.646  0.00  0.00    +0.000 C 
ENDBRANCH  22  23
ENDBRANCH   6  22
TORSDOF 11
ENDMDL
MODEL 8
REMARK VINA RESULT:      -6.6      1.772      6.386
REMARK  Name = 
REMARK  16 active torsions:
REMARK  status: ('A' for Active; 'I' for Inactive)
REMARK    1  A    between atoms: C_1  and  C_2
REMARK    2  A    between atoms: C_2  and  O_3
REMARK    3  A    between atoms: O_3  and  C_4
REMARK    4  A    between atoms: C_4  and  C_6
REMARK    5  A    between atoms: C_6  and  C_7
REMARK    6  A    between atoms: C_6  and  C_21
REMARK    7  A    between atoms: C_7  and  C_8
REMARK    8  A    between atoms: C_10  and  C_11
REMARK    9  A    between atoms: C_11  and  C_12
REMARK   10  A    between atoms: C_16  and  O_17
REMARK   11  A    between atoms: O_17  and  C_18
REMARK   12  A    between atoms: C_18  and  C_19
REMARK   13  A    between atoms: C_18  and  C_20
REMARK   14  A    between atoms: C_21  and  O_23
REMARK   15  A    between atoms: O_23  and  C_24
REMARK   16  A    between atoms: C_24  and  C_25
REMARK                            x       y       z     vdW  Elec       q    Type
REMARK                         _______ _______ _______ _____ _____    ______ ____
ROOT
ATOM      1  C   UNL     1       5.235   3.834  15.993  0.00  0.00    +0.000 A 
ATOM      2  C   UNL     1       5.970   4.286  17.101  0.00  0.00    +0.000 A 
ATOM      3  C   UNL     1       7.004   5.194  16.968  0.00  0.00    +0.000 A 
ATOM      4  C   UNL     1       7.448   5.478  15.677  0.00  0.00    +0.000 A 
ATOM      5  C   UNL     1       6.844   4.869  14.544  0.00  0.00    +0.000 A 
ATOM      6  C   UNL     1       5.712   4.066  14.676  0.00  0.00    +0.000 A 
ENDROOT
BRANCH   3   7
ATOM      7  C   UNL     1       7.443   5.865  18.236  0.00  0.00    +0.000 C 
ATOM      8  C   UNL     1       7.883   7.297  18.245  0.00  0.00    +0.000 C 
ATOM      9  O   UNL     1       7.340   5.264  19.314  0.00  0.00    +0.000 OA
ENDBRANCH   3   7
BRANCH   1  10
ATOM     10  C   UNL     1       3.861   3.295  16.337  0.00  0.00    +0.000 C 
BRANCH  10  11
ATOM     11  C   UNL     1       3.425   3.676  17.789  0.00  0.00    +0.000 C 
BRANCH  11  12
ATOM     12  C   UNL     1       3.548   2.467  18.685  0.00  0.00    +0.000 C 
ATOM     13  O   UNL     1       3.717   1.357  18.178  0.00  0.00    +0.000 OA
BRANCH  12  14
ATOM     14  O   UNL     1       3.318   2.628  20.016  0.00  0.00    +0.000 OA
BRANCH  14  16
ATOM     15  C   UNL     1       1.467   3.114  21.612  0.00  0.00    +0.000 C 
ATOM     16  C   UNL     1       1.976   2.270  20.448  0.00  0.00    +0.000 C 
ENDBRANCH  14  16
ENDBRANCH  12  14
ENDBRANCH  11  12
BRANCH  11  17
ATOM     17  C   UNL     1       2.315   4.718  17.850  0.00  0.00    +0.000 C 
ATOM     18  O   UNL     1       1.171   4.428  17.496  0.00  0.00    +0.000 OA
BRANCH  17  19
ATOM     19  O   UNL     1       2.693   6.005  18.070  0.00  0.00    +0.000 OA
BRANCH  19  20
ATOM     20  C   UNL     1       2.951   6.386  19.455  0.00  0.00    +0.000 C 
ATOM     21  C   UNL     1       1.776   6.528  20.424  0.00  0.00    +0.000 C 
ENDBRANCH  19  20
ENDBRANCH  17  19
ENDBRANCH  11  17
ENDBRANCH  10  11
ENDBRANCH   1  10
BRANCH   6  22
ATOM     22  O   UNL     1       4.983   3.575  13.631  0.00  0.00    +0.000 OA
BRANCH  22  23
ATOM     23  C   UNL     1       5.357   3.516  12.239  0.00  0.00    +0.000 C 
ATOM     24  C   UNL     1       6.533   2.596  11.886  0.00  0.00    +0.000 C 
ATOM     25  C   UNL     1       4.238   3.367  11.212  0.00  0.00    +0.000 C 
ENDBRANCH  22  23
ENDBRANCH   6  22
TORSDOF 11
ENDMDL
MODEL 9
REMARK VINA RESULT:      -6.5      1.365      5.335
REMARK  Name = 
REMARK  16 active torsions:
REMARK  status: ('A' for Active; 'I' for Inactive)
REMARK    1  A    between atoms: C_1  and  C_2
REMARK    2  A    between atoms: C_2  and  O_3
REMARK    3  A    between atoms: O_3  and  C_4
REMARK    4  A    between atoms: C_4  and  C_6
REMARK    5  A    between atoms: C_6  and  C_7
REMARK    6  A    between atoms: C_6  and  C_21
REMARK    7  A    between atoms: C_7  and  C_8
REMARK    8  A    between atoms: C_10  and  C_11
REMARK    9  A    between atoms: C_11  and  C_12
REMARK   10  A    between atoms: C_16  and  O_17
REMARK   11  A    between atoms: O_17  and  C_18
REMARK   12  A    between atoms: C_18  and  C_19
REMARK   13  A    between atoms: C_18  and  C_20
REMARK   14  A    between atoms: C_21  and  O_23
REMARK   15  A    between atoms: O_23  and  C_24
REMARK   16  A    between atoms: C_24  and  C_25
REMARK                            x       y       z     vdW  Elec       q    Type
REMARK                         _______ _______ _______ _____ _____    ______ ____
ROOT
ATOM      1  C   UNL     1       4.388   5.694  18.577  0.00  0.00    +0.000 A 
ATOM      2  C   UNL     1       4.730   4.407  19.023  0.00  0.00    +0.000 A 
ATOM      3  C   UNL     1       3.808   3.581  19.639  0.00  0.00    +0.000 A 
ATOM      4  C   UNL     1       2.588   4.144  20.012  0.00  0.00    +0.000 A 
ATOM      5  C   UNL     1       2.301   5.510  19.748  0.00  0.00    +0.000 A 
ATOM      6  C   UNL     1       3.176   6.299  19.002  0.00  0.00    +0.000 A 
ENDROOT
BRANCH   3   7
ATOM      7  C   UNL     1       4.190   2.132  19.719  0.00  0.00    +0.000 C 
ATOM      8  C   UNL     1       3.682   1.139  18.719  0.00  0.00    +0.000 C 
ATOM      9  O   UNL     1       5.022   1.763  20.558  0.00  0.00    +0.000 OA
ENDBRANCH   3   7
BRANCH   1  10
ATOM     10  C   UNL     1       5.299   6.239  17.496  0.00  0.00    +0.000 C 
BRANCH  10  11
ATOM     11  C   UNL     1       6.563   5.344  17.283  0.00  0.00    +0.000 C 
BRANCH  11  12
ATOM     12  C   UNL     1       7.623   5.724  18.288  0.00  0.00    +0.000 C 
ATOM     13  O   UNL     1       8.273   4.837  18.842  0.00  0.00    +0.000 OA
BRANCH  12  14
ATOM     14  O   UNL     1       7.720   7.031  18.656  0.00  0.00    +0.000 OA
BRANCH  14  16
ATOM     15  C   UNL     1       8.157   9.397  18.008  0.00  0.00    +0.000 C 
ATOM     16  C   UNL     1       8.169   7.927  17.601  0.00  0.00    +0.000 C 
ENDBRANCH  14  16
ENDBRANCH  12  14
ENDBRANCH  11  12
BRANCH  11  17
ATOM     17  C   UNL     1       6.812   4.958  15.831  0.00  0.00    +0.000 C 
ATOM     18  O   UNL     1       7.493   5.683  15.103  0.00  0.00    +0.000 OA
BRANCH  17  19
ATOM     19  O   UNL     1       6.066   3.939  15.330  0.00  0.00    +0.000 OA
BRANCH  19  20
ATOM     20  C   UNL     1       5.484   4.141  14.006  0.00  0.00    +0.000 C 
ATOM     21  C   UNL     1       6.116   3.449  12.796  0.00  0.00    +0.000 C 
ENDBRANCH  19  20
ENDBRANCH  17  19
ENDBRANCH  11  17
ENDBRANCH  10  11
ENDBRANCH   1  10
BRANCH   6  22
ATOM     22  O   UNL     1       2.904   7.567  18.573  0.00  0.00    +0.000 OA
BRANCH  22  23
ATOM     23  C   UNL     1       1.714   8.347  18.810  0.00  0.00    +0.000 C 
ATOM     24  C   UNL     1       1.362   8.627  20.277  0.00  0.00    +0.000 C 
ATOM     25  C   UNL     1       1.511   9.601  17.965  0.00  0.00    +0.000 C 
ENDBRANCH  22  23
ENDBRANCH   6  22
TORSDOF 11
ENDMDL
