MODEL 1
REMARK VINA RESULT:      -9.0      0.000      0.000
REMARK  Name = 
REMARK  5 active torsions:
REMARK  status: ('A' for Active; 'I' for Inactive)
REMARK    1  A    between atoms: C_2  and  C_14
REMARK    2  A    between atoms: N_3  and  C_4
REMARK    3  A    between atoms: C_18  and  C_19
REMARK    4  A    between atoms: C_19  and  N_20
REMARK    5  A    between atoms: C_24  and  O_25
REMARK                            x       y       z     vdW  Elec       q    Type
REMARK                         _______ _______ _______ _____ _____    ______ ____
ROOT
ATOM      1  C   UNL     1       6.671   6.185  17.205  0.00  0.00    +0.000 A 
ATOM      2  C   UNL     1       6.974   5.599  15.976  0.00  0.00    +0.000 A 
ATOM      3  C   UNL     1       6.077   4.684  15.402  0.00  0.00    +0.000 A 
ATOM      4  C   UNL     1       4.875   4.361  16.048  0.00  0.00    +0.000 A 
ATOM      5  C   UNL     1       4.558   4.924  17.290  0.00  0.00    +0.000 A 
ATOM      6  C   UNL     1       5.476   5.828  17.854  0.00  0.00    +0.000 A 
ENDROOT
BRANCH   1   8
ATOM      7  O   UNL     1       8.195   6.706  18.886  0.00  0.00    +0.000 OA
ATOM      8  C   UNL     1       7.576   7.138  17.919  0.00  0.00    +0.000 C 
ATOM      9  N   UNL     1       7.616   8.450  17.455  0.00  0.00    +0.000 N 
ATOM     10  H   UNL     1       7.049   8.675  16.651  0.00  0.00    +0.000 HD
BRANCH   9  11
ATOM     11  C   UNL     1       8.306   9.537  18.060  0.00  0.00    +0.000 A 
ATOM     12  C   UNL     1       9.125   9.422  19.182  0.00  0.00    +0.000 A 
ATOM     13  C   UNL     1       9.750  10.547  19.730  0.00  0.00    +0.000 A 
ATOM     14  C   UNL     1       9.584  11.814  19.183  0.00  0.00    +0.000 A 
ATOM     15  N   UNL     1      10.204  12.875  19.742  0.00  0.00    +0.000 NA
ATOM     16  C   UNL     1       9.997  14.074  19.157  0.00  0.00    +0.000 A 
ATOM     17  C   UNL     1       9.194  14.212  18.045  0.00  0.00    +0.000 A 
ATOM     18  N   UNL     1       8.564  13.159  17.471  0.00  0.00    +0.000 NA
ATOM     19  C   UNL     1       8.760  11.948  18.044  0.00  0.00    +0.000 A 
ATOM     20  C   UNL     1       8.139  10.817  17.507  0.00  0.00    +0.000 A 
ENDBRANCH   9  11
ENDBRANCH   1   8
BRANCH   5  21
ATOM     21  C   UNL     1       3.305   4.526  18.056  0.00  0.00    +0.000 C 
BRANCH  21  22
ATOM     22  N   UNL     1       3.275   3.132  18.545  0.00  0.00    +0.000 NA
ATOM     23  C   UNL     1       1.999   2.444  18.301  0.00  0.00    +0.000 C 
ATOM     24  C   UNL     1       0.812   2.976  19.114  0.00  0.00    +0.000 C 
ATOM     25  C   UNL     1       1.094   3.114  20.611  0.00  0.00    +0.000 C 
ATOM     26  C   UNL     1       2.499   3.628  20.930  0.00  0.00    +0.000 C 
ATOM     27  C   UNL     1       3.574   3.040  19.990  0.00  0.00    +0.000 C 
BRANCH  26  28
ATOM     28  O   UNL     1       2.494   5.056  20.887  0.00  0.00    +0.000 OA
ATOM     29  H   UNL     1       3.375   5.346  20.599  0.00  0.00    +0.000 HD
ENDBRANCH  26  28
ENDBRANCH  21  22
ENDBRANCH   5  21
TORSDOF 5
ENDMDL
MODEL 2
REMARK VINA RESULT:      -9.0      1.011      1.399
REMARK  Name = 
REMARK  5 active torsions:
REMARK  status: ('A' for Active; 'I' for Inactive)
REMARK    1  A    between atoms: C_2  and  C_14
REMARK    2  A    between atoms: N_3  and  C_4
REMARK    3  A    between atoms: C_18  and  C_19
REMARK    4  A    between atoms: C_19  and  N_20
REMARK    5  A    between atoms: C_24  and  O_25
REMARK                            x       y       z     vdW  Elec       q    Type
REMARK                         _______ _______ _______ _____ _____    ______ ____
ROOT
ATOM      1  C   UNL     1       6.772   6.164  17.200  0.00  0.00    +0.000 A 
ATOM      2  C   UNL     1       6.946   5.799  15.865  0.00  0.00    +0.000 A 
ATOM      3  C   UNL     1       6.090   4.849  15.286  0.00  0.00    +0.000 A 
ATOM      4  C   UNL     1       5.056   4.269  16.034  0.00  0.00    +0.000 A 
ATOM      5  C   UNL     1       4.873   4.608  17.381  0.00  0.00    +0.000 A 
ATOM      6  C   UNL     1       5.749   5.552  17.945  0.00  0.00    +0.000 A 
ENDROOT
BRANCH   1   8
ATOM      7  O   UNL     1       8.276   6.713  18.889  0.00  0.00    +0.000 OA
ATOM      8  C   UNL     1       7.654   7.134  17.920  0.00  0.00    +0.000 C 
ATOM      9  N   UNL     1       7.669   8.447  17.459  0.00  0.00    +0.000 N 
ATOM     10  H   UNL     1       7.101   8.663  16.652  0.00  0.00    +0.000 HD
BRANCH   9  11
ATOM     11  C   UNL     1       8.334   9.547  18.069  0.00  0.00    +0.000 A 
ATOM     12  C   UNL     1       9.138   9.449  19.202  0.00  0.00    +0.000 A 
ATOM     13  C   UNL     1       9.737  10.585  19.755  0.00  0.00    +0.000 A 
ATOM     14  C   UNL     1       9.560  11.848  19.201  0.00  0.00    +0.000 A 
ATOM     15  N   UNL     1      10.155  12.920  19.765  0.00  0.00    +0.000 NA
ATOM     16  C   UNL     1       9.937  14.114  19.172  0.00  0.00    +0.000 A 
ATOM     17  C   UNL     1       9.148  14.236  18.048  0.00  0.00    +0.000 A 
ATOM     18  N   UNL     1       8.542  13.170  17.470  0.00  0.00    +0.000 NA
ATOM     19  C   UNL     1       8.749  11.965  18.050  0.00  0.00    +0.000 A 
ATOM     20  C   UNL     1       8.154  10.822  17.509  0.00  0.00    +0.000 A 
ENDBRANCH   9  11
ENDBRANCH   1   8
BRANCH   5  21
ATOM     21  C   UNL     1       3.817   3.931  18.242  0.00  0.00    +0.000 C 
BRANCH  21  22
ATOM     22  N   UNL     1       2.556   4.682  18.410  0.00  0.00    +0.000 NA
ATOM     23  C   UNL     1       2.327   5.162  19.781  0.00  0.00    +0.000 C 
ATOM     24  C   UNL     1       2.053   4.061  20.813  0.00  0.00    +0.000 C 
ATOM     25  C   UNL     1       0.979   3.060  20.386  0.00  0.00    +0.000 C 
ATOM     26  C   UNL     1       1.038   2.686  18.905  0.00  0.00    +0.000 C 
ATOM     27  C   UNL     1       1.376   3.890  18.000  0.00  0.00    +0.000 C 
BRANCH  26  28
ATOM     28  O   UNL     1       1.976   1.623  18.729  0.00  0.00    +0.000 OA
ATOM     29  H   UNL     1       2.117   1.508  17.775  0.00  0.00    +0.000 HD
ENDBRANCH  26  28
ENDBRANCH  21  22
ENDBRANCH   5  21
TORSDOF 5
ENDMDL
MODEL 3
REMARK VINA RESULT:      -8.6      1.056      1.400
REMARK  Name = 
REMARK  5 active torsions:
REMARK  status: ('A' for Active; 'I' for Inactive)
REMARK    1  A    between atoms: C_2  and  C_14
REMARK    2  A    between atoms: N_3  and  C_4
REMARK    3  A    between atoms: C_18  and  C_19
REMARK    4  A    between atoms: C_19  and  N_20
REMARK    5  A    between atoms: C_24  and  O_25
REMARK                            x       y       z     vdW  Elec       q    Type
REMARK                         _______ _______ _______ _____ _____    ______ ____
ROOT
ATOM      1  C   UNL     1       6.930   6.540  17.241  0.00  0.00    +0.000 A 
ATOM      2  C   UNL     1       7.321   5.842  16.098  0.00  0.00    +0.000 A 
ATOM      3  C   UNL     1       6.419   4.962  15.478  0.00  0.00    +0.000 A 
ATOM      4  C   UNL     1       5.128   4.783  15.992  0.00  0.00    +0.000 A 
ATOM      5  C   UNL     1       4.720   5.459  17.148  0.00  0.00    +0.000 A 
ATOM      6  C   UNL     1       5.641   6.327  17.761  0.00  0.00    +0.000 A 
ENDROOT
BRANCH   1   8
ATOM      7  O   UNL     1       8.474   6.990  18.924  0.00  0.00    +0.000 OA
ATOM      8  C   UNL     1       7.827   7.467  17.997  0.00  0.00    +0.000 C 
ATOM      9  N   UNL     1       7.826   8.807  17.618  0.00  0.00    +0.000 N 
ATOM     10  H   UNL     1       7.238   9.069  16.840  0.00  0.00    +0.000 HD
BRANCH   9  11
ATOM     11  C   UNL     1       8.502   9.870  18.278  0.00  0.00    +0.000 A 
ATOM     12  C   UNL     1       9.105   9.761  19.530  0.00  0.00    +0.000 A 
ATOM     13  C   UNL     1       9.730  10.864  20.122  0.00  0.00    +0.000 A 
ATOM     14  C   UNL     1       9.778  12.102  19.492  0.00  0.00    +0.000 A 
ATOM     15  N   UNL     1      10.390  13.142  20.096  0.00  0.00    +0.000 NA
ATOM     16  C   UNL     1      10.398  14.313  19.423  0.00  0.00    +0.000 A 
ATOM     17  C   UNL     1       9.812  14.444  18.183  0.00  0.00    +0.000 A 
ATOM     18  N   UNL     1       9.192  13.411  17.562  0.00  0.00    +0.000 NA
ATOM     19  C   UNL     1       9.175  12.228  18.220  0.00  0.00    +0.000 A 
ATOM     20  C   UNL     1       8.551  11.120  17.641  0.00  0.00    +0.000 A 
ENDBRANCH   9  11
ENDBRANCH   1   8
BRANCH   5  21
ATOM     21  C   UNL     1       3.356   5.219  17.780  0.00  0.00    +0.000 C 
BRANCH  21  22
ATOM     22  N   UNL     1       3.379   4.725  19.172  0.00  0.00    +0.000 NA
ATOM     23  C   UNL     1       4.167   3.497  19.355  0.00  0.00    +0.000 C 
ATOM     24  C   UNL     1       3.573   2.245  18.699  0.00  0.00    +0.000 C 
ATOM     25  C   UNL     1       2.096   2.013  19.022  0.00  0.00    +0.000 C 
ATOM     26  C   UNL     1       1.263   3.295  19.057  0.00  0.00    +0.000 C 
ATOM     27  C   UNL     1       2.020   4.478  19.699  0.00  0.00    +0.000 C 
BRANCH  26  28
ATOM     28  O   UNL     1       0.835   3.609  17.731  0.00  0.00    +0.000 OA
ATOM     29  H   UNL     1       1.385   3.099  17.114  0.00  0.00    +0.000 HD
ENDBRANCH  26  28
ENDBRANCH  21  22
ENDBRANCH   5  21
TORSDOF 5
ENDMDL
MODEL 4
REMARK VINA RESULT:      -8.3      5.291      6.961
REMARK  Name = 
REMARK  5 active torsions:
REMARK  status: ('A' for Active; 'I' for Inactive)
REMARK    1  A    between atoms: C_2  and  C_14
REMARK    2  A    between atoms: N_3  and  C_4
REMARK    3  A    between atoms: C_18  and  C_19
REMARK    4  A    between atoms: C_19  and  N_20
REMARK    5  A    between atoms: C_24  and  O_25
REMARK                            x       y       z     vdW  Elec       q    Type
REMARK                         _______ _______ _______ _____ _____    ______ ____
ROOT
ATOM      1  C   UNL     1       1.922   7.025  20.050  0.00  0.00    +0.000 A 
ATOM      2  C   UNL     1       1.612   5.994  20.937  0.00  0.00    +0.000 A 
ATOM      3  C   UNL     1       2.042   4.686  20.660  0.00  0.00    +0.000 A 
ATOM      4  C   UNL     1       2.786   4.408  19.505  0.00  0.00    +0.000 A 
ATOM      5  C   UNL     1       3.094   5.424  18.592  0.00  0.00    +0.000 A 
ATOM      6  C   UNL     1       2.644   6.725  18.881  0.00  0.00    +0.000 A 
ENDROOT
BRANCH   1   8
ATOM      7  O   UNL     1       1.224   8.807  21.376  0.00  0.00    +0.000 OA
ATOM      8  C   UNL     1       1.478   8.441  20.233  0.00  0.00    +0.000 C 
ATOM      9  N   UNL     1       1.348   9.223  19.088  0.00  0.00    +0.000 N 
ATOM     10  H   UNL     1       1.584   8.794  18.204  0.00  0.00    +0.000 HD
BRANCH   9  11
ATOM     11  C   UNL     1       0.824  10.544  19.023  0.00  0.00    +0.000 A 
ATOM     12  C   UNL     1      -0.534  10.849  18.958  0.00  0.00    +0.000 A 
ATOM     13  C   UNL     1      -0.966  12.176  18.872  0.00  0.00    +0.000 A 
ATOM     14  C   UNL     1      -0.068  13.237  18.851  0.00  0.00    +0.000 A 
ATOM     15  N   UNL     1      -0.525  14.504  18.767  0.00  0.00    +0.000 NA
ATOM     16  C   UNL     1       0.406  15.482  18.752  0.00  0.00    +0.000 A 
ATOM     17  C   UNL     1       1.754  15.206  18.819  0.00  0.00    +0.000 A 
ATOM     18  N   UNL     1       2.231  13.940  18.903  0.00  0.00    +0.000 NA
ATOM     19  C   UNL     1       1.313  12.945  18.920  0.00  0.00    +0.000 A 
ATOM     20  C   UNL     1       1.732  11.615  19.002  0.00  0.00    +0.000 A 
ENDBRANCH   9  11
ENDBRANCH   1   8
BRANCH   5  21
ATOM     21  C   UNL     1       3.823   5.138  17.288  0.00  0.00    +0.000 C 
BRANCH  21  22
ATOM     22  N   UNL     1       4.849   6.127  16.903  0.00  0.00    +0.000 NA
ATOM     23  C   UNL     1       5.394   5.924  15.552  0.00  0.00    +0.000 C 
ATOM     24  C   UNL     1       6.248   4.661  15.382  0.00  0.00    +0.000 C 
ATOM     25  C   UNL     1       7.329   4.492  16.451  0.00  0.00    +0.000 C 
ATOM     26  C   UNL     1       6.878   4.896  17.855  0.00  0.00    +0.000 C 
ATOM     27  C   UNL     1       5.983   6.154  17.853  0.00  0.00    +0.000 C 
BRANCH  26  28
ATOM     28  O   UNL     1       6.217   3.789  18.470  0.00  0.00    +0.000 OA
ATOM     29  H   UNL     1       6.833   3.396  19.110  0.00  0.00    +0.000 HD
ENDBRANCH  26  28
ENDBRANCH  21  22
ENDBRANCH   5  21
TORSDOF 5
ENDMDL
MODEL 5
REMARK VINA RESULT:      -8.3      7.468      8.668
REMARK  Name = 
REMARK  5 active torsions:
REMARK  status: ('A' for Active; 'I' for Inactive)
REMARK    1  A    between atoms: C_2  and  C_14
REMARK    2  A    between atoms: N_3  and  C_4
REMARK    3  A    between atoms: C_18  and  C_19
REMARK    4  A    between atoms: C_19  and  N_20
REMARK    5  A    between atoms: C_24  and  O_25
REMARK                            x       y       z     vdW  Elec       q    Type
REMARK                         _______ _______ _______ _____ _____    ______ ____
ROOT
ATOM      1  C   UNL     1       1.379   9.120  19.992  0.00  0.00    +0.000 A 
ATOM      2  C   UNL     1       1.431   9.499  18.651  0.00  0.00    +0.000 A 
ATOM      3  C   UNL     1       1.935   8.603  17.694  0.00  0.00    +0.000 A 
ATOM      4  C   UNL     1       2.379   7.329  18.073  0.00  0.00    +0.000 A 
ATOM      5  C   UNL     1       2.352   6.933  19.415  0.00  0.00    +0.000 A 
ATOM      6  C   UNL     1       1.855   7.849  20.360  0.00  0.00    +0.000 A 
ENDROOT
BRANCH   1   8
ATOM      7  O   UNL     1       1.147   9.669  22.242  0.00  0.00    +0.000 OA
ATOM      8  C   UNL     1       0.898  10.013  21.091  0.00  0.00    +0.000 C 
ATOM      9  N   UNL     1       0.172  11.142  20.725  0.00  0.00    +0.000 N 
ATOM     10  H   UNL     1       0.032  11.304  19.739  0.00  0.00    +0.000 HD
BRANCH   9  11
ATOM     11  C   UNL     1      -0.478  12.049  21.608  0.00  0.00    +0.000 A 
ATOM     12  C   UNL     1      -0.015  13.330  21.901  0.00  0.00    +0.000 A 
ATOM     13  C   UNL     1      -0.701  14.151  22.801  0.00  0.00    +0.000 A 
ATOM     14  C   UNL     1      -1.866  13.730  23.433  0.00  0.00    +0.000 A 
ATOM     15  N   UNL     1      -2.500  14.552  24.295  0.00  0.00    +0.000 NA
ATOM     16  C   UNL     1      -3.624  14.075  24.870  0.00  0.00    +0.000 A 
ATOM     17  C   UNL     1      -4.105  12.813  24.593  0.00  0.00    +0.000 A 
ATOM     18  N   UNL     1      -3.481  11.974  23.731  0.00  0.00    +0.000 NA
ATOM     19  C   UNL     1      -2.352  12.435  23.144  0.00  0.00    +0.000 A 
ATOM     20  C   UNL     1      -1.654  11.623  22.245  0.00  0.00    +0.000 A 
ENDBRANCH   9  11
ENDBRANCH   1   8
BRANCH   5  21
ATOM     21  C   UNL     1       2.908   5.591  19.869  0.00  0.00    +0.000 C 
BRANCH  21  22
ATOM     22  N   UNL     1       1.902   4.544  20.137  0.00  0.00    +0.000 NA
ATOM     23  C   UNL     1       2.397   3.445  20.979  0.00  0.00    +0.000 C 
ATOM     24  C   UNL     1       3.456   2.552  20.320  0.00  0.00    +0.000 C 
ATOM     25  C   UNL     1       3.073   2.057  18.925  0.00  0.00    +0.000 C 
ATOM     26  C   UNL     1       2.355   3.104  18.073  0.00  0.00    +0.000 C 
ATOM     27  C   UNL     1       1.361   3.956  18.892  0.00  0.00    +0.000 C 
BRANCH  26  28
ATOM     28  O   UNL     1       3.328   3.922  17.421  0.00  0.00    +0.000 OA
ATOM     29  H   UNL     1       4.152   3.411  17.363  0.00  0.00    +0.000 HD
ENDBRANCH  26  28
ENDBRANCH  21  22
ENDBRANCH   5  21
TORSDOF 5
ENDMDL
MODEL 6
REMARK VINA RESULT:      -8.2      5.139      7.751
REMARK  Name = 
REMARK  5 active torsions:
REMARK  status: ('A' for Active; 'I' for Inactive)
REMARK    1  A    between atoms: C_2  and  C_14
REMARK    2  A    between atoms: N_3  and  C_4
REMARK    3  A    between atoms: C_18  and  C_19
REMARK    4  A    between atoms: C_19  and  N_20
REMARK    5  A    between atoms: C_24  and  O_25
REMARK                            x       y       z     vdW  Elec       q    Type
REMARK                         _______ _______ _______ _____ _____    ______ ____
ROOT
ATOM      1  C   UNL     1       2.498   5.146  20.289  0.00  0.00    +0.000 A 
ATOM      2  C   UNL     1       2.278   3.795  20.556  0.00  0.00    +0.000 A 
ATOM      3  C   UNL     1       3.270   2.854  20.238  0.00  0.00    +0.000 A 
ATOM      4  C   UNL     1       4.483   3.259  19.663  0.00  0.00    +0.000 A 
ATOM      5  C   UNL     1       4.718   4.608  19.371  0.00  0.00    +0.000 A 
ATOM      6  C   UNL     1       3.707   5.534  19.685  0.00  0.00    +0.000 A 
ENDROOT
BRANCH   1   8
ATOM      7  O   UNL     1       0.342   5.865  20.793  0.00  0.00    +0.000 OA
ATOM      8  C   UNL     1       1.490   6.221  20.551  0.00  0.00    +0.000 C 
ATOM      9  N   UNL     1       1.926   7.540  20.460  0.00  0.00    +0.000 N 
ATOM     10  H   UNL     1       2.900   7.693  20.245  0.00  0.00    +0.000 HD
BRANCH   9  11
ATOM     11  C   UNL     1       1.112   8.703  20.547  0.00  0.00    +0.000 A 
ATOM     12  C   UNL     1       0.846   9.558  19.479  0.00  0.00    +0.000 A 
ATOM     13  C   UNL     1       0.055  10.697  19.654  0.00  0.00    +0.000 A 
ATOM     14  C   UNL     1      -0.498  11.021  20.888  0.00  0.00    +0.000 A 
ATOM     15  N   UNL     1      -1.256  12.130  21.016  0.00  0.00    +0.000 NA
ATOM     16  C   UNL     1      -1.759  12.380  22.244  0.00  0.00    +0.000 A 
ATOM     17  C   UNL     1      -1.513  11.548  23.315  0.00  0.00    +0.000 A 
ATOM     18  N   UNL     1      -0.753  10.431  23.205  0.00  0.00    +0.000 NA
ATOM     19  C   UNL     1      -0.241  10.163  21.981  0.00  0.00    +0.000 A 
ATOM     20  C   UNL     1       0.555   9.030  21.793  0.00  0.00    +0.000 A 
ENDBRANCH   9  11
ENDBRANCH   1   8
BRANCH   5  21
ATOM     21  C   UNL     1       5.986   5.069  18.667  0.00  0.00    +0.000 C 
BRANCH  21  22
ATOM     22  N   UNL     1       5.781   5.963  17.509  0.00  0.00    +0.000 NA
ATOM     23  C   UNL     1       4.760   5.488  16.565  0.00  0.00    +0.000 C 
ATOM     24  C   UNL     1       5.137   4.222  15.786  0.00  0.00    +0.000 C 
ATOM     25  C   UNL     1       6.517   4.282  15.131  0.00  0.00    +0.000 C 
ATOM     26  C   UNL     1       7.581   4.965  15.991  0.00  0.00    +0.000 C 
ATOM     27  C   UNL     1       7.032   6.191  16.753  0.00  0.00    +0.000 C 
BRANCH  26  28
ATOM     28  O   UNL     1       8.143   4.005  16.887  0.00  0.00    +0.000 OA
ATOM     29  H   UNL     1       8.855   3.542  16.415  0.00  0.00    +0.000 HD
ENDBRANCH  26  28
ENDBRANCH  21  22
ENDBRANCH   5  21
TORSDOF 5
ENDMDL
MODEL 7
REMARK VINA RESULT:      -8.1      1.303      2.084
REMARK  Name = 
REMARK  5 active torsions:
REMARK  status: ('A' for Active; 'I' for Inactive)
REMARK    1  A    between atoms: C_2  and  C_14
REMARK    2  A    between atoms: N_3  and  C_4
REMARK    3  A    between atoms: C_18  and  C_19
REMARK    4  A    between atoms: C_19  and  N_20
REMARK    5  A    between atoms: C_24  and  O_25
REMARK                            x       y       z     vdW  Elec       q    Type
REMARK                         _______ _______ _______ _____ _____    ______ ____
ROOT
ATOM      1  C   UNL     1       6.898   6.268  17.478  0.00  0.00    +0.000 A 
ATOM      2  C   UNL     1       7.127   5.639  16.255  0.00  0.00    +0.000 A 
ATOM      3  C   UNL     1       6.327   4.550  15.872  0.00  0.00    +0.000 A 
ATOM      4  C   UNL     1       5.295   4.094  16.704  0.00  0.00    +0.000 A 
ATOM      5  C   UNL     1       5.058   4.699  17.944  0.00  0.00    +0.000 A 
ATOM      6  C   UNL     1       5.878   5.780  18.315  0.00  0.00    +0.000 A 
ENDROOT
BRANCH   1   8
ATOM      7  O   UNL     1       8.460   7.178  18.945  0.00  0.00    +0.000 OA
ATOM      8  C   UNL     1       7.718   7.407  17.996  0.00  0.00    +0.000 C 
ATOM      9  N   UNL     1       7.545   8.646  17.386  0.00  0.00    +0.000 N 
ATOM     10  H   UNL     1       6.893   8.698  16.617  0.00  0.00    +0.000 HD
BRANCH   9  11
ATOM     11  C   UNL     1       8.126   9.877  17.800  0.00  0.00    +0.000 A 
ATOM     12  C   UNL     1       7.811  11.119  17.251  0.00  0.00    +0.000 A 
ATOM     13  C   UNL     1       8.447  12.281  17.699  0.00  0.00    +0.000 A 
ATOM     14  C   UNL     1       9.409  12.248  18.702  0.00  0.00    +0.000 A 
ATOM     15  N   UNL     1      10.001  13.392  19.106  0.00  0.00    +0.000 NA
ATOM     16  C   UNL     1      10.925  13.281  20.084  0.00  0.00    +0.000 A 
ATOM     17  C   UNL     1      11.251  12.065  20.644  0.00  0.00    +0.000 A 
ATOM     18  N   UNL     1      10.668  10.907  20.251  0.00  0.00    +0.000 NA
ATOM     19  C   UNL     1       9.738  10.997  19.271  0.00  0.00    +0.000 A 
ATOM     20  C   UNL     1       9.097   9.843  18.813  0.00  0.00    +0.000 A 
ENDBRANCH   9  11
ENDBRANCH   1   8
BRANCH   5  21
ATOM     21  C   UNL     1       4.005   4.171  18.908  0.00  0.00    +0.000 C 
BRANCH  21  22
ATOM     22  N   UNL     1       2.713   4.887  18.892  0.00  0.00    +0.000 NA
ATOM     23  C   UNL     1       2.113   5.059  20.223  0.00  0.00    +0.000 C 
ATOM     24  C   UNL     1       1.625   3.764  20.884  0.00  0.00    +0.000 C 
ATOM     25  C   UNL     1       0.744   2.897  19.983  0.00  0.00    +0.000 C 
ATOM     26  C   UNL     1       1.205   2.855  18.525  0.00  0.00    +0.000 C 
ATOM     27  C   UNL     1       1.717   4.223  18.024  0.00  0.00    +0.000 C 
BRANCH  26  28
ATOM     28  O   UNL     1       2.202   1.842  18.380  0.00  0.00    +0.000 OA
ATOM     29  H   UNL     1       3.070   2.263  18.495  0.00  0.00    +0.000 HD
ENDBRANCH  26  28
ENDBRANCH  21  22
ENDBRANCH   5  21
TORSDOF 5
ENDMDL
MODEL 8
REMARK VINA RESULT:      -8.1      5.042      7.478
REMARK  Name = 
REMARK  5 active torsions:
REMARK  status: ('A' for Active; 'I' for Inactive)
REMARK    1  A    between atoms: C_2  and  C_14
REMARK    2  A    between atoms: N_3  and  C_4
REMARK    3  A    between atoms: C_18  and  C_19
REMARK    4  A    between atoms: C_19  and  N_20
REMARK    5  A    between atoms: C_24  and  O_25
REMARK                            x       y       z     vdW  Elec       q    Type
REMARK                         _______ _______ _______ _____ _____    ______ ____
ROOT
ATOM      1  C   UNL     1       2.468   5.083  20.365  0.00  0.00    +0.000 A 
ATOM      2  C   UNL     1       2.259   3.723  20.593  0.00  0.00    +0.000 A 
ATOM      3  C   UNL     1       3.250   2.796  20.234  0.00  0.00    +0.000 A 
ATOM      4  C   UNL     1       4.452   3.225  19.655  0.00  0.00    +0.000 A 
ATOM      5  C   UNL     1       4.678   4.583  19.400  0.00  0.00    +0.000 A 
ATOM      6  C   UNL     1       3.667   5.495  19.756  0.00  0.00    +0.000 A 
ENDROOT
BRANCH   1   8
ATOM      7  O   UNL     1       0.280   5.811  20.684  0.00  0.00    +0.000 OA
ATOM      8  C   UNL     1       1.460   6.144  20.673  0.00  0.00    +0.000 C 
ATOM      9  N   UNL     1       1.936   7.435  20.883  0.00  0.00    +0.000 N 
ATOM     10  H   UNL     1       2.935   7.575  20.838  0.00  0.00    +0.000 HD
BRANCH   9  11
ATOM     11  C   UNL     1       1.148   8.605  21.064  0.00  0.00    +0.000 A 
ATOM     12  C   UNL     1       0.607   9.008  22.284  0.00  0.00    +0.000 A 
ATOM     13  C   UNL     1      -0.179  10.161  22.372  0.00  0.00    +0.000 A 
ATOM     14  C   UNL     1      -0.450  10.948  21.258  0.00  0.00    +0.000 A 
ATOM     15  N   UNL     1      -1.214  12.054  21.384  0.00  0.00    +0.000 NA
ATOM     16  C   UNL     1      -1.433  12.768  20.260  0.00  0.00    +0.000 A 
ATOM     17  C   UNL     1      -0.906  12.392  19.044  0.00  0.00    +0.000 A 
ATOM     18  N   UNL     1      -0.138  11.285  18.898  0.00  0.00    +0.000 NA
ATOM     19  C   UNL     1       0.094  10.556  20.015  0.00  0.00    +0.000 A 
ATOM     20  C   UNL     1       0.875   9.400  19.939  0.00  0.00    +0.000 A 
ENDBRANCH   9  11
ENDBRANCH   1   8
BRANCH   5  21
ATOM     21  C   UNL     1       5.934   5.071  18.692  0.00  0.00    +0.000 C 
BRANCH  21  22
ATOM     22  N   UNL     1       5.707   5.953  17.530  0.00  0.00    +0.000 NA
ATOM     23  C   UNL     1       4.693   5.450  16.591  0.00  0.00    +0.000 C 
ATOM     24  C   UNL     1       5.097   4.187  15.819  0.00  0.00    +0.000 C 
ATOM     25  C   UNL     1       6.473   4.274  15.159  0.00  0.00    +0.000 C 
ATOM     26  C   UNL     1       7.524   4.986  16.013  0.00  0.00    +0.000 C 
ATOM     27  C   UNL     1       6.950   6.204  16.768  0.00  0.00    +0.000 C 
BRANCH  26  28
ATOM     28  O   UNL     1       8.110   4.044  16.913  0.00  0.00    +0.000 OA
ATOM     29  H   UNL     1       7.969   4.372  17.817  0.00  0.00    +0.000 HD
ENDBRANCH  26  28
ENDBRANCH  21  22
ENDBRANCH   5  21
TORSDOF 5
ENDMDL
MODEL 9
REMARK VINA RESULT:      -8.1      7.437      8.611
REMARK  Name = 
REMARK  5 active torsions:
REMARK  status: ('A' for Active; 'I' for Inactive)
REMARK    1  A    between atoms: C_2  and  C_14
REMARK    2  A    between atoms: N_3  and  C_4
REMARK    3  A    between atoms: C_18  and  C_19
REMARK    4  A    between atoms: C_19  and  N_20
REMARK    5  A    between atoms: C_24  and  O_25
REMARK                            x       y       z     vdW  Elec       q    Type
REMARK                         _______ _______ _______ _____ _____    ______ ____
ROOT
ATOM      1  C   UNL     1       1.358   9.128  19.990  0.00  0.00    +0.000 A 
ATOM      2  C   UNL     1       1.489   9.570  18.674  0.00  0.00    +0.000 A 
ATOM      3  C   UNL     1       2.044   8.718  17.706  0.00  0.00    +0.000 A 
ATOM      4  C   UNL     1       2.461   7.424  18.048  0.00  0.00    +0.000 A 
ATOM      5  C   UNL     1       2.354   6.965  19.367  0.00  0.00    +0.000 A 
ATOM      6  C   UNL     1       1.807   7.838  20.324  0.00  0.00    +0.000 A 
ENDROOT
BRANCH   1   8
ATOM      7  O   UNL     1       0.925   9.532  22.242  0.00  0.00    +0.000 OA
ATOM      8  C   UNL     1       0.818   9.971  21.101  0.00  0.00    +0.000 C 
ATOM      9  N   UNL     1       0.200  11.169  20.752  0.00  0.00    +0.000 N 
ATOM     10  H   UNL     1       0.173  11.408  19.772  0.00  0.00    +0.000 HD
BRANCH   9  11
ATOM     11  C   UNL     1      -0.486  12.051  21.633  0.00  0.00    +0.000 A 
ATOM     12  C   UNL     1      -0.060  13.342  21.941  0.00  0.00    +0.000 A 
ATOM     13  C   UNL     1      -0.780  14.138  22.837  0.00  0.00    +0.000 A 
ATOM     14  C   UNL     1      -1.941  13.681  23.451  0.00  0.00    +0.000 A 
ATOM     15  N   UNL     1      -2.608  14.480  24.310  0.00  0.00    +0.000 NA
ATOM     16  C   UNL     1      -3.726  13.969  24.867  0.00  0.00    +0.000 A 
ATOM     17  C   UNL     1      -4.170  12.697  24.575  0.00  0.00    +0.000 A 
ATOM     18  N   UNL     1      -3.513  11.881  23.715  0.00  0.00    +0.000 NA
ATOM     19  C   UNL     1      -2.389  12.376  23.146  0.00  0.00    +0.000 A 
ATOM     20  C   UNL     1      -1.658  11.589  22.252  0.00  0.00    +0.000 A 
ENDBRANCH   9  11
ENDBRANCH   1   8
BRANCH   5  21
ATOM     21  C   UNL     1       2.878   5.599  19.787  0.00  0.00    +0.000 C 
BRANCH  21  22
ATOM     22  N   UNL     1       3.189   4.670  18.681  0.00  0.00    +0.000 NA
ATOM     23  C   UNL     1       2.004   4.200  17.948  0.00  0.00    +0.000 C 
ATOM     24  C   UNL     1       1.077   3.274  18.745  0.00  0.00    +0.000 C 
ATOM     25  C   UNL     1       1.798   2.118  19.439  0.00  0.00    +0.000 C 
ATOM     26  C   UNL     1       3.150   2.505  20.040  0.00  0.00    +0.000 C 
ATOM     27  C   UNL     1       3.940   3.483  19.144  0.00  0.00    +0.000 C 
BRANCH  26  28
ATOM     28  O   UNL     1       2.942   3.046  21.346  0.00  0.00    +0.000 OA
ATOM     29  H   UNL     1       2.598   3.948  21.240  0.00  0.00    +0.000 HD
ENDBRANCH  26  28
ENDBRANCH  21  22
ENDBRANCH   5  21
TORSDOF 5
ENDMDL
