MODEL 1
REMARK VINA RESULT:      -7.9      0.000      0.000
REMARK  Name = 
REMARK  13 active torsions:
REMARK  status: ('A' for Active; 'I' for Inactive)
REMARK    1  A    between atoms: C_1  and  O_2
REMARK    2  A    between atoms: O_2  and  C_3
REMARK    3  A    between atoms: C_5  and  N_6
REMARK    4  A    between atoms: C_7  and  C_9
REMARK    5  A    between atoms: C_9  and  C_10
REMARK    6  A    between atoms: C_9  and  N_16
REMARK    7  A    between atoms: C_10  and  C_11
REMARK    8  A    between atoms: C_11  and  S_12
REMARK    9  A    between atoms: S_12  and  C_13
REMARK   10  A    between atoms: C_27  and  O_28
REMARK   11  A    between atoms: O_28  and  C_29
REMARK   12  A    between atoms: C_30  and  O_31
REMARK   13  A    between atoms: O_31  and  C_32
REMARK                            x       y       z     vdW  Elec       q    Type
REMARK                         _______ _______ _______ _____ _____    ______ ____
ROOT
ATOM      1  C   UNL     1       3.171   6.822  17.501  0.00  0.00    +0.000 C 
ENDROOT
BRANCH   1   2
ATOM      2  N   UNL     1       2.677   5.859  18.491  0.00  0.00    +0.000 N 
ATOM      3  C   UNL     1       3.343   5.654  19.772  0.00  0.00    +0.000 C 
ATOM      4  C   UNL     1       2.564   4.532  20.366  0.00  0.00    +0.000 A 
ATOM      5  C   UNL     1       2.613   4.013  21.647  0.00  0.00    +0.000 A 
ATOM      6  C   UNL     1       1.804   2.912  21.942  0.00  0.00    +0.000 A 
ATOM      7  C   UNL     1       0.990   2.329  20.951  0.00  0.00    +0.000 A 
ATOM      8  C   UNL     1       0.940   2.865  19.660  0.00  0.00    +0.000 A 
ATOM      9  C   UNL     1       1.718   3.981  19.410  0.00  0.00    +0.000 A 
ATOM     10  C   UNL     1       1.809   4.815  18.191  0.00  0.00    +0.000 C 
ATOM     11  O   UNL     1       1.214   4.630  17.149  0.00  0.00    +0.000 OA
ENDBRANCH   1   2
BRANCH   1  13
ATOM     12  N   UNL     1       1.783   8.290  18.947  0.00  0.00    +0.000 N 
ATOM     13  C   UNL     1       2.563   8.217  17.797  0.00  0.00    +0.000 C 
ATOM     14  O   UNL     1       2.828   9.163  17.056  0.00  0.00    +0.000 OA
ATOM     15  H   UNL     1       1.732   7.458  19.527  0.00  0.00    +0.000 HD
BRANCH  12  18
ATOM     16  C   UNL     1      -0.520  11.270  18.931  0.00  0.00    +0.000 A 
ATOM     17  C   UNL     1       0.338  10.246  18.490  0.00  0.00    +0.000 A 
ATOM     18  C   UNL     1       1.015   9.414  19.374  0.00  0.00    +0.000 A 
ATOM     19  C   UNL     1       0.890   9.685  20.734  0.00  0.00    +0.000 A 
ATOM     20  C   UNL     1       0.102  10.764  21.210  0.00  0.00    +0.000 A 
ATOM     21  C   UNL     1      -0.618  11.573  20.301  0.00  0.00    +0.000 A 
BRANCH  16  23
ATOM     22  C   UNL     1      -2.253  11.284  17.314  0.00  0.00    +0.000 C 
ATOM     23  O   UNL     1      -1.236  12.002  18.014  0.00  0.00    +0.000 OA
ENDBRANCH  16  23
BRANCH  20  24
ATOM     24  O   UNL     1       0.139  10.855  22.582  0.00  0.00    +0.000 OA
ATOM     25  C   UNL     1      -0.762  10.081  23.364  0.00  0.00    +0.000 C 
ENDBRANCH  20  24
BRANCH  21  26
ATOM     26  O   UNL     1      -1.338  12.609  20.834  0.00  0.00    +0.000 OA
ATOM     27  C   UNL     1      -2.738  12.495  21.033  0.00  0.00    +0.000 C 
ENDBRANCH  21  26
ENDBRANCH  12  18
ENDBRANCH   1  13
BRANCH   1  28
ATOM     28  C   UNL     1       4.714   6.858  17.536  0.00  0.00    +0.000 C 
BRANCH  28  29
ATOM     29  C   UNL     1       5.393   5.765  16.710  0.00  0.00    +0.000 C 
BRANCH  29  30
ATOM     30  S   UNL     1       7.157   5.743  17.043  0.00  0.00    +0.000 S 
ATOM     31  C   UNL     1       7.255   5.705  18.815  0.00  0.00    +0.000 C 
ATOM     32  O   UNL     1       7.696   4.490  16.549  0.00  0.00    +0.000 OA
ATOM     33  O   UNL     1       7.708   7.011  16.607  0.00  0.00    +0.000 OA
ENDBRANCH  29  30
ENDBRANCH  28  29
ENDBRANCH   1  28
TORSDOF 9
ENDMDL
MODEL 2
REMARK VINA RESULT:      -7.7      0.872      1.183
REMARK  Name = 
REMARK  13 active torsions:
REMARK  status: ('A' for Active; 'I' for Inactive)
REMARK    1  A    between atoms: C_1  and  O_2
REMARK    2  A    between atoms: O_2  and  C_3
REMARK    3  A    between atoms: C_5  and  N_6
REMARK    4  A    between atoms: C_7  and  C_9
REMARK    5  A    between atoms: C_9  and  C_10
REMARK    6  A    between atoms: C_9  and  N_16
REMARK    7  A    between atoms: C_10  and  C_11
REMARK    8  A    between atoms: C_11  and  S_12
REMARK    9  A    between atoms: S_12  and  C_13
REMARK   10  A    between atoms: C_27  and  O_28
REMARK   11  A    between atoms: O_28  and  C_29
REMARK   12  A    between atoms: C_30  and  O_31
REMARK   13  A    between atoms: O_31  and  C_32
REMARK                            x       y       z     vdW  Elec       q    Type
REMARK                         _______ _______ _______ _____ _____    ______ ____
ROOT
ATOM      1  C   UNL     1       3.027   6.912  17.471  0.00  0.00    +0.000 C 
ENDROOT
BRANCH   1   2
ATOM      2  N   UNL     1       2.580   5.923  18.457  0.00  0.00    +0.000 N 
ATOM      3  C   UNL     1       3.254   5.749  19.740  0.00  0.00    +0.000 C 
ATOM      4  C   UNL     1       2.531   4.588  20.330  0.00  0.00    +0.000 A 
ATOM      5  C   UNL     1       2.604   4.069  21.609  0.00  0.00    +0.000 A 
ATOM      6  C   UNL     1       1.851   2.928  21.901  0.00  0.00    +0.000 A 
ATOM      7  C   UNL     1       1.070   2.307  20.907  0.00  0.00    +0.000 A 
ATOM      8  C   UNL     1       0.994   2.842  19.617  0.00  0.00    +0.000 A 
ATOM      9  C   UNL     1       1.716   3.997  19.371  0.00  0.00    +0.000 A 
ATOM     10  C   UNL     1       1.766   4.837  18.154  0.00  0.00    +0.000 C 
ATOM     11  O   UNL     1       1.183   4.625  17.111  0.00  0.00    +0.000 OA
ENDBRANCH   1   2
BRANCH   1  13
ATOM     12  N   UNL     1       1.680   8.332  19.001  0.00  0.00    +0.000 N 
ATOM     13  C   UNL     1       2.429   8.297  17.829  0.00  0.00    +0.000 C 
ATOM     14  O   UNL     1       2.676   9.267  17.113  0.00  0.00    +0.000 OA
ATOM     15  H   UNL     1       1.643   7.482  19.554  0.00  0.00    +0.000 HD
BRANCH  12  18
ATOM     16  C   UNL     1      -0.576  11.345  19.136  0.00  0.00    +0.000 A 
ATOM     17  C   UNL     1       0.270  10.334  18.644  0.00  0.00    +0.000 A 
ATOM     18  C   UNL     1       0.926   9.443  19.485  0.00  0.00    +0.000 A 
ATOM     19  C   UNL     1       0.794   9.639  20.857  0.00  0.00    +0.000 A 
ATOM     20  C   UNL     1       0.019  10.702  21.387  0.00  0.00    +0.000 A 
ATOM     21  C   UNL     1      -0.681  11.572  20.521  0.00  0.00    +0.000 A 
BRANCH  16  23
ATOM     22  C   UNL     1      -2.340  11.494  17.559  0.00  0.00    +0.000 C 
ATOM     23  O   UNL     1      -1.273  12.139  18.257  0.00  0.00    +0.000 OA
ENDBRANCH  16  23
BRANCH  20  24
ATOM     24  O   UNL     1       0.046  10.715  22.762  0.00  0.00    +0.000 OA
ATOM     25  C   UNL     1       0.029   9.487  23.480  0.00  0.00    +0.000 C 
ENDBRANCH  20  24
BRANCH  21  26
ATOM     26  O   UNL     1      -1.389  12.587  21.106  0.00  0.00    +0.000 OA
ATOM     27  C   UNL     1      -0.774  13.837  21.381  0.00  0.00    +0.000 C 
ENDBRANCH  21  26
ENDBRANCH  12  18
ENDBRANCH   1  13
BRANCH   1  28
ATOM     28  C   UNL     1       4.570   6.952  17.436  0.00  0.00    +0.000 C 
BRANCH  28  29
ATOM     29  C   UNL     1       5.189   6.443  16.135  0.00  0.00    +0.000 C 
BRANCH  29  30
ATOM     30  S   UNL     1       6.127   4.943  16.441  0.00  0.00    +0.000 S 
ATOM     31  C   UNL     1       6.064   4.079  14.892  0.00  0.00    +0.000 C 
ATOM     32  O   UNL     1       7.510   5.313  16.678  0.00  0.00    +0.000 OA
ATOM     33  O   UNL     1       5.395   4.149  17.408  0.00  0.00    +0.000 OA
ENDBRANCH  29  30
ENDBRANCH  28  29
ENDBRANCH   1  28
TORSDOF 9
ENDMDL
MODEL 3
REMARK VINA RESULT:      -7.7      0.202      2.205
REMARK  Name = 
REMARK  13 active torsions:
REMARK  status: ('A' for Active; 'I' for Inactive)
REMARK    1  A    between atoms: C_1  and  O_2
REMARK    2  A    between atoms: O_2  and  C_3
REMARK    3  A    between atoms: C_5  and  N_6
REMARK    4  A    between atoms: C_7  and  C_9
REMARK    5  A    between atoms: C_9  and  C_10
REMARK    6  A    between atoms: C_9  and  N_16
REMARK    7  A    between atoms: C_10  and  C_11
REMARK    8  A    between atoms: C_11  and  S_12
REMARK    9  A    between atoms: S_12  and  C_13
REMARK   10  A    between atoms: C_27  and  O_28
REMARK   11  A    between atoms: O_28  and  C_29
REMARK   12  A    between atoms: C_30  and  O_31
REMARK   13  A    between atoms: O_31  and  C_32
REMARK                            x       y       z     vdW  Elec       q    Type
REMARK                         _______ _______ _______ _____ _____    ______ ____
ROOT
ATOM      1  C   UNL     1       3.062   6.935  17.512  0.00  0.00    +0.000 C 
ENDROOT
BRANCH   1   2
ATOM      2  N   UNL     1       2.629   5.931  18.489  0.00  0.00    +0.000 N 
ATOM      3  C   UNL     1       3.290   5.771  19.780  0.00  0.00    +0.000 C 
ATOM      4  C   UNL     1       2.592   4.587  20.356  0.00  0.00    +0.000 A 
ATOM      5  C   UNL     1       2.663   4.066  21.635  0.00  0.00    +0.000 A 
ATOM      6  C   UNL     1       1.939   2.903  21.912  0.00  0.00    +0.000 A 
ATOM      7  C   UNL     1       1.188   2.264  20.905  0.00  0.00    +0.000 A 
ATOM      8  C   UNL     1       1.115   2.802  19.616  0.00  0.00    +0.000 A 
ATOM      9  C   UNL     1       1.807   3.977  19.384  0.00  0.00    +0.000 A 
ATOM     10  C   UNL     1       1.850   4.823  18.171  0.00  0.00    +0.000 C 
ATOM     11  O   UNL     1       1.287   4.599  17.119  0.00  0.00    +0.000 OA
ENDBRANCH   1   2
BRANCH   1  13
ATOM     12  N   UNL     1       1.646   8.309  19.023  0.00  0.00    +0.000 N 
ATOM     13  C   UNL     1       2.416   8.301  17.864  0.00  0.00    +0.000 C 
ATOM     14  O   UNL     1       2.647   9.280  17.156  0.00  0.00    +0.000 OA
ATOM     15  H   UNL     1       1.625   7.457  19.573  0.00  0.00    +0.000 HD
BRANCH  12  18
ATOM     16  C   UNL     1       0.019  10.836  21.293  0.00  0.00    +0.000 A 
ATOM     17  C   UNL     1       0.697   9.687  20.846  0.00  0.00    +0.000 A 
ATOM     18  C   UNL     1       0.851   9.395  19.497  0.00  0.00    +0.000 A 
ATOM     19  C   UNL     1       0.224  10.238  18.582  0.00  0.00    +0.000 A 
ATOM     20  C   UNL     1      -0.540  11.357  19.002  0.00  0.00    +0.000 A 
ATOM     21  C   UNL     1      -0.648  11.669  20.376  0.00  0.00    +0.000 A 
BRANCH  16  23
ATOM     22  C   UNL     1      -0.535  10.087  23.473  0.00  0.00    +0.000 C 
ATOM     23  O   UNL     1      -0.022  11.125  22.636  0.00  0.00    +0.000 OA
ENDBRANCH  16  23
BRANCH  20  24
ATOM     24  O   UNL     1      -1.081  12.034  17.933  0.00  0.00    +0.000 OA
ATOM     25  C   UNL     1      -2.250  11.530  17.299  0.00  0.00    +0.000 C 
ENDBRANCH  20  24
BRANCH  21  26
ATOM     26  O   UNL     1      -1.422  12.750  20.704  0.00  0.00    +0.000 OA
ATOM     27  C   UNL     1      -2.776  12.582  21.094  0.00  0.00    +0.000 C 
ENDBRANCH  21  26
ENDBRANCH  12  18
ENDBRANCH   1  13
BRANCH   1  28
ATOM     28  C   UNL     1       4.603   7.022  17.502  0.00  0.00    +0.000 C 
BRANCH  28  29
ATOM     29  C   UNL     1       5.290   6.004  16.593  0.00  0.00    +0.000 C 
BRANCH  29  30
ATOM     30  S   UNL     1       6.986   5.748  17.121  0.00  0.00    +0.000 S 
ATOM     31  C   UNL     1       6.852   5.478  18.869  0.00  0.00    +0.000 C 
ATOM     32  O   UNL     1       7.466   4.515  16.524  0.00  0.00    +0.000 OA
ATOM     33  O   UNL     1       7.705   6.992  16.930  0.00  0.00    +0.000 OA
ENDBRANCH  29  30
ENDBRANCH  28  29
ENDBRANCH   1  28
TORSDOF 9
ENDMDL
MODEL 4
REMARK VINA RESULT:      -7.6      2.325      4.445
REMARK  Name = 
REMARK  13 active torsions:
REMARK  status: ('A' for Active; 'I' for Inactive)
REMARK    1  A    between atoms: C_1  and  O_2
REMARK    2  A    between atoms: O_2  and  C_3
REMARK    3  A    between atoms: C_5  and  N_6
REMARK    4  A    between atoms: C_7  and  C_9
REMARK    5  A    between atoms: C_9  and  C_10
REMARK    6  A    between atoms: C_9  and  N_16
REMARK    7  A    between atoms: C_10  and  C_11
REMARK    8  A    between atoms: C_11  and  S_12
REMARK    9  A    between atoms: S_12  and  C_13
REMARK   10  A    between atoms: C_27  and  O_28
REMARK   11  A    between atoms: O_28  and  C_29
REMARK   12  A    between atoms: C_30  and  O_31
REMARK   13  A    between atoms: O_31  and  C_32
REMARK                            x       y       z     vdW  Elec       q    Type
REMARK                         _______ _______ _______ _____ _____    ______ ____
ROOT
ATOM      1  C   UNL     1       3.118   6.180  19.593  0.00  0.00    +0.000 C 
ENDROOT
BRANCH   1   2
ATOM      2  N   UNL     1       4.024   5.781  18.511  0.00  0.00    +0.000 N 
ATOM      3  C   UNL     1       3.530   5.257  17.242  0.00  0.00    +0.000 C 
ATOM      4  C   UNL     1       4.788   4.895  16.530  0.00  0.00    +0.000 A 
ATOM      5  C   UNL     1       4.971   4.513  15.214  0.00  0.00    +0.000 A 
ATOM      6  C   UNL     1       6.263   4.173  14.801  0.00  0.00    +0.000 A 
ATOM      7  C   UNL     1       7.337   4.188  15.711  0.00  0.00    +0.000 A 
ATOM      8  C   UNL     1       7.146   4.583  17.039  0.00  0.00    +0.000 A 
ATOM      9  C   UNL     1       5.865   4.955  17.407  0.00  0.00    +0.000 A 
ATOM     10  C   UNL     1       5.373   5.498  18.692  0.00  0.00    +0.000 C 
ATOM     11  O   UNL     1       6.034   5.683  19.694  0.00  0.00    +0.000 OA
ENDBRANCH   1   2
BRANCH   1  13
ATOM     12  N   UNL     1       1.633   8.071  20.220  0.00  0.00    +0.000 N 
ATOM     13  C   UNL     1       2.493   7.558  19.253  0.00  0.00    +0.000 C 
ATOM     14  O   UNL     1       2.811   8.127  18.210  0.00  0.00    +0.000 OA
ATOM     15  H   UNL     1       1.540   7.547  21.084  0.00  0.00    +0.000 HD
BRANCH  12  18
ATOM     16  C   UNL     1      -0.629  10.740  18.826  0.00  0.00    +0.000 A 
ATOM     17  C   UNL     1       0.257   9.649  18.902  0.00  0.00    +0.000 A 
ATOM     18  C   UNL     1       0.839   9.250  20.099  0.00  0.00    +0.000 A 
ATOM     19  C   UNL     1       0.589  10.029  21.226  0.00  0.00    +0.000 A 
ATOM     20  C   UNL     1      -0.230  11.185  21.166  0.00  0.00    +0.000 A 
ATOM     21  C   UNL     1      -0.854  11.552  19.952  0.00  0.00    +0.000 A 
BRANCH  16  23
ATOM     22  C   UNL     1      -2.359  10.199  17.297  0.00  0.00    +0.000 C 
ATOM     23  O   UNL     1      -1.249  11.034  17.635  0.00  0.00    +0.000 OA
ENDBRANCH  16  23
BRANCH  20  24
ATOM     24  O   UNL     1      -0.322  11.808  22.389  0.00  0.00    +0.000 OA
ATOM     25  C   UNL     1      -1.396  11.487  23.265  0.00  0.00    +0.000 C 
ENDBRANCH  20  24
BRANCH  21  26
ATOM     26  O   UNL     1      -1.610  12.694  19.968  0.00  0.00    +0.000 OA
ATOM     27  C   UNL     1      -3.015  12.632  20.163  0.00  0.00    +0.000 C 
ENDBRANCH  21  26
ENDBRANCH  12  18
ENDBRANCH   1  13
BRANCH   1  28
ATOM     28  C   UNL     1       2.035   5.098  19.791  0.00  0.00    +0.000 C 
BRANCH  28  29
ATOM     29  C   UNL     1       1.995   4.489  21.192  0.00  0.00    +0.000 C 
BRANCH  29  30
ATOM     30  S   UNL     1       2.269   2.717  21.104  0.00  0.00    +0.000 S 
ATOM     31  C   UNL     1       1.409   2.225  19.632  0.00  0.00    +0.000 C 
ATOM     32  O   UNL     1       3.684   2.486  20.881  0.00  0.00    +0.000 OA
ATOM     33  O   UNL     1       1.586   2.105  22.227  0.00  0.00    +0.000 OA
ENDBRANCH  29  30
ENDBRANCH  28  29
ENDBRANCH   1  28
TORSDOF 9
ENDMDL
MODEL 5
REMARK VINA RESULT:      -7.4      0.989      2.169
REMARK  Name = 
REMARK  13 active torsions:
REMARK  status: ('A' for Active; 'I' for Inactive)
REMARK    1  A    between atoms: C_1  and  O_2
REMARK    2  A    between atoms: O_2  and  C_3
REMARK    3  A    between atoms: C_5  and  N_6
REMARK    4  A    between atoms: C_7  and  C_9
REMARK    5  A    between atoms: C_9  and  C_10
REMARK    6  A    between atoms: C_9  and  N_16
REMARK    7  A    between atoms: C_10  and  C_11
REMARK    8  A    between atoms: C_11  and  S_12
REMARK    9  A    between atoms: S_12  and  C_13
REMARK   10  A    between atoms: C_27  and  O_28
REMARK   11  A    between atoms: O_28  and  C_29
REMARK   12  A    between atoms: C_30  and  O_31
REMARK   13  A    between atoms: O_31  and  C_32
REMARK                            x       y       z     vdW  Elec       q    Type
REMARK                         _______ _______ _______ _____ _____    ______ ____
ROOT
ATOM      1  C   UNL     1       3.000   7.000  17.439  0.00  0.00    +0.000 C 
ENDROOT
BRANCH   1   2
ATOM      2  N   UNL     1       2.559   6.010  18.427  0.00  0.00    +0.000 N 
ATOM      3  C   UNL     1       3.225   5.851  19.715  0.00  0.00    +0.000 C 
ATOM      4  C   UNL     1       2.513   4.683  20.305  0.00  0.00    +0.000 A 
ATOM      5  C   UNL     1       2.584   4.172  21.588  0.00  0.00    +0.000 A 
ATOM      6  C   UNL     1       1.844   3.021  21.879  0.00  0.00    +0.000 A 
ATOM      7  C   UNL     1       1.079   2.385  20.882  0.00  0.00    +0.000 A 
ATOM      8  C   UNL     1       1.007   2.913  19.589  0.00  0.00    +0.000 A 
ATOM      9  C   UNL     1       1.715   4.076  19.342  0.00  0.00    +0.000 A 
ATOM     10  C   UNL     1       1.763   4.911  18.122  0.00  0.00    +0.000 C 
ATOM     11  O   UNL     1       1.191   4.686  17.075  0.00  0.00    +0.000 OA
ENDBRANCH   1   2
BRANCH   1  13
ATOM     12  N   UNL     1       1.406   8.376  18.758  0.00  0.00    +0.000 N 
ATOM     13  C   UNL     1       2.440   8.393  17.826  0.00  0.00    +0.000 C 
ATOM     14  O   UNL     1       2.947   9.405  17.346  0.00  0.00    +0.000 OA
ATOM     15  H   UNL     1       1.154   7.476  19.154  0.00  0.00    +0.000 HD
BRANCH  12  18
ATOM     16  C   UNL     1       0.377  11.569  20.469  0.00  0.00    +0.000 A 
ATOM     17  C   UNL     1       1.084  10.394  20.152  0.00  0.00    +0.000 A 
ATOM     18  C   UNL     1       0.640   9.501  19.185  0.00  0.00    +0.000 A 
ATOM     19  C   UNL     1      -0.593   9.758  18.590  0.00  0.00    +0.000 A 
ATOM     20  C   UNL     1      -1.372  10.888  18.948  0.00  0.00    +0.000 A 
ATOM     21  C   UNL     1      -0.886  11.813  19.900  0.00  0.00    +0.000 A 
BRANCH  16  23
ATOM     22  C   UNL     1       1.856  13.388  20.826  0.00  0.00    +0.000 C 
ATOM     23  O   UNL     1       0.909  12.464  21.366  0.00  0.00    +0.000 OA
ENDBRANCH  16  23
BRANCH  20  24
ATOM     24  O   UNL     1      -2.557  10.932  18.251  0.00  0.00    +0.000 OA
ATOM     25  C   UNL     1      -2.538  11.129  16.842  0.00  0.00    +0.000 C 
ENDBRANCH  20  24
BRANCH  21  26
ATOM     26  O   UNL     1      -1.705  12.866  20.211  0.00  0.00    +0.000 OA
ATOM     27  C   UNL     1      -2.630  12.775  21.283  0.00  0.00    +0.000 C 
ENDBRANCH  21  26
ENDBRANCH  12  18
ENDBRANCH   1  13
BRANCH   1  28
ATOM     28  C   UNL     1       4.542   7.010  17.365  0.00  0.00    +0.000 C 
BRANCH  28  29
ATOM     29  C   UNL     1       5.143   5.913  16.488  0.00  0.00    +0.000 C 
BRANCH  29  30
ATOM     30  S   UNL     1       6.936   5.971  16.563  0.00  0.00    +0.000 S 
ATOM     31  C   UNL     1       7.348   4.782  17.814  0.00  0.00    +0.000 C 
ATOM     32  O   UNL     1       7.459   5.478  15.302  0.00  0.00    +0.000 OA
ATOM     33  O   UNL     1       7.318   7.276  17.065  0.00  0.00    +0.000 OA
ENDBRANCH  29  30
ENDBRANCH  28  29
ENDBRANCH   1  28
TORSDOF 9
ENDMDL
MODEL 6
REMARK VINA RESULT:      -7.4      0.968      1.083
REMARK  Name = 
REMARK  13 active torsions:
REMARK  status: ('A' for Active; 'I' for Inactive)
REMARK    1  A    between atoms: C_1  and  O_2
REMARK    2  A    between atoms: O_2  and  C_3
REMARK    3  A    between atoms: C_5  and  N_6
REMARK    4  A    between atoms: C_7  and  C_9
REMARK    5  A    between atoms: C_9  and  C_10
REMARK    6  A    between atoms: C_9  and  N_16
REMARK    7  A    between atoms: C_10  and  C_11
REMARK    8  A    between atoms: C_11  and  S_12
REMARK    9  A    between atoms: S_12  and  C_13
REMARK   10  A    between atoms: C_27  and  O_28
REMARK   11  A    between atoms: O_28  and  C_29
REMARK   12  A    between atoms: C_30  and  O_31
REMARK   13  A    between atoms: O_31  and  C_32
REMARK                            x       y       z     vdW  Elec       q    Type
REMARK                         _______ _______ _______ _____ _____    ______ ____
ROOT
ATOM      1  C   UNL     1       2.985   6.935  17.519  0.00  0.00    +0.000 C 
ENDROOT
BRANCH   1   2
ATOM      2  N   UNL     1       2.545   5.942  18.504  0.00  0.00    +0.000 N 
ATOM      3  C   UNL     1       3.239   5.748  19.773  0.00  0.00    +0.000 C 
ATOM      4  C   UNL     1       2.515   4.588  20.364  0.00  0.00    +0.000 A 
ATOM      5  C   UNL     1       2.605   4.057  21.637  0.00  0.00    +0.000 A 
ATOM      6  C   UNL     1       1.846   2.920  21.930  0.00  0.00    +0.000 A 
ATOM      7  C   UNL     1       1.041   2.317  20.944  0.00  0.00    +0.000 A 
ATOM      8  C   UNL     1       0.949   2.865  19.661  0.00  0.00    +0.000 A 
ATOM      9  C   UNL     1       1.678   4.015  19.413  0.00  0.00    +0.000 A 
ATOM     10  C   UNL     1       1.716   4.866  18.204  0.00  0.00    +0.000 C 
ATOM     11  O   UNL     1       1.112   4.670  17.169  0.00  0.00    +0.000 OA
ENDBRANCH   1   2
BRANCH   1  13
ATOM     12  N   UNL     1       1.736   8.372  19.116  0.00  0.00    +0.000 N 
ATOM     13  C   UNL     1       2.388   8.318  17.888  0.00  0.00    +0.000 C 
ATOM     14  O   UNL     1       2.555   9.272  17.128  0.00  0.00    +0.000 OA
ATOM     15  H   UNL     1       1.763   7.538  19.693  0.00  0.00    +0.000 HD
BRANCH  12  18
ATOM     16  C   UNL     1      -0.098  11.653  19.357  0.00  0.00    +0.000 A 
ATOM     17  C   UNL     1       0.739  10.625  18.884  0.00  0.00    +0.000 A 
ATOM     18  C   UNL     1       1.000   9.481  19.629  0.00  0.00    +0.000 A 
ATOM     19  C   UNL     1       0.475   9.420  20.918  0.00  0.00    +0.000 A 
ATOM     20  C   UNL     1      -0.301  10.478  21.457  0.00  0.00    +0.000 A 
ATOM     21  C   UNL     1      -0.598  11.614  20.671  0.00  0.00    +0.000 A 
BRANCH  16  23
ATOM     22  C   UNL     1       0.575  13.764  18.512  0.00  0.00    +0.000 C 
ATOM     23  O   UNL     1      -0.398  12.718  18.541  0.00  0.00    +0.000 OA
ENDBRANCH  16  23
BRANCH  20  24
ATOM     24  O   UNL     1      -0.697  10.212  22.747  0.00  0.00    +0.000 OA
ATOM     25  C   UNL     1       0.105   9.377  23.573  0.00  0.00    +0.000 C 
ENDBRANCH  20  24
BRANCH  21  26
ATOM     26  O   UNL     1      -1.333  12.603  21.269  0.00  0.00    +0.000 OA
ATOM     27  C   UNL     1      -0.699  13.619  22.031  0.00  0.00    +0.000 C 
ENDBRANCH  21  26
ENDBRANCH  12  18
ENDBRANCH   1  13
BRANCH   1  28
ATOM     28  C   UNL     1       4.528   6.977  17.476  0.00  0.00    +0.000 C 
BRANCH  28  29
ATOM     29  C   UNL     1       5.151   6.208  16.312  0.00  0.00    +0.000 C 
BRANCH  29  30
ATOM     30  S   UNL     1       6.855   5.789  16.687  0.00  0.00    +0.000 S 
ATOM     31  C   UNL     1       7.454   7.201  17.580  0.00  0.00    +0.000 C 
ATOM     32  O   UNL     1       6.855   4.662  17.601  0.00  0.00    +0.000 OA
ATOM     33  O   UNL     1       7.585   5.729  15.436  0.00  0.00    +0.000 OA
ENDBRANCH  29  30
ENDBRANCH  28  29
ENDBRANCH   1  28
TORSDOF 9
ENDMDL
MODEL 7
REMARK VINA RESULT:      -7.4      2.336      4.881
REMARK  Name = 
REMARK  13 active torsions:
REMARK  status: ('A' for Active; 'I' for Inactive)
REMARK    1  A    between atoms: C_1  and  O_2
REMARK    2  A    between atoms: O_2  and  C_3
REMARK    3  A    between atoms: C_5  and  N_6
REMARK    4  A    between atoms: C_7  and  C_9
REMARK    5  A    between atoms: C_9  and  C_10
REMARK    6  A    between atoms: C_9  and  N_16
REMARK    7  A    between atoms: C_10  and  C_11
REMARK    8  A    between atoms: C_11  and  S_12
REMARK    9  A    between atoms: S_12  and  C_13
REMARK   10  A    between atoms: C_27  and  O_28
REMARK   11  A    between atoms: O_28  and  C_29
REMARK   12  A    between atoms: C_30  and  O_31
REMARK   13  A    between atoms: O_31  and  C_32
REMARK                            x       y       z     vdW  Elec       q    Type
REMARK                         _______ _______ _______ _____ _____    ______ ____
ROOT
ATOM      1  C   UNL     1       3.036   6.289  19.506  0.00  0.00    +0.000 C 
ENDROOT
BRANCH   1   2
ATOM      2  N   UNL     1       4.015   5.950  18.468  0.00  0.00    +0.000 N 
ATOM      3  C   UNL     1       3.616   5.640  17.099  0.00  0.00    +0.000 C 
ATOM      4  C   UNL     1       4.909   5.259  16.464  0.00  0.00    +0.000 A 
ATOM      5  C   UNL     1       5.196   5.032  15.131  0.00  0.00    +0.000 A 
ATOM      6  C   UNL     1       6.493   4.632  14.796  0.00  0.00    +0.000 A 
ATOM      7  C   UNL     1       7.466   4.432  15.795  0.00  0.00    +0.000 A 
ATOM      8  C   UNL     1       7.170   4.671  17.141  0.00  0.00    +0.000 A 
ATOM      9  C   UNL     1       5.891   5.108  17.437  0.00  0.00    +0.000 A 
ATOM     10  C   UNL     1       5.312   5.525  18.732  0.00  0.00    +0.000 C 
ATOM     11  O   UNL     1       5.879   5.520  19.807  0.00  0.00    +0.000 OA
ENDBRANCH   1   2
BRANCH   1  13
ATOM     12  N   UNL     1       1.584   8.188  20.186  0.00  0.00    +0.000 N 
ATOM     13  C   UNL     1       2.440   7.690  19.208  0.00  0.00    +0.000 C 
ATOM     14  O   UNL     1       2.777   8.287  18.187  0.00  0.00    +0.000 OA
ATOM     15  H   UNL     1       1.475   7.637  21.031  0.00  0.00    +0.000 HD
BRANCH  12  18
ATOM     16  C   UNL     1       0.240  11.640  20.865  0.00  0.00    +0.000 A 
ATOM     17  C   UNL     1       0.906  10.412  21.033  0.00  0.00    +0.000 A 
ATOM     18  C   UNL     1       0.815   9.386  20.099  0.00  0.00    +0.000 A 
ATOM     19  C   UNL     1      -0.042   9.576  19.018  0.00  0.00    +0.000 A 
ATOM     20  C   UNL     1      -0.794  10.768  18.863  0.00  0.00    +0.000 A 
ATOM     21  C   UNL     1      -0.655  11.822  19.795  0.00  0.00    +0.000 A 
BRANCH  16  23
ATOM     22  C   UNL     1       1.246  13.741  21.311  0.00  0.00    +0.000 C 
ATOM     23  O   UNL     1       0.440  12.654  21.771  0.00  0.00    +0.000 OA
ENDBRANCH  16  23
BRANCH  20  24
ATOM     24  O   UNL     1      -1.584  10.729  17.738  0.00  0.00    +0.000 OA
ATOM     25  C   UNL     1      -2.791   9.977  17.750  0.00  0.00    +0.000 C 
ENDBRANCH  20  24
BRANCH  21  26
ATOM     26  O   UNL     1      -1.432  12.931  19.592  0.00  0.00    +0.000 OA
ATOM     27  C   UNL     1      -2.690  13.065  20.235  0.00  0.00    +0.000 C 
ENDBRANCH  21  26
ENDBRANCH  12  18
ENDBRANCH   1  13
BRANCH   1  28
ATOM     28  C   UNL     1       1.938   5.206  19.560  0.00  0.00    +0.000 C 
BRANCH  28  29
ATOM     29  C   UNL     1       1.734   4.578  20.938  0.00  0.00    +0.000 C 
BRANCH  29  30
ATOM     30  S   UNL     1       1.920   2.795  20.841  0.00  0.00    +0.000 S 
ATOM     31  C   UNL     1       3.624   2.568  20.401  0.00  0.00    +0.000 C 
ATOM     32  O   UNL     1       1.736   2.246  22.171  0.00  0.00    +0.000 OA
ATOM     33  O   UNL     1       1.121   2.324  19.727  0.00  0.00    +0.000 OA
ENDBRANCH  29  30
ENDBRANCH  28  29
ENDBRANCH   1  28
TORSDOF 9
ENDMDL
MODEL 8
REMARK VINA RESULT:      -7.4      2.332      4.466
REMARK  Name = 
REMARK  13 active torsions:
REMARK  status: ('A' for Active; 'I' for Inactive)
REMARK    1  A    between atoms: C_1  and  O_2
REMARK    2  A    between atoms: O_2  and  C_3
REMARK    3  A    between atoms: C_5  and  N_6
REMARK    4  A    between atoms: C_7  and  C_9
REMARK    5  A    between atoms: C_9  and  C_10
REMARK    6  A    between atoms: C_9  and  N_16
REMARK    7  A    between atoms: C_10  and  C_11
REMARK    8  A    between atoms: C_11  and  S_12
REMARK    9  A    between atoms: S_12  and  C_13
REMARK   10  A    between atoms: C_27  and  O_28
REMARK   11  A    between atoms: O_28  and  C_29
REMARK   12  A    between atoms: C_30  and  O_31
REMARK   13  A    between atoms: O_31  and  C_32
REMARK                            x       y       z     vdW  Elec       q    Type
REMARK                         _______ _______ _______ _____ _____    ______ ____
ROOT
ATOM      1  C   UNL     1       3.032   6.299  19.486  0.00  0.00    +0.000 C 
ENDROOT
BRANCH   1   2
ATOM      2  N   UNL     1       3.967   5.861  18.446  0.00  0.00    +0.000 N 
ATOM      3  C   UNL     1       3.509   5.319  17.171  0.00  0.00    +0.000 C 
ATOM      4  C   UNL     1       4.785   4.920  16.512  0.00  0.00    +0.000 A 
ATOM      5  C   UNL     1       5.006   4.507  15.211  0.00  0.00    +0.000 A 
ATOM      6  C   UNL     1       6.306   4.136  14.851  0.00  0.00    +0.000 A 
ATOM      7  C   UNL     1       7.348   4.152  15.798  0.00  0.00    +0.000 A 
ATOM      8  C   UNL     1       7.117   4.579  17.110  0.00  0.00    +0.000 A 
ATOM      9  C   UNL     1       5.831   4.980  17.425  0.00  0.00    +0.000 A 
ATOM     10  C   UNL     1       5.304   5.559  18.680  0.00  0.00    +0.000 C 
ATOM     11  O   UNL     1       5.933   5.754  19.701  0.00  0.00    +0.000 OA
ENDBRANCH   1   2
BRANCH   1  13
ATOM     12  N   UNL     1       1.567   8.233  20.026  0.00  0.00    +0.000 N 
ATOM     13  C   UNL     1       2.454   7.686  19.104  0.00  0.00    +0.000 C 
ATOM     14  O   UNL     1       2.831   8.234  18.068  0.00  0.00    +0.000 OA
ATOM     15  H   UNL     1       1.425   7.722  20.892  0.00  0.00    +0.000 HD
BRANCH  12  18
ATOM     16  C   UNL     1      -0.884  10.762  18.693  0.00  0.00    +0.000 A 
ATOM     17  C   UNL     1      -0.044   9.636  18.779  0.00  0.00    +0.000 A 
ATOM     18  C   UNL     1       0.808   9.429  19.857  0.00  0.00    +0.000 A 
ATOM     19  C   UNL     1       0.877  10.429  20.824  0.00  0.00    +0.000 A 
ATOM     20  C   UNL     1       0.108  11.616  20.724  0.00  0.00    +0.000 A 
ATOM     21  C   UNL     1      -0.790  11.793  19.646  0.00  0.00    +0.000 A 
BRANCH  16  23
ATOM     22  C   UNL     1      -2.876   9.961  17.687  0.00  0.00    +0.000 C 
ATOM     23  O   UNL     1      -1.775  10.871  17.652  0.00  0.00    +0.000 OA
ENDBRANCH  16  23
BRANCH  20  24
ATOM     24  O   UNL     1       0.349  12.469  21.776  0.00  0.00    +0.000 OA
ATOM     25  C   UNL     1       0.990  13.716  21.539  0.00  0.00    +0.000 C 
ENDBRANCH  20  24
BRANCH  21  26
ATOM     26  O   UNL     1      -1.479  12.975  19.606  0.00  0.00    +0.000 OA
ATOM     27  C   UNL     1      -2.729  13.111  20.264  0.00  0.00    +0.000 C 
ENDBRANCH  21  26
ENDBRANCH  12  18
ENDBRANCH   1  13
BRANCH   1  28
ATOM     28  C   UNL     1       1.914   5.248  19.658  0.00  0.00    +0.000 C 
BRANCH  28  29
ATOM     29  C   UNL     1       1.895   4.558  21.021  0.00  0.00    +0.000 C 
BRANCH  29  30
ATOM     30  S   UNL     1       2.034   2.780  20.819  0.00  0.00    +0.000 S 
ATOM     31  C   UNL     1       3.701   2.544  20.258  0.00  0.00    +0.000 C 
ATOM     32  O   UNL     1       1.923   2.164  22.128  0.00  0.00    +0.000 OA
ATOM     33  O   UNL     1       1.154   2.386  19.736  0.00  0.00    +0.000 OA
ENDBRANCH  29  30
ENDBRANCH  28  29
ENDBRANCH   1  28
TORSDOF 9
ENDMDL
MODEL 9
REMARK VINA RESULT:      -7.3      1.208      2.526
REMARK  Name = 
REMARK  13 active torsions:
REMARK  status: ('A' for Active; 'I' for Inactive)
REMARK    1  A    between atoms: C_1  and  O_2
REMARK    2  A    between atoms: O_2  and  C_3
REMARK    3  A    between atoms: C_5  and  N_6
REMARK    4  A    between atoms: C_7  and  C_9
REMARK    5  A    between atoms: C_9  and  C_10
REMARK    6  A    between atoms: C_9  and  N_16
REMARK    7  A    between atoms: C_10  and  C_11
REMARK    8  A    between atoms: C_11  and  S_12
REMARK    9  A    between atoms: S_12  and  C_13
REMARK   10  A    between atoms: C_27  and  O_28
REMARK   11  A    between atoms: O_28  and  C_29
REMARK   12  A    between atoms: C_30  and  O_31
REMARK   13  A    between atoms: O_31  and  C_32
REMARK                            x       y       z     vdW  Elec       q    Type
REMARK                         _______ _______ _______ _____ _____    ______ ____
ROOT
ATOM      1  C   UNL     1       3.024   6.863  17.461  0.00  0.00    +0.000 C 
ENDROOT
BRANCH   1   2
ATOM      2  N   UNL     1       2.580   5.874  18.449  0.00  0.00    +0.000 N 
ATOM      3  C   UNL     1       3.266   5.690  19.723  0.00  0.00    +0.000 C 
ATOM      4  C   UNL     1       2.540   4.532  20.317  0.00  0.00    +0.000 A 
ATOM      5  C   UNL     1       2.624   4.009  21.594  0.00  0.00    +0.000 A 
ATOM      6  C   UNL     1       1.865   2.872  21.890  0.00  0.00    +0.000 A 
ATOM      7  C   UNL     1       1.067   2.262  20.903  0.00  0.00    +0.000 A 
ATOM      8  C   UNL     1       0.982   2.802  19.616  0.00  0.00    +0.000 A 
ATOM      9  C   UNL     1       1.710   3.952  19.365  0.00  0.00    +0.000 A 
ATOM     10  C   UNL     1       1.753   4.796  18.151  0.00  0.00    +0.000 C 
ATOM     11  O   UNL     1       1.157   4.592  17.113  0.00  0.00    +0.000 OA
ENDBRANCH   1   2
BRANCH   1  13
ATOM     12  N   UNL     1       1.828   8.320  19.080  0.00  0.00    +0.000 N 
ATOM     13  C   UNL     1       2.450   8.253  17.836  0.00  0.00    +0.000 C 
ATOM     14  O   UNL     1       2.608   9.202  17.068  0.00  0.00    +0.000 OA
ATOM     15  H   UNL     1       1.860   7.488  19.660  0.00  0.00    +0.000 HD
BRANCH  12  18
ATOM     16  C   UNL     1      -0.140  10.553  21.388  0.00  0.00    +0.000 A 
ATOM     17  C   UNL     1       0.447   9.405  20.822  0.00  0.00    +0.000 A 
ATOM     18  C   UNL     1       1.116   9.439  19.605  0.00  0.00    +0.000 A 
ATOM     19  C   UNL     1       1.112  10.642  18.903  0.00  0.00    +0.000 A 
ATOM     20  C   UNL     1       0.456  11.795  19.404  0.00  0.00    +0.000 A 
ATOM     21  C   UNL     1      -0.180  11.759  20.666  0.00  0.00    +0.000 A 
BRANCH  16  23
ATOM     22  C   UNL     1      -0.108   9.544  23.534  0.00  0.00    +0.000 C 
ATOM     23  O   UNL     1      -0.707  10.483  22.638  0.00  0.00    +0.000 OA
ENDBRANCH  16  23
BRANCH  20  24
ATOM     24  O   UNL     1       0.565  12.859  18.539  0.00  0.00    +0.000 OA
ATOM     25  C   UNL     1       1.724  13.682  18.575  0.00  0.00    +0.000 C 
ENDBRANCH  20  24
BRANCH  21  26
ATOM     26  O   UNL     1      -0.811  12.905  21.071  0.00  0.00    +0.000 OA
ATOM     27  C   UNL     1      -0.141  13.855  21.885  0.00  0.00    +0.000 C 
ENDBRANCH  21  26
ENDBRANCH  12  18
ENDBRANCH   1  13
BRANCH   1  28
ATOM     28  C   UNL     1       4.566   6.882  17.402  0.00  0.00    +0.000 C 
BRANCH  28  29
ATOM     29  C   UNL     1       5.158   6.361  16.093  0.00  0.00    +0.000 C 
BRANCH  29  30
ATOM     30  S   UNL     1       6.070   4.843  16.387  0.00  0.00    +0.000 S 
ATOM     31  C   UNL     1       6.070   4.034  14.807  0.00  0.00    +0.000 C 
ATOM     32  O   UNL     1       7.443   5.191  16.699  0.00  0.00    +0.000 OA
ATOM     33  O   UNL     1       5.288   4.022  17.291  0.00  0.00    +0.000 OA
ENDBRANCH  29  30
ENDBRANCH  28  29
ENDBRANCH   1  28
TORSDOF 9
ENDMDL
