MODEL 1
REMARK VINA RESULT:      -6.3      0.000      0.000
REMARK  Name = 
REMARK  2 active torsions:
REMARK  status: ('A' for Active; 'I' for Inactive)
REMARK    1  A    between atoms: C_2  and  C_7
REMARK    2  A    between atoms: N_3  and  C_4
REMARK                            x       y       z     vdW  Elec       q    Type
REMARK                         _______ _______ _______ _____ _____    ______ ____
ROOT
ATOM      1  C   UNL     1       3.211   5.890  19.115  0.00  0.00    +0.000 A 
ATOM      2  C   UNL     1       3.340   6.474  17.860  0.00  0.00    +0.000 A 
ATOM      3  C   UNL     1       4.486   5.996  17.173  0.00  0.00    +0.000 A 
ATOM      4  C   UNL     1       5.169   5.060  17.907  0.00  0.00    +0.000 A 
ATOM      5  S   UNL     1       4.469   4.743  19.402  0.00  0.00    +0.000 S 
ATOM      6  C   UNL     1       6.404   4.437  17.371  0.00  0.00    +0.000 C 
ATOM      7  S   UNL     1       6.535   5.247  15.752  0.00  0.00    +0.000 S 
ATOM      8  O   UNL     1       7.726   6.076  15.747  0.00  0.00    +0.000 OA
ATOM      9  O   UNL     1       6.315   4.250  14.720  0.00  0.00    +0.000 OA
ATOM     10  C   UNL     1       5.069   6.326  15.847  0.00  0.00    +0.000 C 
ENDROOT
BRANCH   1  12
ATOM     11  O   UNL     1       1.532   5.270  20.658  0.00  0.00    +0.000 OA
ATOM     12  C   UNL     1       2.182   6.161  20.116  0.00  0.00    +0.000 C 
ATOM     13  N   UNL     1       1.980   7.500  20.395  0.00  0.00    +0.000 N 
ATOM     14  H   UNL     1       2.542   8.171  19.888  0.00  0.00    +0.000 HD
BRANCH  13  15
ATOM     15  C   UNL     1       1.011   7.984  21.320  0.00  0.00    +0.000 C 
ATOM     16  C   UNL     1       1.267   9.233  22.113  0.00  0.00    +0.000 C 
ATOM     17  C   UNL     1       0.246   9.244  21.013  0.00  0.00    +0.000 C 
ENDBRANCH  13  15
ENDBRANCH   1  12
TORSDOF 2
ENDMDL
MODEL 2
REMARK VINA RESULT:      -6.3      3.151      3.794
REMARK  Name = 
REMARK  2 active torsions:
REMARK  status: ('A' for Active; 'I' for Inactive)
REMARK    1  A    between atoms: C_2  and  C_7
REMARK    2  A    between atoms: N_3  and  C_4
REMARK                            x       y       z     vdW  Elec       q    Type
REMARK                         _______ _______ _______ _____ _____    ______ ____
ROOT
ATOM      1  C   UNL     1       2.347   6.575  20.064  0.00  0.00    +0.000 A 
ATOM      2  C   UNL     1       1.983   5.392  20.697  0.00  0.00    +0.000 A 
ATOM      3  C   UNL     1       2.742   4.289  20.226  0.00  0.00    +0.000 A 
ATOM      4  C   UNL     1       3.662   4.668  19.281  0.00  0.00    +0.000 A 
ATOM      5  S   UNL     1       3.634   6.314  18.943  0.00  0.00    +0.000 S 
ATOM      6  C   UNL     1       4.555   3.663  18.654  0.00  0.00    +0.000 C 
ATOM      7  S   UNL     1       4.025   2.144  19.496  0.00  0.00    +0.000 S 
ATOM      8  O   UNL     1       3.417   1.263  18.516  0.00  0.00    +0.000 OA
ATOM      9  O   UNL     1       5.111   1.684  20.342  0.00  0.00    +0.000 OA
ATOM     10  C   UNL     1       2.713   2.841  20.553  0.00  0.00    +0.000 C 
ENDROOT
BRANCH   1  12
ATOM     11  O   UNL     1       1.533   8.670  19.331  0.00  0.00    +0.000 OA
ATOM     12  C   UNL     1       1.763   7.900  20.261  0.00  0.00    +0.000 C 
ATOM     13  N   UNL     1       1.505   8.233  21.579  0.00  0.00    +0.000 N 
ATOM     14  H   UNL     1       1.745   7.550  22.286  0.00  0.00    +0.000 HD
BRANCH  13  15
ATOM     15  C   UNL     1       0.961   9.480  21.993  0.00  0.00    +0.000 C 
ATOM     16  C   UNL     1      -0.494   9.789  21.783  0.00  0.00    +0.000 C 
ATOM     17  C   UNL     1       0.021   9.535  23.169  0.00  0.00    +0.000 C 
ENDBRANCH  13  15
ENDBRANCH   1  12
TORSDOF 2
ENDMDL
MODEL 3
REMARK VINA RESULT:      -6.2      3.179      5.955
REMARK  Name = 
REMARK  2 active torsions:
REMARK  status: ('A' for Active; 'I' for Inactive)
REMARK    1  A    between atoms: C_2  and  C_7
REMARK    2  A    between atoms: N_3  and  C_4
REMARK                            x       y       z     vdW  Elec       q    Type
REMARK                         _______ _______ _______ _____ _____    ______ ____
ROOT
ATOM      1  C   UNL     1       4.808   5.348  17.409  0.00  0.00    +0.000 A 
ATOM      2  C   UNL     1       4.706   3.963  17.434  0.00  0.00    +0.000 A 
ATOM      3  C   UNL     1       3.524   3.534  18.092  0.00  0.00    +0.000 A 
ATOM      4  C   UNL     1       2.764   4.594  18.519  0.00  0.00    +0.000 A 
ATOM      5  S   UNL     1       3.437   6.090  18.152  0.00  0.00    +0.000 S 
ATOM      6  C   UNL     1       1.487   4.364  19.238  0.00  0.00    +0.000 C 
ATOM      7  S   UNL     1       1.416   2.550  19.261  0.00  0.00    +0.000 S 
ATOM      8  O   UNL     1       1.521   2.103  20.638  0.00  0.00    +0.000 OA
ATOM      9  O   UNL     1       0.313   2.122  18.419  0.00  0.00    +0.000 OA
ATOM     10  C   UNL     1       2.983   2.187  18.403  0.00  0.00    +0.000 C 
ENDROOT
BRANCH   1  12
ATOM     11  O   UNL     1       6.122   6.219  15.647  0.00  0.00    +0.000 OA
ATOM     12  C   UNL     1       5.900   6.145  16.854  0.00  0.00    +0.000 C 
ATOM     13  N   UNL     1       6.679   6.799  17.791  0.00  0.00    +0.000 N 
ATOM     14  H   UNL     1       6.442   6.668  18.766  0.00  0.00    +0.000 HD
BRANCH  13  15
ATOM     15  C   UNL     1       7.805   7.608  17.466  0.00  0.00    +0.000 C 
ATOM     16  C   UNL     1       7.751   9.099  17.637  0.00  0.00    +0.000 C 
ATOM     17  C   UNL     1       8.592   8.272  18.565  0.00  0.00    +0.000 C 
ENDBRANCH  13  15
ENDBRANCH   1  12
TORSDOF 2
ENDMDL
MODEL 4
REMARK VINA RESULT:      -6.2      3.182      3.641
REMARK  Name = 
REMARK  2 active torsions:
REMARK  status: ('A' for Active; 'I' for Inactive)
REMARK    1  A    between atoms: C_2  and  C_7
REMARK    2  A    between atoms: N_3  and  C_4
REMARK                            x       y       z     vdW  Elec       q    Type
REMARK                         _______ _______ _______ _____ _____    ______ ____
ROOT
ATOM      1  C   UNL     1       2.349   6.461  19.995  0.00  0.00    +0.000 A 
ATOM      2  C   UNL     1       3.448   6.026  19.263  0.00  0.00    +0.000 A 
ATOM      3  C   UNL     1       3.650   4.628  19.398  0.00  0.00    +0.000 A 
ATOM      4  C   UNL     1       2.697   4.049  20.197  0.00  0.00    +0.000 A 
ATOM      5  S   UNL     1       1.569   5.143  20.793  0.00  0.00    +0.000 S 
ATOM      6  C   UNL     1       2.730   2.591  20.474  0.00  0.00    +0.000 C 
ATOM      7  S   UNL     1       4.186   2.083  19.517  0.00  0.00    +0.000 S 
ATOM      8  O   UNL     1       5.207   1.623  20.441  0.00  0.00    +0.000 OA
ATOM      9  O   UNL     1       3.745   1.245  18.417  0.00  0.00    +0.000 OA
ATOM     10  C   UNL     1       4.681   3.708  18.855  0.00  0.00    +0.000 C 
ENDROOT
BRANCH   1  12
ATOM     11  O   UNL     1       1.770   8.600  19.173  0.00  0.00    +0.000 OA
ATOM     12  C   UNL     1       1.860   7.831  20.128  0.00  0.00    +0.000 C 
ATOM     13  N   UNL     1       1.522   8.207  21.415  0.00  0.00    +0.000 N 
ATOM     14  H   UNL     1       1.647   7.521  22.148  0.00  0.00    +0.000 HD
BRANCH  13  15
ATOM     15  C   UNL     1       1.047   9.502  21.768  0.00  0.00    +0.000 C 
ATOM     16  C   UNL     1      -0.376   9.897  21.495  0.00  0.00    +0.000 C 
ATOM     17  C   UNL     1       0.073   9.659  22.906  0.00  0.00    +0.000 C 
ENDBRANCH  13  15
ENDBRANCH   1  12
TORSDOF 2
ENDMDL
MODEL 5
REMARK VINA RESULT:      -6.1      3.158      5.865
REMARK  Name = 
REMARK  2 active torsions:
REMARK  status: ('A' for Active; 'I' for Inactive)
REMARK    1  A    between atoms: C_2  and  C_7
REMARK    2  A    between atoms: N_3  and  C_4
REMARK                            x       y       z     vdW  Elec       q    Type
REMARK                         _______ _______ _______ _____ _____    ______ ____
ROOT
ATOM      1  C   UNL     1       4.662   5.480  17.457  0.00  0.00    +0.000 A 
ATOM      2  C   UNL     1       3.478   5.777  18.122  0.00  0.00    +0.000 A 
ATOM      3  C   UNL     1       2.771   4.601  18.487  0.00  0.00    +0.000 A 
ATOM      4  C   UNL     1       3.443   3.465  18.114  0.00  0.00    +0.000 A 
ATOM      5  S   UNL     1       4.899   3.774  17.333  0.00  0.00    +0.000 S 
ATOM      6  C   UNL     1       2.871   2.125  18.397  0.00  0.00    +0.000 C 
ATOM      7  S   UNL     1       1.327   2.571  19.241  0.00  0.00    +0.000 S 
ATOM      8  O   UNL     1       0.211   2.156  18.410  0.00  0.00    +0.000 OA
ATOM      9  O   UNL     1       1.422   2.150  20.627  0.00  0.00    +0.000 OA
ATOM     10  C   UNL     1       1.470   4.387  19.169  0.00  0.00    +0.000 C 
ENDROOT
BRANCH   1  12
ATOM     11  O   UNL     1       5.524   6.891  15.768  0.00  0.00    +0.000 OA
ATOM     12  C   UNL     1       5.626   6.426  16.901  0.00  0.00    +0.000 C 
ATOM     13  N   UNL     1       6.677   6.748  17.741  0.00  0.00    +0.000 N 
ATOM     14  H   UNL     1       6.699   6.304  18.650  0.00  0.00    +0.000 HD
BRANCH  13  15
ATOM     15  C   UNL     1       7.737   7.630  17.389  0.00  0.00    +0.000 C 
ATOM     16  C   UNL     1       7.607   9.110  17.610  0.00  0.00    +0.000 C 
ATOM     17  C   UNL     1       8.539   8.307  18.469  0.00  0.00    +0.000 C 
ENDBRANCH  13  15
ENDBRANCH   1  12
TORSDOF 2
ENDMDL
MODEL 6
REMARK VINA RESULT:      -6.1      3.363      7.125
REMARK  Name = 
REMARK  2 active torsions:
REMARK  status: ('A' for Active; 'I' for Inactive)
REMARK    1  A    between atoms: C_2  and  C_7
REMARK    2  A    between atoms: N_3  and  C_4
REMARK                            x       y       z     vdW  Elec       q    Type
REMARK                         _______ _______ _______ _____ _____    ______ ____
ROOT
ATOM      1  C   UNL     1       4.586   4.502  16.803  0.00  0.00    +0.000 A 
ATOM      2  C   UNL     1       4.080   3.251  17.137  0.00  0.00    +0.000 A 
ATOM      3  C   UNL     1       3.452   3.260  18.410  0.00  0.00    +0.000 A 
ATOM      4  C   UNL     1       3.479   4.506  18.984  0.00  0.00    +0.000 A 
ATOM      5  S   UNL     1       4.242   5.664  18.034  0.00  0.00    +0.000 S 
ATOM      6  C   UNL     1       2.881   4.731  20.322  0.00  0.00    +0.000 C 
ATOM      7  S   UNL     1       2.260   3.072  20.717  0.00  0.00    +0.000 S 
ATOM      8  O   UNL     1       3.005   2.559  21.852  0.00  0.00    +0.000 OA
ATOM      9  O   UNL     1       0.809   3.115  20.734  0.00  0.00    +0.000 OA
ATOM     10  C   UNL     1       2.802   2.194  19.213  0.00  0.00    +0.000 C 
ENDROOT
BRANCH   1  12
ATOM     11  O   UNL     1       5.918   5.934  15.476  0.00  0.00    +0.000 OA
ATOM     12  C   UNL     1       5.324   4.865  15.596  0.00  0.00    +0.000 C 
ATOM     13  N   UNL     1       5.290   3.920  14.586  0.00  0.00    +0.000 N 
ATOM     14  H   UNL     1       4.760   3.075  14.757  0.00  0.00    +0.000 HD
BRANCH  13  15
ATOM     15  C   UNL     1       5.922   4.082  13.321  0.00  0.00    +0.000 C 
ATOM     16  C   UNL     1       6.327   2.886  12.508  0.00  0.00    +0.000 C 
ATOM     17  C   UNL     1       5.175   3.737  12.060  0.00  0.00    +0.000 C 
ENDBRANCH  13  15
ENDBRANCH   1  12
TORSDOF 2
ENDMDL
MODEL 7
REMARK VINA RESULT:      -6.1      3.255      5.791
REMARK  Name = 
REMARK  2 active torsions:
REMARK  status: ('A' for Active; 'I' for Inactive)
REMARK    1  A    between atoms: C_2  and  C_7
REMARK    2  A    between atoms: N_3  and  C_4
REMARK                            x       y       z     vdW  Elec       q    Type
REMARK                         _______ _______ _______ _____ _____    ______ ____
ROOT
ATOM      1  C   UNL     1       5.560   5.849  17.731  0.00  0.00    +0.000 A 
ATOM      2  C   UNL     1       4.256   5.919  17.255  0.00  0.00    +0.000 A 
ATOM      3  C   UNL     1       3.393   5.038  17.957  0.00  0.00    +0.000 A 
ATOM      4  C   UNL     1       4.054   4.354  18.945  0.00  0.00    +0.000 A 
ATOM      5  S   UNL     1       5.686   4.741  19.049  0.00  0.00    +0.000 S 
ATOM      6  C   UNL     1       3.333   3.374  19.795  0.00  0.00    +0.000 C 
ATOM      7  S   UNL     1       1.652   3.490  19.120  0.00  0.00    +0.000 S 
ATOM      8  O   UNL     1       1.316   2.221  18.500  0.00  0.00    +0.000 OA
ATOM      9  O   UNL     1       0.790   4.079  20.129  0.00  0.00    +0.000 OA
ATOM     10  C   UNL     1       1.949   4.723  17.810  0.00  0.00    +0.000 C 
ENDROOT
BRANCH   1  12
ATOM     11  O   UNL     1       7.347   6.230  16.231  0.00  0.00    +0.000 OA
ATOM     12  C   UNL     1       6.725   6.577  17.232  0.00  0.00    +0.000 C 
ATOM     13  N   UNL     1       7.087   7.680  17.984  0.00  0.00    +0.000 N 
ATOM     14  H   UNL     1       6.534   7.884  18.807  0.00  0.00    +0.000 HD
BRANCH  13  15
ATOM     15  C   UNL     1       8.202   8.514  17.689  0.00  0.00    +0.000 C 
ATOM     16  C   UNL     1       8.090  10.008  17.792  0.00  0.00    +0.000 C 
ATOM     17  C   UNL     1       8.903   9.251  18.800  0.00  0.00    +0.000 C 
ENDBRANCH  13  15
ENDBRANCH   1  12
TORSDOF 2
ENDMDL
MODEL 8
REMARK VINA RESULT:      -6.1      3.096      3.808
REMARK  Name = 
REMARK  2 active torsions:
REMARK  status: ('A' for Active; 'I' for Inactive)
REMARK    1  A    between atoms: C_2  and  C_7
REMARK    2  A    between atoms: N_3  and  C_4
REMARK                            x       y       z     vdW  Elec       q    Type
REMARK                         _______ _______ _______ _____ _____    ______ ____
ROOT
ATOM      1  C   UNL     1       2.630   6.954  18.604  0.00  0.00    +0.000 A 
ATOM      2  C   UNL     1       2.152   6.001  19.495  0.00  0.00    +0.000 A 
ATOM      3  C   UNL     1       2.863   4.777  19.388  0.00  0.00    +0.000 A 
ATOM      4  C   UNL     1       3.860   4.846  18.449  0.00  0.00    +0.000 A 
ATOM      5  S   UNL     1       3.962   6.343  17.690  0.00  0.00    +0.000 S 
ATOM      6  C   UNL     1       4.721   3.669  18.175  0.00  0.00    +0.000 C 
ATOM      7  S   UNL     1       4.043   2.456  19.343  0.00  0.00    +0.000 S 
ATOM      8  O   UNL     1       3.437   1.376  18.586  0.00  0.00    +0.000 OA
ATOM      9  O   UNL     1       5.043   2.186  20.360  0.00  0.00    +0.000 OA
ATOM     10  C   UNL     1       2.719   3.471  20.080  0.00  0.00    +0.000 C 
ENDROOT
BRANCH   1  12
ATOM     11  O   UNL     1       2.318   8.945  17.368  0.00  0.00    +0.000 OA
ATOM     12  C   UNL     1       2.124   8.310  18.403  0.00  0.00    +0.000 C 
ATOM     13  N   UNL     1       1.424   8.835  19.473  0.00  0.00    +0.000 N 
ATOM     14  H   UNL     1       1.328   8.254  20.296  0.00  0.00    +0.000 HD
BRANCH  13  15
ATOM     15  C   UNL     1       0.868  10.145  19.496  0.00  0.00    +0.000 C 
ATOM     16  C   UNL     1      -0.490  10.411  18.911  0.00  0.00    +0.000 C 
ATOM     17  C   UNL     1      -0.299  10.449  20.399  0.00  0.00    +0.000 C 
ENDBRANCH  13  15
ENDBRANCH   1  12
TORSDOF 2
ENDMDL
MODEL 9
REMARK VINA RESULT:      -6.0      0.958      1.697
REMARK  Name = 
REMARK  2 active torsions:
REMARK  status: ('A' for Active; 'I' for Inactive)
REMARK    1  A    between atoms: C_2  and  C_7
REMARK    2  A    between atoms: N_3  and  C_4
REMARK                            x       y       z     vdW  Elec       q    Type
REMARK                         _______ _______ _______ _____ _____    ______ ____
ROOT
ATOM      1  C   UNL     1       3.152   6.014  19.008  0.00  0.00    +0.000 A 
ATOM      2  C   UNL     1       3.943   4.898  18.760  0.00  0.00    +0.000 A 
ATOM      3  C   UNL     1       4.695   5.043  17.565  0.00  0.00    +0.000 A 
ATOM      4  C   UNL     1       4.473   6.256  16.965  0.00  0.00    +0.000 A 
ATOM      5  S   UNL     1       3.381   7.225  17.799  0.00  0.00    +0.000 S 
ATOM      6  C   UNL     1       5.158   6.606  15.697  0.00  0.00    +0.000 C 
ATOM      7  S   UNL     1       6.154   5.116  15.410  0.00  0.00    +0.000 S 
ATOM      8  O   UNL     1       5.666   4.460  14.210  0.00  0.00    +0.000 OA
ATOM      9  O   UNL     1       7.556   5.463  15.553  0.00  0.00    +0.000 OA
ATOM     10  C   UNL     1       5.641   4.140  16.862  0.00  0.00    +0.000 C 
ENDROOT
BRANCH   1  12
ATOM     11  O   UNL     1       1.712   5.274  20.731  0.00  0.00    +0.000 OA
ATOM     12  C   UNL     1       2.222   6.210  20.118  0.00  0.00    +0.000 C 
ATOM     13  N   UNL     1       1.942   7.531  20.417  0.00  0.00    +0.000 N 
ATOM     14  H   UNL     1       2.387   8.240  19.850  0.00  0.00    +0.000 HD
BRANCH  13  15
ATOM     15  C   UNL     1       1.046   7.943  21.444  0.00  0.00    +0.000 C 
ATOM     16  C   UNL     1       1.236   9.258  22.143  0.00  0.00    +0.000 C 
ATOM     17  C   UNL     1       0.089   9.078  21.193  0.00  0.00    +0.000 C 
ENDBRANCH  13  15
ENDBRANCH   1  12
TORSDOF 2
ENDMDL
