MODEL 1
REMARK VINA RESULT:      -8.4      0.000      0.000
REMARK  Name = 
REMARK  5 active torsions:
REMARK  status: ('A' for Active; 'I' for Inactive)
REMARK    1  A    between atoms: C_4  and  O_5
REMARK    2  A    between atoms: O_5  and  C_6
REMARK    3  A    between atoms: C_6  and  C_7
REMARK    4  A    between atoms: C_19  and  C_20
REMARK    5  A    between atoms: C_21  and  C_22
REMARK                            x       y       z     vdW  Elec       q    Type
REMARK                         _______ _______ _______ _____ _____    ______ ____
ROOT
ATOM      1  O   UNL     1       3.649   1.652  18.743  0.00  0.00    +0.000 OA
ATOM      2  C   UNL     1       3.730   2.815  18.348  0.00  0.00    +0.000 A 
ATOM      3  N   UNL     1       4.503   3.116  17.260  0.00  0.00    +0.000 NA
ATOM      4  C   UNL     1       4.521   4.338  16.889  0.00  0.00    +0.000 A 
ATOM      5  C   UNL     1       3.815   5.465  17.495  0.00  0.00    +0.000 A 
ATOM      6  C   UNL     1       3.089   5.176  18.586  0.00  0.00    +0.000 A 
ATOM      7  N   UNL     1       3.034   3.852  19.006  0.00  0.00    +0.000 N 
ATOM      8  C   UNL     1       2.256   3.425  20.154  0.00  0.00    +0.000 C 
ATOM      9  C   UNL     1       1.469   4.464  20.937  0.00  0.00    +0.000 C 
ATOM     10  C   UNL     1       1.593   5.885  20.481  0.00  0.00    +0.000 A 
ATOM     11  C   UNL     1       0.895   6.868  21.224  0.00  0.00    +0.000 A 
ATOM     12  C   UNL     1       0.942   8.211  20.863  0.00  0.00    +0.000 A 
ATOM     13  C   UNL     1       1.701   8.572  19.752  0.00  0.00    +0.000 A 
ATOM     14  C   UNL     1       2.395   7.598  19.014  0.00  0.00    +0.000 A 
ATOM     15  C   UNL     1       2.356   6.231  19.354  0.00  0.00    +0.000 A 
ENDROOT
BRANCH  12  16
ATOM     16  C   UNL     1       0.220   9.209  21.599  0.00  0.00    +0.000 C 
ATOM     17  C   UNL     1      -0.322  10.110  22.190  0.00  0.00    +0.000 C 
BRANCH  17  18
ATOM     18  C   UNL     1      -0.843  11.273  22.849  0.00  0.00    +0.000 C 
ATOM     19  C   UNL     1      -0.655  12.661  22.286  0.00  0.00    +0.000 C 
ATOM     20  C   UNL     1      -2.001  12.001  22.214  0.00  0.00    +0.000 C 
ENDBRANCH  17  18
ENDBRANCH  12  16
BRANCH   4  21
ATOM     21  O   UNL     1       5.239   4.776  15.829  0.00  0.00    +0.000 OA
BRANCH  21  22
ATOM     22  C   UNL     1       6.588   4.271  15.692  0.00  0.00    +0.000 C 
BRANCH  22  23
ATOM     23  C   UNL     1       7.514   5.206  16.473  0.00  0.00    +0.000 C 
ATOM     24  C   UNL     1       7.457   5.030  17.984  0.00  0.00    +0.000 C 
ATOM     25  C   UNL     1       7.830   6.410  18.472  0.00  0.00    +0.000 C 
ATOM     26  C   UNL     1       7.153   7.299  17.454  0.00  0.00    +0.000 C 
ATOM     27  O   UNL     1       7.145   6.580  16.217  0.00  0.00    +0.000 OA
ENDBRANCH  22  23
ENDBRANCH  21  22
ENDBRANCH   4  21
TORSDOF 5
ENDMDL
MODEL 2
REMARK VINA RESULT:      -8.1      2.015      2.825
REMARK  Name = 
REMARK  5 active torsions:
REMARK  status: ('A' for Active; 'I' for Inactive)
REMARK    1  A    between atoms: C_4  and  O_5
REMARK    2  A    between atoms: O_5  and  C_6
REMARK    3  A    between atoms: C_6  and  C_7
REMARK    4  A    between atoms: C_19  and  C_20
REMARK    5  A    between atoms: C_21  and  C_22
REMARK                            x       y       z     vdW  Elec       q    Type
REMARK                         _______ _______ _______ _____ _____    ______ ____
ROOT
ATOM      1  O   UNL     1       3.401   2.604  20.465  0.00  0.00    +0.000 OA
ATOM      2  C   UNL     1       3.586   3.386  19.532  0.00  0.00    +0.000 A 
ATOM      3  N   UNL     1       4.347   3.006  18.461  0.00  0.00    +0.000 NA
ATOM      4  C   UNL     1       4.476   3.858  17.517  0.00  0.00    +0.000 A 
ATOM      5  C   UNL     1       3.910   5.203  17.446  0.00  0.00    +0.000 A 
ATOM      6  C   UNL     1       3.197   5.590  18.515  0.00  0.00    +0.000 A 
ATOM      7  N   UNL     1       3.022   4.681  19.552  0.00  0.00    +0.000 N 
ATOM      8  C   UNL     1       2.246   4.985  20.739  0.00  0.00    +0.000 C 
ATOM      9  C   UNL     1       1.596   6.354  20.863  0.00  0.00    +0.000 C 
ATOM     10  C   UNL     1       1.848   7.320  19.747  0.00  0.00    +0.000 A 
ATOM     11  C   UNL     1       1.281   8.613  19.867  0.00  0.00    +0.000 A 
ATOM     12  C   UNL     1       1.451   9.568  18.871  0.00  0.00    +0.000 A 
ATOM     13  C   UNL     1       2.203   9.229  17.749  0.00  0.00    +0.000 A 
ATOM     14  C   UNL     1       2.768   7.948  17.628  0.00  0.00    +0.000 A 
ATOM     15  C   UNL     1       2.603   6.960  18.619  0.00  0.00    +0.000 A 
ENDROOT
BRANCH  12  16
ATOM     16  C   UNL     1       0.860  10.872  18.977  0.00  0.00    +0.000 C 
ATOM     17  C   UNL     1       0.378  11.978  18.973  0.00  0.00    +0.000 C 
BRANCH  17  18
ATOM     18  C   UNL     1      -0.156  13.299  18.814  0.00  0.00    +0.000 C 
ATOM     19  C   UNL     1      -0.258  14.264  19.971  0.00  0.00    +0.000 C 
ATOM     20  C   UNL     1       0.787  14.473  18.914  0.00  0.00    +0.000 C 
ENDBRANCH  17  18
ENDBRANCH  12  16
BRANCH   4  21
ATOM     21  O   UNL     1       5.198   3.613  16.399  0.00  0.00    +0.000 OA
BRANCH  21  22
ATOM     22  C   UNL     1       6.357   4.447  16.167  0.00  0.00    +0.000 C 
BRANCH  22  23
ATOM     23  C   UNL     1       6.317   4.900  14.706  0.00  0.00    +0.000 C 
ATOM     24  C   UNL     1       6.075   3.779  13.706  0.00  0.00    +0.000 C 
ATOM     25  C   UNL     1       6.764   4.309  12.471  0.00  0.00    +0.000 C 
ATOM     26  C   UNL     1       7.972   5.002  13.056  0.00  0.00    +0.000 C 
ATOM     27  O   UNL     1       7.587   5.490  14.344  0.00  0.00    +0.000 OA
ENDBRANCH  22  23
ENDBRANCH  21  22
ENDBRANCH   4  21
TORSDOF 5
ENDMDL
MODEL 3
REMARK VINA RESULT:      -7.9      2.962      5.360
REMARK  Name = 
REMARK  5 active torsions:
REMARK  status: ('A' for Active; 'I' for Inactive)
REMARK    1  A    between atoms: C_4  and  O_5
REMARK    2  A    between atoms: O_5  and  C_6
REMARK    3  A    between atoms: C_6  and  C_7
REMARK    4  A    between atoms: C_19  and  C_20
REMARK    5  A    between atoms: C_21  and  C_22
REMARK                            x       y       z     vdW  Elec       q    Type
REMARK                         _______ _______ _______ _____ _____    ______ ____
ROOT
ATOM      1  O   UNL     1       2.871   8.073  17.137  0.00  0.00    +0.000 OA
ATOM      2  C   UNL     1       2.457   7.794  18.262  0.00  0.00    +0.000 A 
ATOM      3  N   UNL     1       2.685   6.551  18.786  0.00  0.00    +0.000 NA
ATOM      4  C   UNL     1       2.251   6.337  19.968  0.00  0.00    +0.000 A 
ATOM      5  C   UNL     1       1.526   7.265  20.834  0.00  0.00    +0.000 A 
ATOM      6  C   UNL     1       1.267   8.471  20.303  0.00  0.00    +0.000 A 
ATOM      7  N   UNL     1       1.742   8.742  19.025  0.00  0.00    +0.000 N 
ATOM      8  C   UNL     1       1.544  10.021  18.370  0.00  0.00    +0.000 C 
ATOM      9  C   UNL     1       0.783  11.114  19.104  0.00  0.00    +0.000 C 
ATOM     10  C   UNL     1       0.248  10.767  20.459  0.00  0.00    +0.000 A 
ATOM     11  C   UNL     1      -0.495  11.763  21.138  0.00  0.00    +0.000 A 
ATOM     12  C   UNL     1      -1.017  11.531  22.407  0.00  0.00    +0.000 A 
ATOM     13  C   UNL     1      -0.799  10.288  22.996  0.00  0.00    +0.000 A 
ATOM     14  C   UNL     1      -0.063   9.297  22.323  0.00  0.00    +0.000 A 
ATOM     15  C   UNL     1       0.483   9.511  21.042  0.00  0.00    +0.000 A 
ENDROOT
BRANCH  12  16
ATOM     16  C   UNL     1      -1.752  12.544  23.109  0.00  0.00    +0.000 C 
ATOM     17  C   UNL     1      -2.421  13.326  23.738  0.00  0.00    +0.000 C 
BRANCH  17  18
ATOM     18  C   UNL     1      -3.303  14.130  24.533  0.00  0.00    +0.000 C 
ATOM     19  C   UNL     1      -2.785  15.110  25.558  0.00  0.00    +0.000 C 
ATOM     20  C   UNL     1      -3.360  15.614  24.267  0.00  0.00    +0.000 C 
ENDBRANCH  17  18
ENDBRANCH  12  16
BRANCH   4  21
ATOM     21  O   UNL     1       2.410   5.156  20.609  0.00  0.00    +0.000 OA
BRANCH  21  22
ATOM     22  C   UNL     1       1.277   4.257  20.625  0.00  0.00    +0.000 C 
BRANCH  22  23
ATOM     23  C   UNL     1       1.644   3.035  19.781  0.00  0.00    +0.000 C 
ATOM     24  C   UNL     1       3.126   2.689  19.787  0.00  0.00    +0.000 C 
ATOM     25  C   UNL     1       3.294   2.015  18.445  0.00  0.00    +0.000 C 
ATOM     26  C   UNL     1       2.370   2.827  17.566  0.00  0.00    +0.000 C 
ATOM     27  O   UNL     1       1.296   3.276  18.398  0.00  0.00    +0.000 OA
ENDBRANCH  22  23
ENDBRANCH  21  22
ENDBRANCH   4  21
TORSDOF 5
ENDMDL
MODEL 4
REMARK VINA RESULT:      -7.9      1.425      2.318
REMARK  Name = 
REMARK  5 active torsions:
REMARK  status: ('A' for Active; 'I' for Inactive)
REMARK    1  A    between atoms: C_4  and  O_5
REMARK    2  A    between atoms: O_5  and  C_6
REMARK    3  A    between atoms: C_6  and  C_7
REMARK    4  A    between atoms: C_19  and  C_20
REMARK    5  A    between atoms: C_21  and  C_22
REMARK                            x       y       z     vdW  Elec       q    Type
REMARK                         _______ _______ _______ _____ _____    ______ ____
ROOT
ATOM      1  O   UNL     1       4.401   2.554  19.022  0.00  0.00    +0.000 OA
ATOM      2  C   UNL     1       4.268   3.646  18.468  0.00  0.00    +0.000 A 
ATOM      3  N   UNL     1       4.899   3.891  17.279  0.00  0.00    +0.000 NA
ATOM      4  C   UNL     1       4.696   5.035  16.747  0.00  0.00    +0.000 A 
ATOM      5  C   UNL     1       3.872   6.126  17.264  0.00  0.00    +0.000 A 
ATOM      6  C   UNL     1       3.287   5.899  18.451  0.00  0.00    +0.000 A 
ATOM      7  N   UNL     1       3.472   4.658  19.047  0.00  0.00    +0.000 N 
ATOM      8  C   UNL     1       2.862   4.297  20.314  0.00  0.00    +0.000 C 
ATOM      9  C   UNL     1       1.985   5.316  21.025  0.00  0.00    +0.000 C 
ATOM     10  C   UNL     1       1.849   6.657  20.372  0.00  0.00    +0.000 A 
ATOM     11  C   UNL     1       1.066   7.629  21.042  0.00  0.00    +0.000 A 
ATOM     12  C   UNL     1       0.874   8.896  20.501  0.00  0.00    +0.000 A 
ATOM     13  C   UNL     1       1.479   9.194  19.282  0.00  0.00    +0.000 A 
ATOM     14  C   UNL     1       2.257   8.233  18.616  0.00  0.00    +0.000 A 
ATOM     15  C   UNL     1       2.459   6.940  19.139  0.00  0.00    +0.000 A 
ENDROOT
BRANCH  12  16
ATOM     16  C   UNL     1       0.064   9.877  21.165  0.00  0.00    +0.000 C 
ATOM     17  C   UNL     1      -0.573  10.678  21.803  0.00  0.00    +0.000 C 
BRANCH  17  18
ATOM     18  C   UNL     1      -1.257  11.573  22.691  0.00  0.00    +0.000 C 
ATOM     19  C   UNL     1      -0.942  13.048  22.737  0.00  0.00    +0.000 C 
ATOM     20  C   UNL     1      -2.217  12.577  22.102  0.00  0.00    +0.000 C 
ENDBRANCH  17  18
ENDBRANCH  12  16
BRANCH   4  21
ATOM     21  O   UNL     1       5.252   5.410  15.572  0.00  0.00    +0.000 OA
BRANCH  21  22
ATOM     22  C   UNL     1       6.698   5.442  15.507  0.00  0.00    +0.000 C 
BRANCH  22  23
ATOM     23  C   UNL     1       7.132   4.488  14.393  0.00  0.00    +0.000 C 
ATOM     24  C   UNL     1       7.550   5.178  13.102  0.00  0.00    +0.000 C 
ATOM     25  C   UNL     1       7.228   4.125  12.068  0.00  0.00    +0.000 C 
ATOM     26  C   UNL     1       5.954   3.523  12.615  0.00  0.00    +0.000 C 
ATOM     27  O   UNL     1       6.032   3.618  14.041  0.00  0.00    +0.000 OA
ENDBRANCH  22  23
ENDBRANCH  21  22
ENDBRANCH   4  21
TORSDOF 5
ENDMDL
MODEL 5
REMARK VINA RESULT:      -7.9      1.797      2.267
REMARK  Name = 
REMARK  5 active torsions:
REMARK  status: ('A' for Active; 'I' for Inactive)
REMARK    1  A    between atoms: C_4  and  O_5
REMARK    2  A    between atoms: O_5  and  C_6
REMARK    3  A    between atoms: C_6  and  C_7
REMARK    4  A    between atoms: C_19  and  C_20
REMARK    5  A    between atoms: C_21  and  C_22
REMARK                            x       y       z     vdW  Elec       q    Type
REMARK                         _______ _______ _______ _____ _____    ______ ____
ROOT
ATOM      1  O   UNL     1       3.154   3.315  20.161  0.00  0.00    +0.000 OA
ATOM      2  C   UNL     1       3.358   4.188  19.317  0.00  0.00    +0.000 A 
ATOM      3  N   UNL     1       4.170   3.928  18.246  0.00  0.00    +0.000 NA
ATOM      4  C   UNL     1       4.317   4.870  17.395  0.00  0.00    +0.000 A 
ATOM      5  C   UNL     1       3.725   6.205  17.431  0.00  0.00    +0.000 A 
ATOM      6  C   UNL     1       2.962   6.473  18.502  0.00  0.00    +0.000 A 
ATOM      7  N   UNL     1       2.766   5.464  19.438  0.00  0.00    +0.000 N 
ATOM      8  C   UNL     1       1.936   5.636  20.616  0.00  0.00    +0.000 C 
ATOM      9  C   UNL     1       1.253   6.975  20.845  0.00  0.00    +0.000 C 
ATOM     10  C   UNL     1       1.527   8.050  19.839  0.00  0.00    +0.000 A 
ATOM     11  C   UNL     1       0.927   9.314  20.060  0.00  0.00    +0.000 A 
ATOM     12  C   UNL     1       1.115  10.365  19.168  0.00  0.00    +0.000 A 
ATOM     13  C   UNL     1       1.919  10.151  18.051  0.00  0.00    +0.000 A 
ATOM     14  C   UNL     1       2.516   8.899  17.830  0.00  0.00    +0.000 A 
ATOM     15  C   UNL     1       2.334   7.815  18.713  0.00  0.00    +0.000 A 
ENDROOT
BRANCH  12  16
ATOM     16  C   UNL     1       0.492  11.642  19.375  0.00  0.00    +0.000 C 
ATOM     17  C   UNL     1       0.048  12.742  19.591  0.00  0.00    +0.000 C 
BRANCH  17  18
ATOM     18  C   UNL     1      -0.344  14.080  19.927  0.00  0.00    +0.000 C 
ATOM     19  C   UNL     1       0.664  15.196  20.068  0.00  0.00    +0.000 C 
ATOM     20  C   UNL     1      -0.234  15.149  18.867  0.00  0.00    +0.000 C 
ENDBRANCH  17  18
ENDBRANCH  12  16
BRANCH   4  21
ATOM     21  O   UNL     1       5.088   4.749  16.289  0.00  0.00    +0.000 OA
BRANCH  21  22
ATOM     22  C   UNL     1       6.332   4.023  16.428  0.00  0.00    +0.000 C 
BRANCH  22  23
ATOM     23  C   UNL     1       7.391   5.011  16.920  0.00  0.00    +0.000 C 
ATOM     24  C   UNL     1       7.371   5.260  18.421  0.00  0.00    +0.000 C 
ATOM     25  C   UNL     1       7.925   6.663  18.511  0.00  0.00    +0.000 C 
ATOM     26  C   UNL     1       7.321   7.321  17.292  0.00  0.00    +0.000 C 
ATOM     27  O   UNL     1       7.180   6.300  16.299  0.00  0.00    +0.000 OA
ENDBRANCH  22  23
ENDBRANCH  21  22
ENDBRANCH   4  21
TORSDOF 5
ENDMDL
MODEL 6
REMARK VINA RESULT:      -7.9      2.486      4.798
REMARK  Name = 
REMARK  5 active torsions:
REMARK  status: ('A' for Active; 'I' for Inactive)
REMARK    1  A    between atoms: C_4  and  O_5
REMARK    2  A    between atoms: O_5  and  C_6
REMARK    3  A    between atoms: C_6  and  C_7
REMARK    4  A    between atoms: C_19  and  C_20
REMARK    5  A    between atoms: C_21  and  C_22
REMARK                            x       y       z     vdW  Elec       q    Type
REMARK                         _______ _______ _______ _____ _____    ______ ____
ROOT
ATOM      1  O   UNL     1       3.670   7.541  16.505  0.00  0.00    +0.000 OA
ATOM      2  C   UNL     1       3.360   7.217  17.652  0.00  0.00    +0.000 A 
ATOM      3  N   UNL     1       3.825   6.044  18.180  0.00  0.00    +0.000 NA
ATOM      4  C   UNL     1       3.486   5.783  19.384  0.00  0.00    +0.000 A 
ATOM      5  C   UNL     1       2.648   6.588  20.270  0.00  0.00    +0.000 A 
ATOM      6  C   UNL     1       2.159   7.719  19.737  0.00  0.00    +0.000 A 
ATOM      7  N   UNL     1       2.524   8.042  18.435  0.00  0.00    +0.000 N 
ATOM      8  C   UNL     1       2.078   9.253  17.773  0.00  0.00    +0.000 C 
ATOM      9  C   UNL     1       1.170  10.212  18.527  0.00  0.00    +0.000 C 
ATOM     10  C   UNL     1       0.763   9.805  19.909  0.00  0.00    +0.000 A 
ATOM     11  C   UNL     1      -0.114  10.670  20.609  0.00  0.00    +0.000 A 
ATOM     12  C   UNL     1      -0.531  10.378  21.904  0.00  0.00    +0.000 A 
ATOM     13  C   UNL     1      -0.074   9.204  22.498  0.00  0.00    +0.000 A 
ATOM     14  C   UNL     1       0.793   8.343  21.805  0.00  0.00    +0.000 A 
ATOM     15  C   UNL     1       1.239   8.621  20.497  0.00  0.00    +0.000 A 
ENDROOT
BRANCH  12  16
ATOM     16  C   UNL     1      -1.401  11.262  22.626  0.00  0.00    +0.000 C 
ATOM     17  C   UNL     1      -2.179  12.018  23.153  0.00  0.00    +0.000 C 
BRANCH  17  18
ATOM     18  C   UNL     1      -3.166  12.941  23.633  0.00  0.00    +0.000 C 
ATOM     19  C   UNL     1      -4.609  12.866  23.195  0.00  0.00    +0.000 C 
ATOM     20  C   UNL     1      -4.226  12.432  24.579  0.00  0.00    +0.000 C 
ENDBRANCH  17  18
ENDBRANCH  12  16
BRANCH   4  21
ATOM     21  O   UNL     1       3.876   4.661  20.033  0.00  0.00    +0.000 OA
BRANCH  21  22
ATOM     22  C   UNL     1       4.115   3.483  19.227  0.00  0.00    +0.000 C 
BRANCH  22  23
ATOM     23  C   UNL     1       2.868   2.602  19.314  0.00  0.00    +0.000 C 
ATOM     24  C   UNL     1       1.884   2.790  18.167  0.00  0.00    +0.000 C 
ATOM     25  C   UNL     1       0.572   2.423  18.821  0.00  0.00    +0.000 C 
ATOM     26  C   UNL     1       0.741   2.988  20.212  0.00  0.00    +0.000 C 
ATOM     27  O   UNL     1       2.136   2.912  20.522  0.00  0.00    +0.000 OA
ENDBRANCH  22  23
ENDBRANCH  21  22
ENDBRANCH   4  21
TORSDOF 5
ENDMDL
MODEL 7
REMARK VINA RESULT:      -7.7      2.123      3.013
REMARK  Name = 
REMARK  5 active torsions:
REMARK  status: ('A' for Active; 'I' for Inactive)
REMARK    1  A    between atoms: C_4  and  O_5
REMARK    2  A    between atoms: O_5  and  C_6
REMARK    3  A    between atoms: C_6  and  C_7
REMARK    4  A    between atoms: C_19  and  C_20
REMARK    5  A    between atoms: C_21  and  C_22
REMARK                            x       y       z     vdW  Elec       q    Type
REMARK                         _______ _______ _______ _____ _____    ______ ____
ROOT
ATOM      1  O   UNL     1       5.160   3.396  19.340  0.00  0.00    +0.000 OA
ATOM      2  C   UNL     1       5.058   4.399  18.633  0.00  0.00    +0.000 A 
ATOM      3  N   UNL     1       5.907   4.581  17.576  0.00  0.00    +0.000 NA
ATOM      4  C   UNL     1       5.727   5.630  16.869  0.00  0.00    +0.000 A 
ATOM      5  C   UNL     1       4.721   6.672  17.060  0.00  0.00    +0.000 A 
ATOM      6  C   UNL     1       3.915   6.514  18.121  0.00  0.00    +0.000 A 
ATOM      7  N   UNL     1       4.072   5.373  18.900  0.00  0.00    +0.000 N 
ATOM      8  C   UNL     1       3.235   5.088  20.051  0.00  0.00    +0.000 C 
ATOM      9  C   UNL     1       2.142   6.075  20.429  0.00  0.00    +0.000 C 
ATOM     10  C   UNL     1       2.036   7.313  19.593  0.00  0.00    +0.000 A 
ATOM     11  C   UNL     1       1.047   8.260  19.956  0.00  0.00    +0.000 A 
ATOM     12  C   UNL     1       0.869   9.430  19.227  0.00  0.00    +0.000 A 
ATOM     13  C   UNL     1       1.696   9.659  18.129  0.00  0.00    +0.000 A 
ATOM     14  C   UNL     1       2.679   8.723  17.767  0.00  0.00    +0.000 A 
ATOM     15  C   UNL     1       2.872   7.525  18.484  0.00  0.00    +0.000 A 
ENDROOT
BRANCH  12  16
ATOM     16  C   UNL     1      -0.146  10.383  19.577  0.00  0.00    +0.000 C 
ATOM     17  C   UNL     1      -0.951  11.247  19.823  0.00  0.00    +0.000 C 
BRANCH  17  18
ATOM     18  C   UNL     1      -1.809  12.375  20.038  0.00  0.00    +0.000 C 
ATOM     19  C   UNL     1      -1.686  13.250  21.262  0.00  0.00    +0.000 C 
ATOM     20  C   UNL     1      -1.218  13.760  19.931  0.00  0.00    +0.000 C 
ENDBRANCH  17  18
ENDBRANCH  12  16
BRANCH   4  21
ATOM     21  O   UNL     1       6.490   5.933  15.794  0.00  0.00    +0.000 OA
BRANCH  21  22
ATOM     22  C   UNL     1       7.097   4.829  15.083  0.00  0.00    +0.000 C 
BRANCH  22  23
ATOM     23  C   UNL     1       6.425   4.736  13.712  0.00  0.00    +0.000 C 
ATOM     24  C   UNL     1       5.419   3.601  13.579  0.00  0.00    +0.000 C 
ATOM     25  C   UNL     1       5.479   3.304  12.099  0.00  0.00    +0.000 C 
ATOM     26  C   UNL     1       6.947   3.498  11.796  0.00  0.00    +0.000 C 
ATOM     27  O   UNL     1       7.425   4.504  12.694  0.00  0.00    +0.000 OA
ENDBRANCH  22  23
ENDBRANCH  21  22
ENDBRANCH   4  21
TORSDOF 5
ENDMDL
MODEL 8
REMARK VINA RESULT:      -7.7      1.912      2.714
REMARK  Name = 
REMARK  5 active torsions:
REMARK  status: ('A' for Active; 'I' for Inactive)
REMARK    1  A    between atoms: C_4  and  O_5
REMARK    2  A    between atoms: O_5  and  C_6
REMARK    3  A    between atoms: C_6  and  C_7
REMARK    4  A    between atoms: C_19  and  C_20
REMARK    5  A    between atoms: C_21  and  C_22
REMARK                            x       y       z     vdW  Elec       q    Type
REMARK                         _______ _______ _______ _____ _____    ______ ____
ROOT
ATOM      1  O   UNL     1       4.241   2.860  20.172  0.00  0.00    +0.000 OA
ATOM      2  C   UNL     1       4.362   3.757  19.337  0.00  0.00    +0.000 A 
ATOM      3  N   UNL     1       5.278   3.634  18.329  0.00  0.00    +0.000 NA
ATOM      4  C   UNL     1       5.333   4.590  17.483  0.00  0.00    +0.000 A 
ATOM      5  C   UNL     1       4.535   5.813  17.466  0.00  0.00    +0.000 A 
ATOM      6  C   UNL     1       3.665   5.952  18.479  0.00  0.00    +0.000 A 
ATOM      7  N   UNL     1       3.567   4.921  19.407  0.00  0.00    +0.000 N 
ATOM      8  C   UNL     1       2.639   4.955  20.522  0.00  0.00    +0.000 C 
ATOM      9  C   UNL     1       1.737   6.167  20.692  0.00  0.00    +0.000 C 
ATOM     10  C   UNL     1       1.906   7.275  19.699  0.00  0.00    +0.000 A 
ATOM     11  C   UNL     1       1.098   8.426  19.867  0.00  0.00    +0.000 A 
ATOM     12  C   UNL     1       1.179   9.497  18.983  0.00  0.00    +0.000 A 
ATOM     13  C   UNL     1       2.083   9.418  17.927  0.00  0.00    +0.000 A 
ATOM     14  C   UNL     1       2.887   8.278  17.759  0.00  0.00    +0.000 A 
ATOM     15  C   UNL     1       2.817   7.176  18.635  0.00  0.00    +0.000 A 
ENDROOT
BRANCH  12  16
ATOM     16  C   UNL     1       0.347  10.657  19.136  0.00  0.00    +0.000 C 
ATOM     17  C   UNL     1      -0.409  11.579  19.318  0.00  0.00    +0.000 C 
BRANCH  17  18
ATOM     18  C   UNL     1      -1.400  12.572  19.614  0.00  0.00    +0.000 C 
ATOM     19  C   UNL     1      -2.323  12.450  20.803  0.00  0.00    +0.000 C 
ATOM     20  C   UNL     1      -1.202  13.448  20.827  0.00  0.00    +0.000 C 
ENDBRANCH  17  18
ENDBRANCH  12  16
BRANCH   4  21
ATOM     21  O   UNL     1       6.189   4.597  16.435  0.00  0.00    +0.000 OA
BRANCH  21  22
ATOM     22  C   UNL     1       5.930   3.658  15.365  0.00  0.00    +0.000 C 
BRANCH  22  23
ATOM     23  C   UNL     1       6.093   4.407  14.041  0.00  0.00    +0.000 C 
ATOM     24  C   UNL     1       6.344   3.511  12.837  0.00  0.00    +0.000 C 
ATOM     25  C   UNL     1       7.132   4.425  11.928  0.00  0.00    +0.000 C 
ATOM     26  C   UNL     1       7.986   5.190  12.911  0.00  0.00    +0.000 C 
ATOM     27  O   UNL     1       7.231   5.296  14.122  0.00  0.00    +0.000 OA
ENDBRANCH  22  23
ENDBRANCH  21  22
ENDBRANCH   4  21
TORSDOF 5
ENDMDL
MODEL 9
REMARK VINA RESULT:      -7.7      3.006      5.701
REMARK  Name = 
REMARK  5 active torsions:
REMARK  status: ('A' for Active; 'I' for Inactive)
REMARK    1  A    between atoms: C_4  and  O_5
REMARK    2  A    between atoms: O_5  and  C_6
REMARK    3  A    between atoms: C_6  and  C_7
REMARK    4  A    between atoms: C_19  and  C_20
REMARK    5  A    between atoms: C_21  and  C_22
REMARK                            x       y       z     vdW  Elec       q    Type
REMARK                         _______ _______ _______ _____ _____    ______ ____
ROOT
ATOM      1  O   UNL     1       2.477   8.895  17.009  0.00  0.00    +0.000 OA
ATOM      2  C   UNL     1       2.181   8.531  18.147  0.00  0.00    +0.000 A 
ATOM      3  N   UNL     1       2.616   7.322  18.614  0.00  0.00    +0.000 NA
ATOM      4  C   UNL     1       2.294   7.019  19.813  0.00  0.00    +0.000 A 
ATOM      5  C   UNL     1       1.503   7.812  20.751  0.00  0.00    +0.000 A 
ATOM      6  C   UNL     1       1.042   8.980  20.278  0.00  0.00    +0.000 A 
ATOM      7  N   UNL     1       1.389   9.348  18.984  0.00  0.00    +0.000 N 
ATOM      8  C   UNL     1       0.970  10.601  18.385  0.00  0.00    +0.000 C 
ATOM      9  C   UNL     1       0.111  11.555  19.200  0.00  0.00    +0.000 C 
ATOM     10  C   UNL     1      -0.280  11.101  20.572  0.00  0.00    +0.000 A 
ATOM     11  C   UNL     1      -1.112  11.963  21.328  0.00  0.00    +0.000 A 
ATOM     12  C   UNL     1      -1.512  11.628  22.618  0.00  0.00    +0.000 A 
ATOM     13  C   UNL     1      -1.082  10.414  23.150  0.00  0.00    +0.000 A 
ATOM     14  C   UNL     1      -0.259   9.557  22.402  0.00  0.00    +0.000 A 
ATOM     15  C   UNL     1       0.168   9.878  21.097  0.00  0.00    +0.000 A 
ENDROOT
BRANCH  12  16
ATOM     16  C   UNL     1      -2.336  12.507  23.397  0.00  0.00    +0.000 C 
ATOM     17  C   UNL     1      -3.024  13.308  23.981  0.00  0.00    +0.000 C 
BRANCH  17  18
ATOM     18  C   UNL     1      -3.816  14.358  24.552  0.00  0.00    +0.000 C 
ATOM     19  C   UNL     1      -3.217  15.686  24.947  0.00  0.00    +0.000 C 
ATOM     20  C   UNL     1      -4.080  15.592  23.723  0.00  0.00    +0.000 C 
ENDBRANCH  17  18
ENDBRANCH  12  16
BRANCH   4  21
ATOM     21  O   UNL     1       2.660   5.857  20.403  0.00  0.00    +0.000 OA
BRANCH  21  22
ATOM     22  C   UNL     1       3.608   5.026  19.692  0.00  0.00    +0.000 C 
BRANCH  22  23
ATOM     23  C   UNL     1       2.949   3.665  19.462  0.00  0.00    +0.000 C 
ATOM     24  C   UNL     1       1.973   3.629  18.295  0.00  0.00    +0.000 C 
ATOM     25  C   UNL     1       1.020   2.536  18.720  0.00  0.00    +0.000 C 
ATOM     26  C   UNL     1       0.924   2.763  20.211  0.00  0.00    +0.000 C 
ATOM     27  O   UNL     1       2.186   3.290  20.632  0.00  0.00    +0.000 OA
ENDBRANCH  22  23
ENDBRANCH  21  22
ENDBRANCH   4  21
TORSDOF 5
ENDMDL
