MODEL 1
REMARK VINA RESULT:      -7.8      0.000      0.000
REMARK  Name = 
REMARK  10 active torsions:
REMARK  status: ('A' for Active; 'I' for Inactive)
REMARK    1  A    between atoms: C_1  and  C_2
REMARK    2  A    between atoms: C_2  and  C_3
REMARK    3  A    between atoms: C_6  and  C_7
REMARK    4  A    between atoms: C_7  and  O_8
REMARK    5  A    between atoms: C_9  and  C_10
REMARK    6  A    between atoms: C_13  and  C_14
REMARK    7  A    between atoms: C_22  and  C_23
REMARK    8  A    between atoms: C_23  and  N_24
REMARK    9  A    between atoms: N_24  and  C_25
REMARK   10  A    between atoms: C_25  and  C_26
REMARK                            x       y       z     vdW  Elec       q    Type
REMARK                         _______ _______ _______ _____ _____    ______ ____
ROOT
ATOM      1  C   UNL     1       3.484   3.752  17.020  0.00  0.00    +0.000 C 
ATOM      2  O   UNL     1       2.386   3.442  16.564  0.00  0.00    +0.000 OA
ATOM      3  N   UNL     1       3.673   4.080  18.342  0.00  0.00    +0.000 N 
ATOM      4  C   UNL     1       2.748   4.084  19.482  0.00  0.00    +0.000 C 
ATOM      5  C   UNL     1       3.364   5.463  19.863  0.00  0.00    +0.000 C 
ATOM      6  C   UNL     1       4.549   5.110  18.915  0.00  0.00    +0.000 C 
ENDROOT
BRANCH   5   7
ATOM      7  C   UNL     1       2.529   6.794  19.561  0.00  0.00    +0.000 A 
ATOM      8  C   UNL     1       2.529   7.390  18.284  0.00  0.00    +0.000 A 
ATOM      9  C   UNL     1       1.891   8.611  18.040  0.00  0.00    +0.000 A 
ATOM     10  C   UNL     1       1.227   9.275  19.073  0.00  0.00    +0.000 A 
ATOM     11  C   UNL     1       1.164   8.683  20.332  0.00  0.00    +0.000 A 
ATOM     12  C   UNL     1       1.793   7.461  20.562  0.00  0.00    +0.000 A 
BRANCH  10  13
ATOM     13  C   UNL     1       0.579  10.566  18.842  0.00  0.00    +0.000 C 
ATOM     14  C   UNL     1      -0.758  10.611  18.678  0.00  0.00    +0.000 C 
ATOM     15  C   UNL     1      -1.499  11.886  18.429  0.00  0.00    +0.000 C 
ATOM     16  C   UNL     1      -0.579  13.042  18.027  0.00  0.00    +0.000 C 
ATOM     17  C   UNL     1       0.658  13.093  18.923  0.00  0.00    +0.000 C 
ATOM     18  C   UNL     1       1.456  11.790  18.841  0.00  0.00    +0.000 C 
ENDBRANCH  10  13
ENDBRANCH   5   7
BRANCH   1  20
ATOM     19  C   UNL     1       5.027   5.079  15.504  0.00  0.00    +0.000 C 
ATOM     20  C   UNL     1       4.752   3.747  16.182  0.00  0.00    +0.000 C 
ENDBRANCH   1  20
BRANCH   4  21
ATOM     21  C   UNL     1       1.263   3.922  19.197  0.00  0.00    +0.000 C 
BRANCH  21  22
ATOM     22  O   UNL     1       0.572   3.734  20.442  0.00  0.00    +0.000 OA
ATOM     23  H   UNL     1       0.998   2.991  20.903  0.00  0.00    +0.000 HD
ENDBRANCH  21  22
ENDBRANCH   4  21
BRANCH   6  24
ATOM     24  C   UNL     1       5.796   4.546  19.604  0.00  0.00    +0.000 C 
BRANCH  24  25
ATOM     25  N   UNL     1       6.999   4.783  18.796  0.00  0.00    +0.000 NA
ATOM     26  H   UNL     1       6.720   5.009  17.840  0.00  0.00    +0.000 HD
BRANCH  25  27
ATOM     27  C   UNL     1       7.772   5.902  19.336  0.00  0.00    +0.000 C 
BRANCH  27  28
ATOM     28  C   UNL     1       8.091   6.897  18.228  0.00  0.00    +0.000 C 
ATOM     29  C   UNL     1       6.853   7.591  17.604  0.00  0.00    +0.000 C 
ATOM     30  C   UNL     1       7.715   8.863  17.481  0.00  0.00    +0.000 C 
ATOM     31  C   UNL     1       8.562   8.316  18.649  0.00  0.00    +0.000 C 
ENDBRANCH  27  28
ENDBRANCH  25  27
ENDBRANCH  24  25
ENDBRANCH   6  24
TORSDOF 9
ENDMDL
MODEL 2
REMARK VINA RESULT:      -7.6      1.378      2.204
REMARK  Name = 
REMARK  10 active torsions:
REMARK  status: ('A' for Active; 'I' for Inactive)
REMARK    1  A    between atoms: C_1  and  C_2
REMARK    2  A    between atoms: C_2  and  C_3
REMARK    3  A    between atoms: C_6  and  C_7
REMARK    4  A    between atoms: C_7  and  O_8
REMARK    5  A    between atoms: C_9  and  C_10
REMARK    6  A    between atoms: C_13  and  C_14
REMARK    7  A    between atoms: C_22  and  C_23
REMARK    8  A    between atoms: C_23  and  N_24
REMARK    9  A    between atoms: N_24  and  C_25
REMARK   10  A    between atoms: C_25  and  C_26
REMARK                            x       y       z     vdW  Elec       q    Type
REMARK                         _______ _______ _______ _____ _____    ______ ____
ROOT
ATOM      1  C   UNL     1       2.268   3.491  17.902  0.00  0.00    +0.000 C 
ATOM      2  O   UNL     1       1.069   3.222  17.922  0.00  0.00    +0.000 OA
ATOM      3  N   UNL     1       2.913   4.091  18.959  0.00  0.00    +0.000 N 
ATOM      4  C   UNL     1       2.436   4.474  20.293  0.00  0.00    +0.000 C 
ATOM      5  C   UNL     1       3.197   5.816  20.082  0.00  0.00    +0.000 C 
ATOM      6  C   UNL     1       3.970   5.109  18.929  0.00  0.00    +0.000 C 
ENDROOT
BRANCH   5   7
ATOM      7  C   UNL     1       2.361   7.134  19.731  0.00  0.00    +0.000 A 
ATOM      8  C   UNL     1       2.336   7.665  18.425  0.00  0.00    +0.000 A 
ATOM      9  C   UNL     1       1.697   8.874  18.133  0.00  0.00    +0.000 A 
ATOM     10  C   UNL     1       1.056   9.592  19.144  0.00  0.00    +0.000 A 
ATOM     11  C   UNL     1       1.018   9.065  20.432  0.00  0.00    +0.000 A 
ATOM     12  C   UNL     1       1.648   7.854  20.711  0.00  0.00    +0.000 A 
BRANCH  10  13
ATOM     13  C   UNL     1       0.408  10.873  18.862  0.00  0.00    +0.000 C 
ATOM     14  C   UNL     1       1.156  11.992  18.814  0.00  0.00    +0.000 C 
ATOM     15  C   UNL     1       0.574  13.343  18.540  0.00  0.00    +0.000 C 
ATOM     16  C   UNL     1      -0.951  13.374  18.682  0.00  0.00    +0.000 C 
ATOM     17  C   UNL     1      -1.588  12.166  18.000  0.00  0.00    +0.000 C 
ATOM     18  C   UNL     1      -1.075  10.855  18.600  0.00  0.00    +0.000 C 
ENDBRANCH  10  13
ENDBRANCH   5   7
BRANCH   1  20
ATOM     19  C   UNL     1       4.171   2.039  17.058  0.00  0.00    +0.000 C 
ATOM     20  C   UNL     1       3.170   3.135  16.731  0.00  0.00    +0.000 C 
ENDBRANCH   1  20
BRANCH   4  21
ATOM     21  C   UNL     1       0.939   4.435  20.556  0.00  0.00    +0.000 C 
BRANCH  21  22
ATOM     22  O   UNL     1       0.555   3.081  20.839  0.00  0.00    +0.000 OA
ATOM     23  H   UNL     1       0.649   2.946  21.798  0.00  0.00    +0.000 HD
ENDBRANCH  21  22
ENDBRANCH   4  21
BRANCH   6  24
ATOM     24  C   UNL     1       5.356   4.571  19.300  0.00  0.00    +0.000 C 
BRANCH  24  25
ATOM     25  N   UNL     1       6.418   5.370  18.676  0.00  0.00    +0.000 NA
ATOM     26  H   UNL     1       7.115   4.743  18.272  0.00  0.00    +0.000 HD
BRANCH  25  27
ATOM     27  C   UNL     1       5.872   6.212  17.611  0.00  0.00    +0.000 C 
BRANCH  27  28
ATOM     28  C   UNL     1       6.502   5.837  16.276  0.00  0.00    +0.000 C 
ATOM     29  C   UNL     1       7.079   4.399  16.212  0.00  0.00    +0.000 C 
ATOM     30  C   UNL     1       6.604   4.349  14.747  0.00  0.00    +0.000 C 
ATOM     31  C   UNL     1       5.550   5.409  15.126  0.00  0.00    +0.000 C 
ENDBRANCH  27  28
ENDBRANCH  25  27
ENDBRANCH  24  25
ENDBRANCH   6  24
TORSDOF 9
ENDMDL
MODEL 3
REMARK VINA RESULT:      -7.4      1.330      2.093
REMARK  Name = 
REMARK  10 active torsions:
REMARK  status: ('A' for Active; 'I' for Inactive)
REMARK    1  A    between atoms: C_1  and  C_2
REMARK    2  A    between atoms: C_2  and  C_3
REMARK    3  A    between atoms: C_6  and  C_7
REMARK    4  A    between atoms: C_7  and  O_8
REMARK    5  A    between atoms: C_9  and  C_10
REMARK    6  A    between atoms: C_13  and  C_14
REMARK    7  A    between atoms: C_22  and  C_23
REMARK    8  A    between atoms: C_23  and  N_24
REMARK    9  A    between atoms: N_24  and  C_25
REMARK   10  A    between atoms: C_25  and  C_26
REMARK                            x       y       z     vdW  Elec       q    Type
REMARK                         _______ _______ _______ _____ _____    ______ ____
ROOT
ATOM      1  C   UNL     1       2.278   3.489  17.816  0.00  0.00    +0.000 C 
ATOM      2  O   UNL     1       1.065   3.302  17.748  0.00  0.00    +0.000 OA
ATOM      3  N   UNL     1       2.891   3.981  18.945  0.00  0.00    +0.000 N 
ATOM      4  C   UNL     1       2.357   4.317  20.270  0.00  0.00    +0.000 C 
ATOM      5  C   UNL     1       3.214   5.614  20.189  0.00  0.00    +0.000 C 
ATOM      6  C   UNL     1       4.012   4.925  19.042  0.00  0.00    +0.000 C 
ENDROOT
BRANCH   5   7
ATOM      7  C   UNL     1       2.489   7.004  19.871  0.00  0.00    +0.000 A 
ATOM      8  C   UNL     1       1.796   7.718  20.869  0.00  0.00    +0.000 A 
ATOM      9  C   UNL     1       1.070   8.877  20.577  0.00  0.00    +0.000 A 
ATOM     10  C   UNL     1       1.018   9.362  19.269  0.00  0.00    +0.000 A 
ATOM     11  C   UNL     1       1.738   8.709  18.273  0.00  0.00    +0.000 A 
ATOM     12  C   UNL     1       2.468   7.561  18.576  0.00  0.00    +0.000 A 
BRANCH  10  13
ATOM     13  C   UNL     1       0.240  10.557  18.941  0.00  0.00    +0.000 C 
ATOM     14  C   UNL     1      -0.876  10.431  18.196  0.00  0.00    +0.000 C 
ATOM     15  C   UNL     1      -1.725  11.599  17.807  0.00  0.00    +0.000 C 
ATOM     16  C   UNL     1      -1.023  12.943  18.020  0.00  0.00    +0.000 C 
ATOM     17  C   UNL     1      -0.322  12.985  19.376  0.00  0.00    +0.000 C 
ATOM     18  C   UNL     1       0.721  11.871  19.496  0.00  0.00    +0.000 C 
ENDBRANCH  10  13
ENDBRANCH   5   7
BRANCH   1  20
ATOM     19  C   UNL     1       4.092   1.926  16.975  0.00  0.00    +0.000 C 
ATOM     20  C   UNL     1       3.227   3.141  16.681  0.00  0.00    +0.000 C 
ENDBRANCH   1  20
BRANCH   4  21
ATOM     21  C   UNL     1       0.846   4.366  20.440  0.00  0.00    +0.000 C 
BRANCH  21  22
ATOM     22  O   UNL     1       0.354   3.024  20.576  0.00  0.00    +0.000 OA
ATOM     23  H   UNL     1      -0.338   2.897  19.904  0.00  0.00    +0.000 HD
ENDBRANCH  21  22
ENDBRANCH   4  21
BRANCH   6  24
ATOM     24  C   UNL     1       5.334   4.272  19.460  0.00  0.00    +0.000 C 
BRANCH  24  25
ATOM     25  N   UNL     1       6.289   4.251  18.345  0.00  0.00    +0.000 NA
ATOM     26  H   UNL     1       5.844   3.823  17.532  0.00  0.00    +0.000 HD
BRANCH  25  27
ATOM     27  C   UNL     1       6.702   5.609  17.994  0.00  0.00    +0.000 C 
BRANCH  27  28
ATOM     28  C   UNL     1       6.688   5.783  16.481  0.00  0.00    +0.000 C 
ATOM     29  C   UNL     1       6.781   4.461  15.676  0.00  0.00    +0.000 C 
ATOM     30  C   UNL     1       5.826   5.099  14.650  0.00  0.00    +0.000 C 
ATOM     31  C   UNL     1       5.312   5.999  15.793  0.00  0.00    +0.000 C 
ENDBRANCH  27  28
ENDBRANCH  25  27
ENDBRANCH  24  25
ENDBRANCH   6  24
TORSDOF 9
ENDMDL
MODEL 4
REMARK VINA RESULT:      -7.4      2.479      4.867
REMARK  Name = 
REMARK  10 active torsions:
REMARK  status: ('A' for Active; 'I' for Inactive)
REMARK    1  A    between atoms: C_1  and  C_2
REMARK    2  A    between atoms: C_2  and  C_3
REMARK    3  A    between atoms: C_6  and  C_7
REMARK    4  A    between atoms: C_7  and  O_8
REMARK    5  A    between atoms: C_9  and  C_10
REMARK    6  A    between atoms: C_13  and  C_14
REMARK    7  A    between atoms: C_22  and  C_23
REMARK    8  A    between atoms: C_23  and  N_24
REMARK    9  A    between atoms: N_24  and  C_25
REMARK   10  A    between atoms: C_25  and  C_26
REMARK                            x       y       z     vdW  Elec       q    Type
REMARK                         _______ _______ _______ _____ _____    ______ ____
ROOT
ATOM      1  C   UNL     1       6.867   6.031  17.656  0.00  0.00    +0.000 C 
ATOM      2  O   UNL     1       7.116   7.127  17.161  0.00  0.00    +0.000 OA
ATOM      3  N   UNL     1       5.691   5.359  17.422  0.00  0.00    +0.000 N 
ATOM      4  C   UNL     1       4.549   5.677  16.556  0.00  0.00    +0.000 C 
ATOM      5  C   UNL     1       3.640   5.257  17.748  0.00  0.00    +0.000 C 
ATOM      6  C   UNL     1       4.891   4.556  18.357  0.00  0.00    +0.000 C 
ENDROOT
BRANCH   5   7
ATOM      7  C   UNL     1       2.920   6.395  18.612  0.00  0.00    +0.000 A 
ATOM      8  C   UNL     1       2.566   6.183  19.960  0.00  0.00    +0.000 A 
ATOM      9  C   UNL     1       1.842   7.131  20.690  0.00  0.00    +0.000 A 
ATOM     10  C   UNL     1       1.450   8.329  20.090  0.00  0.00    +0.000 A 
ATOM     11  C   UNL     1       1.832   8.588  18.776  0.00  0.00    +0.000 A 
ATOM     12  C   UNL     1       2.564   7.643  18.061  0.00  0.00    +0.000 A 
BRANCH  10  13
ATOM     13  C   UNL     1       0.666   9.319  20.829  0.00  0.00    +0.000 C 
ATOM     14  C   UNL     1      -0.050  10.234  20.147  0.00  0.00    +0.000 C 
ATOM     15  C   UNL     1      -0.871  11.286  20.822  0.00  0.00    +0.000 C 
ATOM     16  C   UNL     1      -0.533  11.443  22.308  0.00  0.00    +0.000 C 
ATOM     17  C   UNL     1      -0.410  10.081  22.987  0.00  0.00    +0.000 C 
ATOM     18  C   UNL     1       0.680   9.230  22.332  0.00  0.00    +0.000 C 
ENDBRANCH  10  13
ENDBRANCH   5   7
BRANCH   1  20
ATOM     19  C   UNL     1       7.907   5.796  19.960  0.00  0.00    +0.000 C 
ATOM     20  C   UNL     1       7.860   5.281  18.531  0.00  0.00    +0.000 C 
ENDBRANCH   1  20
BRANCH   4  21
ATOM     21  C   UNL     1       4.480   7.068  15.948  0.00  0.00    +0.000 C 
BRANCH  21  22
ATOM     22  O   UNL     1       5.147   7.051  14.677  0.00  0.00    +0.000 OA
ATOM     23  H   UNL     1       6.100   7.162  14.845  0.00  0.00    +0.000 HD
ENDBRANCH  21  22
ENDBRANCH   4  21
BRANCH   6  24
ATOM     24  C   UNL     1       4.985   3.046  18.109  0.00  0.00    +0.000 C 
BRANCH  24  25
ATOM     25  N   UNL     1       4.231   2.297  19.121  0.00  0.00    +0.000 NA
ATOM     26  H   UNL     1       3.880   2.947  19.826  0.00  0.00    +0.000 HD
BRANCH  25  27
ATOM     27  C   UNL     1       3.094   1.607  18.512  0.00  0.00    +0.000 C 
BRANCH  27  28
ATOM     28  C   UNL     1       1.833   1.861  19.327  0.00  0.00    +0.000 C 
ATOM     29  C   UNL     1       2.058   2.661  20.637  0.00  0.00    +0.000 C 
ATOM     30  C   UNL     1       0.696   3.335  20.378  0.00  0.00    +0.000 C 
ATOM     31  C   UNL     1       0.909   3.028  18.881  0.00  0.00    +0.000 C 
ENDBRANCH  27  28
ENDBRANCH  25  27
ENDBRANCH  24  25
ENDBRANCH   6  24
TORSDOF 9
ENDMDL
MODEL 5
REMARK VINA RESULT:      -7.4      0.504      1.485
REMARK  Name = 
REMARK  10 active torsions:
REMARK  status: ('A' for Active; 'I' for Inactive)
REMARK    1  A    between atoms: C_1  and  C_2
REMARK    2  A    between atoms: C_2  and  C_3
REMARK    3  A    between atoms: C_6  and  C_7
REMARK    4  A    between atoms: C_7  and  O_8
REMARK    5  A    between atoms: C_9  and  C_10
REMARK    6  A    between atoms: C_13  and  C_14
REMARK    7  A    between atoms: C_22  and  C_23
REMARK    8  A    between atoms: C_23  and  N_24
REMARK    9  A    between atoms: N_24  and  C_25
REMARK   10  A    between atoms: C_25  and  C_26
REMARK                            x       y       z     vdW  Elec       q    Type
REMARK                         _______ _______ _______ _____ _____    ______ ____
ROOT
ATOM      1  C   UNL     1       3.199   3.632  17.154  0.00  0.00    +0.000 C 
ATOM      2  O   UNL     1       2.050   3.387  16.793  0.00  0.00    +0.000 OA
ATOM      3  N   UNL     1       3.511   4.000  18.442  0.00  0.00    +0.000 N 
ATOM      4  C   UNL     1       2.677   4.121  19.644  0.00  0.00    +0.000 C 
ATOM      5  C   UNL     1       3.417   5.464  19.914  0.00  0.00    +0.000 C 
ATOM      6  C   UNL     1       4.499   4.985  18.901  0.00  0.00    +0.000 C 
ENDROOT
BRANCH   5   7
ATOM      7  C   UNL     1       2.660   6.840  19.612  0.00  0.00    +0.000 A 
ATOM      8  C   UNL     1       1.923   7.510  20.609  0.00  0.00    +0.000 A 
ATOM      9  C   UNL     1       1.171   8.655  20.327  0.00  0.00    +0.000 A 
ATOM     10  C   UNL     1       1.136   9.170  19.030  0.00  0.00    +0.000 A 
ATOM     11  C   UNL     1       1.898   8.561  18.036  0.00  0.00    +0.000 A 
ATOM     12  C   UNL     1       2.653   7.427  18.330  0.00  0.00    +0.000 A 
BRANCH  10  13
ATOM     13  C   UNL     1       0.331  10.349  18.711  0.00  0.00    +0.000 C 
ATOM     14  C   UNL     1       0.885  11.572  18.820  0.00  0.00    +0.000 C 
ATOM     15  C   UNL     1       0.133  12.830  18.523  0.00  0.00    +0.000 C 
ATOM     16  C   UNL     1      -1.381  12.614  18.442  0.00  0.00    +0.000 C 
ATOM     17  C   UNL     1      -1.713  11.368  17.624  0.00  0.00    +0.000 C 
ATOM     18  C   UNL     1      -1.079  10.117  18.236  0.00  0.00    +0.000 C 
ENDBRANCH  10  13
ENDBRANCH   5   7
BRANCH   1  20
ATOM     19  C   UNL     1       4.787   4.806  15.559  0.00  0.00    +0.000 C 
ATOM     20  C   UNL     1       4.397   3.498  16.227  0.00  0.00    +0.000 C 
ENDBRANCH   1  20
BRANCH   4  21
ATOM     21  C   UNL     1       1.168   4.058  19.476  0.00  0.00    +0.000 C 
BRANCH  21  22
ATOM     22  O   UNL     1       0.644   3.067  20.372  0.00  0.00    +0.000 OA
ATOM     23  H   UNL     1      -0.230   3.375  20.671  0.00  0.00    +0.000 HD
ENDBRANCH  21  22
ENDBRANCH   4  21
BRANCH   6  24
ATOM     24  C   UNL     1       5.752   4.358  19.523  0.00  0.00    +0.000 C 
BRANCH  24  25
ATOM     25  N   UNL     1       6.841   4.269  18.543  0.00  0.00    +0.000 NA
ATOM     26  H   UNL     1       6.470   4.466  17.612  0.00  0.00    +0.000 HD
BRANCH  25  27
ATOM     27  C   UNL     1       7.890   5.242  18.846  0.00  0.00    +0.000 C 
BRANCH  27  28
ATOM     28  C   UNL     1       7.393   6.652  18.551  0.00  0.00    +0.000 C 
ATOM     29  C   UNL     1       8.464   7.762  18.707  0.00  0.00    +0.000 C 
ATOM     30  C   UNL     1       7.806   8.469  17.506  0.00  0.00    +0.000 C 
ATOM     31  C   UNL     1       7.293   7.083  17.062  0.00  0.00    +0.000 C 
ENDBRANCH  27  28
ENDBRANCH  25  27
ENDBRANCH  24  25
ENDBRANCH   6  24
TORSDOF 9
ENDMDL
MODEL 6
REMARK VINA RESULT:      -7.3      1.530      2.250
REMARK  Name = 
REMARK  10 active torsions:
REMARK  status: ('A' for Active; 'I' for Inactive)
REMARK    1  A    between atoms: C_1  and  C_2
REMARK    2  A    between atoms: C_2  and  C_3
REMARK    3  A    between atoms: C_6  and  C_7
REMARK    4  A    between atoms: C_7  and  O_8
REMARK    5  A    between atoms: C_9  and  C_10
REMARK    6  A    between atoms: C_13  and  C_14
REMARK    7  A    between atoms: C_22  and  C_23
REMARK    8  A    between atoms: C_23  and  N_24
REMARK    9  A    between atoms: N_24  and  C_25
REMARK   10  A    between atoms: C_25  and  C_26
REMARK                            x       y       z     vdW  Elec       q    Type
REMARK                         _______ _______ _______ _____ _____    ______ ____
ROOT
ATOM      1  C   UNL     1       2.092   3.145  18.103  0.00  0.00    +0.000 C 
ATOM      2  O   UNL     1       0.899   2.915  18.286  0.00  0.00    +0.000 OA
ATOM      3  N   UNL     1       2.875   3.791  19.031  0.00  0.00    +0.000 N 
ATOM      4  C   UNL     1       2.575   4.273  20.385  0.00  0.00    +0.000 C 
ATOM      5  C   UNL     1       3.334   5.575  19.993  0.00  0.00    +0.000 C 
ATOM      6  C   UNL     1       3.944   4.773  18.805  0.00  0.00    +0.000 C 
ENDROOT
BRANCH   5   7
ATOM      7  C   UNL     1       2.492   6.893  19.659  0.00  0.00    +0.000 A 
ATOM      8  C   UNL     1       2.478   7.449  18.364  0.00  0.00    +0.000 A 
ATOM      9  C   UNL     1       1.832   8.659  18.088  0.00  0.00    +0.000 A 
ATOM     10  C   UNL     1       1.174   9.351  19.105  0.00  0.00    +0.000 A 
ATOM     11  C   UNL     1       1.125   8.798  20.382  0.00  0.00    +0.000 A 
ATOM     12  C   UNL     1       1.761   7.587  20.645  0.00  0.00    +0.000 A 
BRANCH  10  13
ATOM     13  C   UNL     1       0.518  10.632  18.841  0.00  0.00    +0.000 C 
ATOM     14  C   UNL     1      -0.816  10.662  18.654  0.00  0.00    +0.000 C 
ATOM     15  C   UNL     1      -1.565  11.925  18.370  0.00  0.00    +0.000 C 
ATOM     16  C   UNL     1      -0.649  13.082  17.962  0.00  0.00    +0.000 C 
ATOM     17  C   UNL     1       0.573  13.161  18.875  0.00  0.00    +0.000 C 
ATOM     18  C   UNL     1       1.384  11.864  18.830  0.00  0.00    +0.000 C 
ENDBRANCH  10  13
ENDBRANCH   5   7
BRANCH   1  20
ATOM     19  C   UNL     1       3.887   1.628  17.143  0.00  0.00    +0.000 C 
ATOM     20  C   UNL     1       2.835   2.688  16.858  0.00  0.00    +0.000 C 
ENDBRANCH   1  20
BRANCH   4  21
ATOM     21  C   UNL     1       1.121   4.297  20.829  0.00  0.00    +0.000 C 
BRANCH  21  22
ATOM     22  O   UNL     1       0.732   2.967  21.206  0.00  0.00    +0.000 OA
ATOM     23  H   UNL     1       1.446   2.598  21.755  0.00  0.00    +0.000 HD
ENDBRANCH  21  22
ENDBRANCH   4  21
BRANCH   6  24
ATOM     24  C   UNL     1       5.352   4.217  19.041  0.00  0.00    +0.000 C 
BRANCH  24  25
ATOM     25  N   UNL     1       6.220   4.468  17.884  0.00  0.00    +0.000 NA
ATOM     26  H   UNL     1       6.112   3.706  17.213  0.00  0.00    +0.000 HD
BRANCH  25  27
ATOM     27  C   UNL     1       5.856   5.724  17.229  0.00  0.00    +0.000 C 
BRANCH  27  28
ATOM     28  C   UNL     1       6.004   5.586  15.719  0.00  0.00    +0.000 C 
ATOM     29  C   UNL     1       7.266   4.811  15.259  0.00  0.00    +0.000 C 
ATOM     30  C   UNL     1       6.409   4.231  14.118  0.00  0.00    +0.000 C 
ATOM     31  C   UNL     1       5.176   4.478  15.012  0.00  0.00    +0.000 C 
ENDBRANCH  27  28
ENDBRANCH  25  27
ENDBRANCH  24  25
ENDBRANCH   6  24
TORSDOF 9
ENDMDL
MODEL 7
REMARK VINA RESULT:      -7.2      0.712      1.205
REMARK  Name = 
REMARK  10 active torsions:
REMARK  status: ('A' for Active; 'I' for Inactive)
REMARK    1  A    between atoms: C_1  and  C_2
REMARK    2  A    between atoms: C_2  and  C_3
REMARK    3  A    between atoms: C_6  and  C_7
REMARK    4  A    between atoms: C_7  and  O_8
REMARK    5  A    between atoms: C_9  and  C_10
REMARK    6  A    between atoms: C_13  and  C_14
REMARK    7  A    between atoms: C_22  and  C_23
REMARK    8  A    between atoms: C_23  and  N_24
REMARK    9  A    between atoms: N_24  and  C_25
REMARK   10  A    between atoms: C_25  and  C_26
REMARK                            x       y       z     vdW  Elec       q    Type
REMARK                         _______ _______ _______ _____ _____    ______ ____
ROOT
ATOM      1  C   UNL     1       2.786   3.474  17.677  0.00  0.00    +0.000 C 
ATOM      2  O   UNL     1       1.613   3.193  17.443  0.00  0.00    +0.000 OA
ATOM      3  N   UNL     1       3.200   3.991  18.883  0.00  0.00    +0.000 N 
ATOM      4  C   UNL     1       2.466   4.259  20.125  0.00  0.00    +0.000 C 
ATOM      5  C   UNL     1       3.219   5.621  20.172  0.00  0.00    +0.000 C 
ATOM      6  C   UNL     1       4.218   5.018  19.139  0.00  0.00    +0.000 C 
ENDROOT
BRANCH   5   7
ATOM      7  C   UNL     1       2.434   6.955  19.770  0.00  0.00    +0.000 A 
ATOM      8  C   UNL     1       2.531   7.506  18.476  0.00  0.00    +0.000 A 
ATOM      9  C   UNL     1       1.935   8.728  18.148  0.00  0.00    +0.000 A 
ATOM     10  C   UNL     1       1.216   9.439  19.111  0.00  0.00    +0.000 A 
ATOM     11  C   UNL     1       1.057   8.893  20.382  0.00  0.00    +0.000 A 
ATOM     12  C   UNL     1       1.645   7.670  20.695  0.00  0.00    +0.000 A 
BRANCH  10  13
ATOM     13  C   UNL     1       0.610  10.733  18.793  0.00  0.00    +0.000 C 
ATOM     14  C   UNL     1       1.391  11.829  18.740  0.00  0.00    +0.000 C 
ATOM     15  C   UNL     1       0.854  13.190  18.431  0.00  0.00    +0.000 C 
ATOM     16  C   UNL     1      -0.671  13.269  18.543  0.00  0.00    +0.000 C 
ATOM     17  C   UNL     1      -1.331  12.067  17.871  0.00  0.00    +0.000 C 
ATOM     18  C   UNL     1      -0.868  10.753  18.504  0.00  0.00    +0.000 C 
ENDBRANCH  10  13
ENDBRANCH   5   7
BRANCH   1  20
ATOM     19  C   UNL     1       4.323   4.473  15.922  0.00  0.00    +0.000 C 
ATOM     20  C   UNL     1       3.905   3.223  16.679  0.00  0.00    +0.000 C 
ENDBRANCH   1  20
BRANCH   4  21
ATOM     21  C   UNL     1       0.948   4.184  20.089  0.00  0.00    +0.000 C 
BRANCH  21  22
ATOM     22  O   UNL     1       0.548   2.818  20.277  0.00  0.00    +0.000 OA
ATOM     23  H   UNL     1      -0.402   2.761  20.075  0.00  0.00    +0.000 HD
ENDBRANCH  21  22
ENDBRANCH   4  21
BRANCH   6  24
ATOM     24  C   UNL     1       5.519   4.464  19.728  0.00  0.00    +0.000 C 
BRANCH  24  25
ATOM     25  N   UNL     1       6.691   5.100  19.112  0.00  0.00    +0.000 NA
ATOM     26  H   UNL     1       7.330   4.376  18.781  0.00  0.00    +0.000 HD
BRANCH  25  27
ATOM     27  C   UNL     1       6.290   5.927  17.974  0.00  0.00    +0.000 C 
BRANCH  27  28
ATOM     28  C   UNL     1       7.419   6.878  17.599  0.00  0.00    +0.000 C 
ATOM     29  C   UNL     1       6.983   8.351  17.385  0.00  0.00    +0.000 C 
ATOM     30  C   UNL     1       8.326   8.767  18.014  0.00  0.00    +0.000 C 
ATOM     31  C   UNL     1       8.325   7.408  18.744  0.00  0.00    +0.000 C 
ENDBRANCH  27  28
ENDBRANCH  25  27
ENDBRANCH  24  25
ENDBRANCH   6  24
TORSDOF 9
ENDMDL
MODEL 8
REMARK VINA RESULT:      -7.1      1.690      2.636
REMARK  Name = 
REMARK  10 active torsions:
REMARK  status: ('A' for Active; 'I' for Inactive)
REMARK    1  A    between atoms: C_1  and  C_2
REMARK    2  A    between atoms: C_2  and  C_3
REMARK    3  A    between atoms: C_6  and  C_7
REMARK    4  A    between atoms: C_7  and  O_8
REMARK    5  A    between atoms: C_9  and  C_10
REMARK    6  A    between atoms: C_13  and  C_14
REMARK    7  A    between atoms: C_22  and  C_23
REMARK    8  A    between atoms: C_23  and  N_24
REMARK    9  A    between atoms: N_24  and  C_25
REMARK   10  A    between atoms: C_25  and  C_26
REMARK                            x       y       z     vdW  Elec       q    Type
REMARK                         _______ _______ _______ _____ _____    ______ ____
ROOT
ATOM      1  C   UNL     1       2.126   3.336  18.005  0.00  0.00    +0.000 C 
ATOM      2  O   UNL     1       0.923   3.126  18.141  0.00  0.00    +0.000 OA
ATOM      3  N   UNL     1       2.887   3.951  18.972  0.00  0.00    +0.000 N 
ATOM      4  C   UNL     1       2.547   4.415  20.323  0.00  0.00    +0.000 C 
ATOM      5  C   UNL     1       3.345   5.709  19.982  0.00  0.00    +0.000 C 
ATOM      6  C   UNL     1       3.981   4.915  18.803  0.00  0.00    +0.000 C 
ENDROOT
BRANCH   5   7
ATOM      7  C   UNL     1       2.539   7.048  19.641  0.00  0.00    +0.000 A 
ATOM      8  C   UNL     1       1.828   7.753  20.633  0.00  0.00    +0.000 A 
ATOM      9  C   UNL     1       1.035   8.862  20.324  0.00  0.00    +0.000 A 
ATOM     10  C   UNL     1       0.931   9.305  19.004  0.00  0.00    +0.000 A 
ATOM     11  C   UNL     1       1.666   8.662  18.012  0.00  0.00    +0.000 A 
ATOM     12  C   UNL     1       2.463   7.565  18.331  0.00  0.00    +0.000 A 
BRANCH  10  13
ATOM     13  C   UNL     1       0.083  10.447  18.658  0.00  0.00    +0.000 C 
ATOM     14  C   UNL     1       0.568  11.695  18.806  0.00  0.00    +0.000 C 
ATOM     15  C   UNL     1      -0.233  12.917  18.485  0.00  0.00    +0.000 C 
ATOM     16  C   UNL     1      -1.728  12.625  18.330  0.00  0.00    +0.000 C 
ATOM     17  C   UNL     1      -1.956  11.374  17.484  0.00  0.00    +0.000 C 
ATOM     18  C   UNL     1      -1.289  10.149  18.114  0.00  0.00    +0.000 C 
ENDBRANCH  10  13
ENDBRANCH   5   7
BRANCH   1  20
ATOM     19  C   UNL     1       3.899   1.776  17.076  0.00  0.00    +0.000 C 
ATOM     20  C   UNL     1       2.904   2.886  16.780  0.00  0.00    +0.000 C 
ENDBRANCH   1  20
BRANCH   4  21
ATOM     21  C   UNL     1       1.079   4.460  20.715  0.00  0.00    +0.000 C 
BRANCH  21  22
ATOM     22  O   UNL     1       0.649   3.130  21.046  0.00  0.00    +0.000 OA
ATOM     23  H   UNL     1      -0.265   3.192  21.374  0.00  0.00    +0.000 HD
ENDBRANCH  21  22
ENDBRANCH   4  21
BRANCH   6  24
ATOM     24  C   UNL     1       5.370   4.327  19.078  0.00  0.00    +0.000 C 
BRANCH  24  25
ATOM     25  N   UNL     1       6.373   4.893  18.168  0.00  0.00    +0.000 NA
ATOM     26  H   UNL     1       7.082   4.186  17.970  0.00  0.00    +0.000 HD
BRANCH  25  27
ATOM     27  C   UNL     1       5.754   5.304  16.908  0.00  0.00    +0.000 C 
BRANCH  27  28
ATOM     28  C   UNL     1       6.191   4.372  15.785  0.00  0.00    +0.000 C 
ATOM     29  C   UNL     1       5.260   4.367  14.546  0.00  0.00    +0.000 C 
ATOM     30  C   UNL     1       6.525   4.203  13.682  0.00  0.00    +0.000 C 
ATOM     31  C   UNL     1       7.310   4.871  14.830  0.00  0.00    +0.000 C 
ENDBRANCH  27  28
ENDBRANCH  25  27
ENDBRANCH  24  25
ENDBRANCH   6  24
TORSDOF 9
ENDMDL
MODEL 9
REMARK VINA RESULT:      -7.1      1.154      1.479
REMARK  Name = 
REMARK  10 active torsions:
REMARK  status: ('A' for Active; 'I' for Inactive)
REMARK    1  A    between atoms: C_1  and  C_2
REMARK    2  A    between atoms: C_2  and  C_3
REMARK    3  A    between atoms: C_6  and  C_7
REMARK    4  A    between atoms: C_7  and  O_8
REMARK    5  A    between atoms: C_9  and  C_10
REMARK    6  A    between atoms: C_13  and  C_14
REMARK    7  A    between atoms: C_22  and  C_23
REMARK    8  A    between atoms: C_23  and  N_24
REMARK    9  A    between atoms: N_24  and  C_25
REMARK   10  A    between atoms: C_25  and  C_26
REMARK                            x       y       z     vdW  Elec       q    Type
REMARK                         _______ _______ _______ _____ _____    ______ ____
ROOT
ATOM      1  C   UNL     1       2.076   3.148  18.247  0.00  0.00    +0.000 C 
ATOM      2  O   UNL     1       0.903   2.900  18.516  0.00  0.00    +0.000 OA
ATOM      3  N   UNL     1       2.906   3.834  19.103  0.00  0.00    +0.000 N 
ATOM      4  C   UNL     1       2.687   4.346  20.462  0.00  0.00    +0.000 C 
ATOM      5  C   UNL     1       3.390   5.652  19.987  0.00  0.00    +0.000 C 
ATOM      6  C   UNL     1       3.936   4.830  18.781  0.00  0.00    +0.000 C 
ENDROOT
BRANCH   5   7
ATOM      7  C   UNL     1       2.499   6.943  19.676  0.00  0.00    +0.000 A 
ATOM      8  C   UNL     1       2.411   7.482  18.377  0.00  0.00    +0.000 A 
ATOM      9  C   UNL     1       1.722   8.672  18.117  0.00  0.00    +0.000 A 
ATOM     10  C   UNL     1       1.094   9.360  19.156  0.00  0.00    +0.000 A 
ATOM     11  C   UNL     1       1.118   8.823  20.441  0.00  0.00    +0.000 A 
ATOM     12  C   UNL     1       1.798   7.632  20.687  0.00  0.00    +0.000 A 
BRANCH  10  13
ATOM     13  C   UNL     1       0.393  10.621  18.908  0.00  0.00    +0.000 C 
ATOM     14  C   UNL     1      -0.807  10.597  18.297  0.00  0.00    +0.000 C 
ATOM     15  C   UNL     1      -1.587  11.837  17.997  0.00  0.00    +0.000 C 
ATOM     16  C   UNL     1      -0.747  13.113  18.116  0.00  0.00    +0.000 C 
ATOM     17  C   UNL     1       0.106  13.089  19.382  0.00  0.00    +0.000 C 
ATOM     18  C   UNL     1       1.052  11.886  19.392  0.00  0.00    +0.000 C 
ENDBRANCH  10  13
ENDBRANCH   5   7
BRANCH   1  20
ATOM     19  C   UNL     1       3.735   1.543  17.192  0.00  0.00    +0.000 C 
ATOM     20  C   UNL     1       2.743   2.672  16.967  0.00  0.00    +0.000 C 
ENDBRANCH   1  20
BRANCH   4  21
ATOM     21  C   UNL     1       1.266   4.354  21.002  0.00  0.00    +0.000 C 
BRANCH  21  22
ATOM     22  O   UNL     1       0.906   3.014  21.372  0.00  0.00    +0.000 OA
ATOM     23  H   UNL     1       1.123   2.902  22.314  0.00  0.00    +0.000 HD
ENDBRANCH  21  22
ENDBRANCH   4  21
BRANCH   6  24
ATOM     24  C   UNL     1       5.368   4.308  18.934  0.00  0.00    +0.000 C 
BRANCH  24  25
ATOM     25  N   UNL     1       5.960   3.997  17.627  0.00  0.00    +0.000 NA
ATOM     26  H   UNL     1       5.307   4.268  16.891  0.00  0.00    +0.000 HD
BRANCH  25  27
ATOM     27  C   UNL     1       7.211   4.733  17.439  0.00  0.00    +0.000 C 
BRANCH  27  28
ATOM     28  C   UNL     1       7.020   6.193  17.829  0.00  0.00    +0.000 C 
ATOM     29  C   UNL     1       8.115   6.761  18.768  0.00  0.00    +0.000 C 
ATOM     30  C   UNL     1       7.976   8.095  18.009  0.00  0.00    +0.000 C 
ATOM     31  C   UNL     1       7.462   7.276  16.807  0.00  0.00    +0.000 C 
ENDBRANCH  27  28
ENDBRANCH  25  27
ENDBRANCH  24  25
ENDBRANCH   6  24
TORSDOF 9
ENDMDL
