MODEL 1
REMARK VINA RESULT:      -7.5      0.000      0.000
REMARK  Name = 
REMARK  8 active torsions:
REMARK  status: ('A' for Active; 'I' for Inactive)
REMARK    1  A    between atoms: C_1  and  C_2
REMARK    2  A    between atoms: N_4  and  C_5
REMARK    3  A    between atoms: C_5  and  C_6
REMARK    4  A    between atoms: C_5  and  C_20
REMARK    5  A    between atoms: C_6  and  S_7
REMARK    6  A    between atoms: S_7  and  C_8
REMARK    7  A    between atoms: C_10  and  C_11
REMARK    8  A    between atoms: C_20  and  O_22
REMARK                            x       y       z     vdW  Elec       q    Type
REMARK                         _______ _______ _______ _____ _____    ______ ____
ROOT
ATOM      1  S   UNK A   1       4.213   6.756  16.914  0.00  0.00    +0.000 S 
ENDROOT
BRANCH   1   2
ATOM      2  C   UNK A   1       3.263   6.602  18.437  0.00  0.00    +0.000 A 
ATOM      3  C   UNK A   1       2.677   7.777  18.923  0.00  0.00    +0.000 A 
ATOM      4  C   UNK A   1       1.806   7.699  19.996  0.00  0.00    +0.000 A 
ATOM      5  C   UNK A   1       1.067   8.908  20.493  0.00  0.00    +0.000 C 
ATOM      6  N   UNK A   1       1.525   6.533  20.617  0.00  0.00    +0.000 NA
ATOM      7  C   UNK A   1       2.073   5.400  20.153  0.00  0.00    +0.000 A 
ATOM      8  C   UNK A   1       1.718   4.214  20.782  0.00  0.00    +0.000 A 
ATOM      9  C   UNK A   1       2.194   2.977  20.346  0.00  0.00    +0.000 A 
ATOM     10  C   UNK A   1       3.047   2.927  19.253  0.00  0.00    +0.000 A 
ATOM     11 BR   UNK A   1       3.684   1.261  18.631  0.00  0.00    +0.000 Br
ATOM     12  C   UNK A   1       3.425   4.101  18.605  0.00  0.00    +0.000 A 
ATOM     13  C   UNK A   1       2.951   5.361  19.045  0.00  0.00    +0.000 A 
ENDBRANCH   1   2
BRANCH   1  14
ATOM     14  C   UNK A   1       5.933   6.955  17.538  0.00  0.00    +0.000 C 
BRANCH  14  15
ATOM     15  C   UNK A   1       6.842   5.872  16.934  0.00  0.00    +0.000 C 
BRANCH  15  19
ATOM     16  C   UNK A   0       5.950   3.937  13.779  0.00  0.00    +0.000 C 
ATOM     17  C   UNK A   0       6.736   4.869  14.662  0.00  0.00    +0.000 C 
ATOM     18  O   UNK A   0       7.808   5.361  14.326  0.00  0.00    +0.000 OA
ATOM     19  N   UNK A   1       6.164   5.097  15.887  0.00  0.00    +0.000 N 
ATOM     20  H   UNK A   1       5.362   4.541  16.177  0.00  0.00    +0.000 HD
ENDBRANCH  15  19
BRANCH  15  21
ATOM     21  C   UNK A   1       7.275   4.854  17.994  0.00  0.00    +0.000 C 
ATOM     22  O   UNK A   1       6.758   4.776  19.103  0.00  0.00    +0.000 OA
BRANCH  21  23
ATOM     23  O   UNK A   1       8.275   4.026  17.608  0.00  0.00    +0.000 OA
ATOM     24  H   UNK A   1       8.158   3.654  16.709  0.00  0.00    +0.000 HD
ENDBRANCH  21  23
ENDBRANCH  15  21
ENDBRANCH  14  15
ENDBRANCH   1  14
TORSDOF 6
ENDMDL
MODEL 2
REMARK VINA RESULT:      -7.3      2.122      3.334
REMARK  Name = 
REMARK  8 active torsions:
REMARK  status: ('A' for Active; 'I' for Inactive)
REMARK    1  A    between atoms: C_1  and  C_2
REMARK    2  A    between atoms: N_4  and  C_5
REMARK    3  A    between atoms: C_5  and  C_6
REMARK    4  A    between atoms: C_5  and  C_20
REMARK    5  A    between atoms: C_6  and  S_7
REMARK    6  A    between atoms: S_7  and  C_8
REMARK    7  A    between atoms: C_10  and  C_11
REMARK    8  A    between atoms: C_20  and  O_22
REMARK                            x       y       z     vdW  Elec       q    Type
REMARK                         _______ _______ _______ _____ _____    ______ ____
ROOT
ATOM      1  S   UNK A   1       4.403   6.591  16.557  0.00  0.00    +0.000 S 
ENDROOT
BRANCH   1   2
ATOM      2  C   UNK A   1       3.530   5.416  17.608  0.00  0.00    +0.000 A 
ATOM      3  C   UNK A   1       3.791   4.062  17.372  0.00  0.00    +0.000 A 
ATOM      4  C   UNK A   1       3.278   3.117  18.245  0.00  0.00    +0.000 A 
ATOM      5  C   UNK A   1       3.611   1.660  18.103  0.00  0.00    +0.000 C 
ATOM      6  N   UNK A   1       2.505   3.451  19.299  0.00  0.00    +0.000 NA
ATOM      7  C   UNK A   1       2.257   4.747  19.541  0.00  0.00    +0.000 A 
ATOM      8  C   UNK A   1       1.504   5.056  20.666  0.00  0.00    +0.000 A 
ATOM      9  C   UNK A   1       1.231   6.374  21.032  0.00  0.00    +0.000 A 
ATOM     10  C   UNK A   1       1.726   7.410  20.252  0.00  0.00    +0.000 A 
ATOM     11 BR   UNK A   1       1.390   9.202  20.743  0.00  0.00    +0.000 Br
ATOM     12  C   UNK A   1       2.481   7.131  19.114  0.00  0.00    +0.000 A 
ATOM     13  C   UNK A   1       2.756   5.795  18.732  0.00  0.00    +0.000 A 
ENDBRANCH   1   2
BRANCH   1  14
ATOM     14  C   UNK A   1       6.021   6.766  17.419  0.00  0.00    +0.000 C 
BRANCH  14  15
ATOM     15  C   UNK A   1       7.018   5.724  16.886  0.00  0.00    +0.000 C 
BRANCH  15  19
ATOM     16  C   UNK A   0       6.381   3.922  13.593  0.00  0.00    +0.000 C 
ATOM     17  C   UNK A   0       7.015   4.906  14.538  0.00  0.00    +0.000 C 
ATOM     18  O   UNK A   0       7.968   5.613  14.224  0.00  0.00    +0.000 OA
ATOM     19  N   UNK A   1       6.455   4.925  15.789  0.00  0.00    +0.000 N 
ATOM     20  H   UNK A   1       5.777   4.210  16.045  0.00  0.00    +0.000 HD
ENDBRANCH  15  19
BRANCH  15  21
ATOM     21  C   UNK A   1       7.410   4.720  17.975  0.00  0.00    +0.000 C 
ATOM     22  O   UNK A   1       6.813   4.617  19.040  0.00  0.00    +0.000 OA
BRANCH  21  23
ATOM     23  O   UNK A   1       8.471   3.936  17.667  0.00  0.00    +0.000 OA
ATOM     24  H   UNK A   1       8.290   2.976  17.742  0.00  0.00    +0.000 HD
ENDBRANCH  21  23
ENDBRANCH  15  21
ENDBRANCH  14  15
ENDBRANCH   1  14
TORSDOF 6
ENDMDL
MODEL 3
REMARK VINA RESULT:      -7.3      1.065      1.188
REMARK  Name = 
REMARK  8 active torsions:
REMARK  status: ('A' for Active; 'I' for Inactive)
REMARK    1  A    between atoms: C_1  and  C_2
REMARK    2  A    between atoms: N_4  and  C_5
REMARK    3  A    between atoms: C_5  and  C_6
REMARK    4  A    between atoms: C_5  and  C_20
REMARK    5  A    between atoms: C_6  and  S_7
REMARK    6  A    between atoms: S_7  and  C_8
REMARK    7  A    between atoms: C_10  and  C_11
REMARK    8  A    between atoms: C_20  and  O_22
REMARK                            x       y       z     vdW  Elec       q    Type
REMARK                         _______ _______ _______ _____ _____    ______ ____
ROOT
ATOM      1  S   UNK A   1       4.598   6.899  16.470  0.00  0.00    +0.000 S 
ENDROOT
BRANCH   1   2
ATOM      2  C   UNK A   1       3.496   7.239  17.854  0.00  0.00    +0.000 A 
ATOM      3  C   UNK A   1       2.832   8.471  17.828  0.00  0.00    +0.000 A 
ATOM      4  C   UNK A   1       1.853   8.727  18.775  0.00  0.00    +0.000 A 
ATOM      5  C   UNK A   1       1.035   9.985  18.732  0.00  0.00    +0.000 C 
ATOM      6  N   UNK A   1       1.539   7.844  19.746  0.00  0.00    +0.000 NA
ATOM      7  C   UNK A   1       2.162   6.656  19.774  0.00  0.00    +0.000 A 
ATOM      8  C   UNK A   1       1.772   5.752  20.753  0.00  0.00    +0.000 A 
ATOM      9  C   UNK A   1       2.324   4.473  20.838  0.00  0.00    +0.000 A 
ATOM     10  C   UNK A   1       3.289   4.090  19.918  0.00  0.00    +0.000 A 
ATOM     11 BR   UNK A   1       4.032   2.356  19.999  0.00  0.00    +0.000 Br
ATOM     12  C   UNK A   1       3.704   4.978  18.926  0.00  0.00    +0.000 A 
ATOM     13  C   UNK A   1       3.153   6.280  18.838  0.00  0.00    +0.000 A 
ENDBRANCH   1   2
BRANCH   1  14
ATOM     14  C   UNK A   1       6.263   7.125  17.224  0.00  0.00    +0.000 C 
BRANCH  14  15
ATOM     15  C   UNK A   1       7.138   5.891  16.948  0.00  0.00    +0.000 C 
BRANCH  15  19
ATOM     16  C   UNK A   0       6.302   3.772  13.897  0.00  0.00    +0.000 C 
ATOM     17  C   UNK A   0       6.970   4.863  14.691  0.00  0.00    +0.000 C 
ATOM     18  O   UNK A   0       7.858   5.573  14.232  0.00  0.00    +0.000 OA
ATOM     19  N   UNK A   1       6.520   4.975  15.981  0.00  0.00    +0.000 N 
ATOM     20  H   UNK A   1       5.900   4.261  16.360  0.00  0.00    +0.000 HD
ENDBRANCH  15  19
BRANCH  15  21
ATOM     21  C   UNK A   1       7.359   5.068  18.222  0.00  0.00    +0.000 C 
ATOM     22  O   UNK A   1       7.974   5.489  19.196  0.00  0.00    +0.000 OA
BRANCH  21  23
ATOM     23  O   UNK A   1       6.809   3.832  18.199  0.00  0.00    +0.000 OA
ATOM     24  H   UNK A   1       7.466   3.105  18.214  0.00  0.00    +0.000 HD
ENDBRANCH  21  23
ENDBRANCH  15  21
ENDBRANCH  14  15
ENDBRANCH   1  14
TORSDOF 6
ENDMDL
MODEL 4
REMARK VINA RESULT:      -7.2      2.282      3.583
REMARK  Name = 
REMARK  8 active torsions:
REMARK  status: ('A' for Active; 'I' for Inactive)
REMARK    1  A    between atoms: C_1  and  C_2
REMARK    2  A    between atoms: N_4  and  C_5
REMARK    3  A    between atoms: C_5  and  C_6
REMARK    4  A    between atoms: C_5  and  C_20
REMARK    5  A    between atoms: C_6  and  S_7
REMARK    6  A    between atoms: S_7  and  C_8
REMARK    7  A    between atoms: C_10  and  C_11
REMARK    8  A    between atoms: C_20  and  O_22
REMARK                            x       y       z     vdW  Elec       q    Type
REMARK                         _______ _______ _______ _____ _____    ______ ____
ROOT
ATOM      1  S   UNK A   1       4.428   6.724  16.738  0.00  0.00    +0.000 S 
ENDROOT
BRANCH   1   2
ATOM      2  C   UNK A   1       3.458   6.175  18.154  0.00  0.00    +0.000 A 
ATOM      3  C   UNK A   1       3.717   4.879  18.616  0.00  0.00    +0.000 A 
ATOM      4  C   UNK A   1       3.124   4.456  19.794  0.00  0.00    +0.000 A 
ATOM      5  C   UNK A   1       3.446   3.117  20.394  0.00  0.00    +0.000 C 
ATOM      6  N   UNK A   1       2.276   5.235  20.498  0.00  0.00    +0.000 NA
ATOM      7  C   UNK A   1       2.030   6.483  20.070  0.00  0.00    +0.000 A 
ATOM      8  C   UNK A   1       1.196   7.274  20.849  0.00  0.00    +0.000 A 
ATOM      9  C   UNK A   1       0.916   8.600  20.517  0.00  0.00    +0.000 A 
ATOM     10  C   UNK A   1       1.485   9.147  19.376  0.00  0.00    +0.000 A 
ATOM     11 BR   UNK A   1       1.138  10.946  18.921  0.00  0.00    +0.000 Br
ATOM     12  C   UNK A   1       2.321   8.375  18.571  0.00  0.00    +0.000 A 
ATOM     13  C   UNK A   1       2.605   7.027  18.898  0.00  0.00    +0.000 A 
ENDBRANCH   1   2
BRANCH   1  14
ATOM     14  C   UNK A   1       6.110   6.918  17.461  0.00  0.00    +0.000 C 
BRANCH  14  15
ATOM     15  C   UNK A   1       7.064   5.867  16.868  0.00  0.00    +0.000 C 
BRANCH  15  19
ATOM     16  C   UNK A   0       6.163   3.857  13.762  0.00  0.00    +0.000 C 
ATOM     17  C   UNK A   0       6.896   4.875  14.595  0.00  0.00    +0.000 C 
ATOM     18  O   UNK A   0       7.865   5.502  14.181  0.00  0.00    +0.000 OA
ATOM     19  N   UNK A   1       6.404   5.020  15.866  0.00  0.00    +0.000 N 
ATOM     20  H   UNK A   1       5.705   4.364  16.211  0.00  0.00    +0.000 HD
ENDBRANCH  15  19
BRANCH  15  21
ATOM     21  C   UNK A   1       7.581   4.912  17.949  0.00  0.00    +0.000 C 
ATOM     22  O   UNK A   1       8.418   4.043  17.732  0.00  0.00    +0.000 OA
BRANCH  21  23
ATOM     23  O   UNK A   1       7.049   5.107  19.178  0.00  0.00    +0.000 OA
ATOM     24  H   UNK A   1       6.079   5.245  19.173  0.00  0.00    +0.000 HD
ENDBRANCH  21  23
ENDBRANCH  15  21
ENDBRANCH  14  15
ENDBRANCH   1  14
TORSDOF 6
ENDMDL
MODEL 5
REMARK VINA RESULT:      -7.2      3.150      6.521
REMARK  Name = 
REMARK  8 active torsions:
REMARK  status: ('A' for Active; 'I' for Inactive)
REMARK    1  A    between atoms: C_1  and  C_2
REMARK    2  A    between atoms: N_4  and  C_5
REMARK    3  A    between atoms: C_5  and  C_6
REMARK    4  A    between atoms: C_5  and  C_20
REMARK    5  A    between atoms: C_6  and  S_7
REMARK    6  A    between atoms: S_7  and  C_8
REMARK    7  A    between atoms: C_10  and  C_11
REMARK    8  A    between atoms: C_20  and  O_22
REMARK                            x       y       z     vdW  Elec       q    Type
REMARK                         _______ _______ _______ _____ _____    ______ ____
ROOT
ATOM      1  S   UNK A   1       3.545   3.693  16.986  0.00  0.00    +0.000 S 
ENDROOT
BRANCH   1   2
ATOM      2  C   UNK A   1       5.036   4.595  16.524  0.00  0.00    +0.000 A 
ATOM      3  C   UNK A   1       5.685   5.286  17.554  0.00  0.00    +0.000 A 
ATOM      4  C   UNK A   1       6.918   5.864  17.301  0.00  0.00    +0.000 A 
ATOM      5  C   UNK A   1       7.709   6.526  18.393  0.00  0.00    +0.000 C 
ATOM      6  N   UNK A   1       7.504   5.816  16.086  0.00  0.00    +0.000 NA
ATOM      7  C   UNK A   1       6.896   5.148  15.095  0.00  0.00    +0.000 A 
ATOM      8  C   UNK A   1       7.555   5.073  13.875  0.00  0.00    +0.000 A 
ATOM      9  C   UNK A   1       7.029   4.361  12.796  0.00  0.00    +0.000 A 
ATOM     10  C   UNK A   1       5.815   3.707  12.943  0.00  0.00    +0.000 A 
ATOM     11 BR   UNK A   1       5.098   2.718  11.503  0.00  0.00    +0.000 Br
ATOM     12  C   UNK A   1       5.128   3.768  14.154  0.00  0.00    +0.000 A 
ATOM     13  C   UNK A   1       5.651   4.495  15.252  0.00  0.00    +0.000 A 
ENDBRANCH   1   2
BRANCH   1  14
ATOM     14  C   UNK A   1       4.104   2.729  18.451  0.00  0.00    +0.000 C 
BRANCH  14  15
ATOM     15  C   UNK A   1       3.153   2.971  19.635  0.00  0.00    +0.000 C 
BRANCH  15  19
ATOM     16  C   UNK A   0       1.748   6.359  20.653  0.00  0.00    +0.000 C 
ATOM     17  C   UNK A   0       1.729   4.896  20.301  0.00  0.00    +0.000 C 
ATOM     18  O   UNK A   0       0.723   4.201  20.393  0.00  0.00    +0.000 OA
ATOM     19  N   UNK A   1       2.941   4.400  19.895  0.00  0.00    +0.000 N 
ATOM     20  H   UNK A   1       3.775   4.977  19.990  0.00  0.00    +0.000 HD
ENDBRANCH  15  19
BRANCH  15  21
ATOM     21  C   UNK A   1       3.721   2.389  20.934  0.00  0.00    +0.000 C 
ATOM     22  O   UNK A   1       4.859   1.943  21.030  0.00  0.00    +0.000 OA
BRANCH  21  23
ATOM     23  O   UNK A   1       2.868   2.414  21.985  0.00  0.00    +0.000 OA
ATOM     24  H   UNK A   1       2.997   1.676  22.618  0.00  0.00    +0.000 HD
ENDBRANCH  21  23
ENDBRANCH  15  21
ENDBRANCH  14  15
ENDBRANCH   1  14
TORSDOF 6
ENDMDL
MODEL 6
REMARK VINA RESULT:      -7.1      3.005      6.544
REMARK  Name = 
REMARK  8 active torsions:
REMARK  status: ('A' for Active; 'I' for Inactive)
REMARK    1  A    between atoms: C_1  and  C_2
REMARK    2  A    between atoms: N_4  and  C_5
REMARK    3  A    between atoms: C_5  and  C_6
REMARK    4  A    between atoms: C_5  and  C_20
REMARK    5  A    between atoms: C_6  and  S_7
REMARK    6  A    between atoms: S_7  and  C_8
REMARK    7  A    between atoms: C_10  and  C_11
REMARK    8  A    between atoms: C_20  and  O_22
REMARK                            x       y       z     vdW  Elec       q    Type
REMARK                         _______ _______ _______ _____ _____    ______ ____
ROOT
ATOM      1  S   UNK A   1       3.871   3.646  17.160  0.00  0.00    +0.000 S 
ENDROOT
BRANCH   1   2
ATOM      2  C   UNK A   1       5.249   4.656  16.588  0.00  0.00    +0.000 A 
ATOM      3  C   UNK A   1       5.876   5.452  17.554  0.00  0.00    +0.000 A 
ATOM      4  C   UNK A   1       7.037   6.128  17.218  0.00  0.00    +0.000 A 
ATOM      5  C   UNK A   1       7.810   6.910  18.240  0.00  0.00    +0.000 C 
ATOM      6  N   UNK A   1       7.571   6.076  15.979  0.00  0.00    +0.000 NA
ATOM      7  C   UNK A   1       6.984   5.308  15.048  0.00  0.00    +0.000 A 
ATOM      8  C   UNK A   1       7.592   5.237  13.802  0.00  0.00    +0.000 A 
ATOM      9  C   UNK A   1       7.088   4.429  12.781  0.00  0.00    +0.000 A 
ATOM     10  C   UNK A   1       5.948   3.675  13.015  0.00  0.00    +0.000 A 
ATOM     11 BR   UNK A   1       5.264   2.557  11.655  0.00  0.00    +0.000 Br
ATOM     12  C   UNK A   1       5.313   3.730  14.254  0.00  0.00    +0.000 A 
ATOM     13  C   UNK A   1       5.814   4.553  15.293  0.00  0.00    +0.000 A 
ENDBRANCH   1   2
BRANCH   1  14
ATOM     14  C   UNK A   1       2.659   4.912  17.725  0.00  0.00    +0.000 C 
BRANCH  14  15
ATOM     15  C   UNK A   1       2.841   5.181  19.228  0.00  0.00    +0.000 C 
BRANCH  15  19
ATOM     16  C   UNK A   0       1.391   2.600  21.622  0.00  0.00    +0.000 C 
ATOM     17  C   UNK A   0       2.411   3.238  20.718  0.00  0.00    +0.000 C 
ATOM     18  O   UNK A   0       3.558   2.818  20.606  0.00  0.00    +0.000 OA
ATOM     19  N   UNK A   1       1.957   4.347  20.053  0.00  0.00    +0.000 N 
ATOM     20  H   UNK A   1       1.054   4.746  20.303  0.00  0.00    +0.000 HD
ENDBRANCH  15  19
BRANCH  15  21
ATOM     21  C   UNK A   1       2.496   6.632  19.580  0.00  0.00    +0.000 C 
ATOM     22  O   UNK A   1       2.598   7.559  18.784  0.00  0.00    +0.000 OA
BRANCH  21  23
ATOM     23  O   UNK A   1       2.054   6.817  20.846  0.00  0.00    +0.000 OA
ATOM     24  H   UNK A   1       1.710   7.719  21.018  0.00  0.00    +0.000 HD
ENDBRANCH  21  23
ENDBRANCH  15  21
ENDBRANCH  14  15
ENDBRANCH   1  14
TORSDOF 6
ENDMDL
MODEL 7
REMARK VINA RESULT:      -7.1      2.330      4.229
REMARK  Name = 
REMARK  8 active torsions:
REMARK  status: ('A' for Active; 'I' for Inactive)
REMARK    1  A    between atoms: C_1  and  C_2
REMARK    2  A    between atoms: N_4  and  C_5
REMARK    3  A    between atoms: C_5  and  C_6
REMARK    4  A    between atoms: C_5  and  C_20
REMARK    5  A    between atoms: C_6  and  S_7
REMARK    6  A    between atoms: S_7  and  C_8
REMARK    7  A    between atoms: C_10  and  C_11
REMARK    8  A    between atoms: C_20  and  O_22
REMARK                            x       y       z     vdW  Elec       q    Type
REMARK                         _______ _______ _______ _____ _____    ______ ____
ROOT
ATOM      1  S   UNK A   1       4.530   5.102  16.281  0.00  0.00    +0.000 S 
ENDROOT
BRANCH   1   2
ATOM      2  C   UNK A   1       3.736   4.886  17.884  0.00  0.00    +0.000 A 
ATOM      3  C   UNK A   1       3.989   3.677  18.543  0.00  0.00    +0.000 A 
ATOM      4  C   UNK A   1       3.541   3.514  19.843  0.00  0.00    +0.000 A 
ATOM      5  C   UNK A   1       3.874   2.283  20.636  0.00  0.00    +0.000 C 
ATOM      6  N   UNK A   1       2.837   4.467  20.491  0.00  0.00    +0.000 NA
ATOM      7  C   UNK A   1       2.598   5.633  19.873  0.00  0.00    +0.000 A 
ATOM      8  C   UNK A   1       1.919   6.610  20.590  0.00  0.00    +0.000 A 
ATOM      9  C   UNK A   1       1.663   7.873  20.055  0.00  0.00    +0.000 A 
ATOM     10  C   UNK A   1       2.098   8.165  18.771  0.00  0.00    +0.000 A 
ATOM     11 BR   UNK A   1       1.784   9.877  18.036  0.00  0.00    +0.000 Br
ATOM     12  C   UNK A   1       2.778   7.204  18.024  0.00  0.00    +0.000 A 
ATOM     13  C   UNK A   1       3.035   5.917  18.558  0.00  0.00    +0.000 A 
ENDBRANCH   1   2
BRANCH   1  14
ATOM     14  C   UNK A   1       6.020   4.031  16.431  0.00  0.00    +0.000 C 
BRANCH  14  15
ATOM     15  C   UNK A   1       7.253   4.763  15.877  0.00  0.00    +0.000 C 
BRANCH  15  19
ATOM     16  C   UNK A   0       7.672   8.113  17.638  0.00  0.00    +0.000 C 
ATOM     17  C   UNK A   0       7.577   6.617  17.501  0.00  0.00    +0.000 C 
ATOM     18  O   UNK A   0       7.788   5.848  18.433  0.00  0.00    +0.000 OA
ATOM     19  N   UNK A   1       7.264   6.187  16.238  0.00  0.00    +0.000 N 
ATOM     20  H   UNK A   1       7.258   6.854  15.469  0.00  0.00    +0.000 HD
ENDBRANCH  15  19
BRANCH  15  21
ATOM     21  C   UNK A   1       7.286   4.720  14.345  0.00  0.00    +0.000 C 
ATOM     22  O   UNK A   1       7.941   5.502  13.665  0.00  0.00    +0.000 OA
BRANCH  21  23
ATOM     23  O   UNK A   1       6.539   3.736  13.791  0.00  0.00    +0.000 OA
ATOM     24  H   UNK A   1       6.967   3.296  13.027  0.00  0.00    +0.000 HD
ENDBRANCH  21  23
ENDBRANCH  15  21
ENDBRANCH  14  15
ENDBRANCH   1  14
TORSDOF 6
ENDMDL
MODEL 8
REMARK VINA RESULT:      -7.0      2.504      4.290
REMARK  Name = 
REMARK  8 active torsions:
REMARK  status: ('A' for Active; 'I' for Inactive)
REMARK    1  A    between atoms: C_1  and  C_2
REMARK    2  A    between atoms: N_4  and  C_5
REMARK    3  A    between atoms: C_5  and  C_6
REMARK    4  A    between atoms: C_5  and  C_20
REMARK    5  A    between atoms: C_6  and  S_7
REMARK    6  A    between atoms: S_7  and  C_8
REMARK    7  A    between atoms: C_10  and  C_11
REMARK    8  A    between atoms: C_20  and  O_22
REMARK                            x       y       z     vdW  Elec       q    Type
REMARK                         _______ _______ _______ _____ _____    ______ ____
ROOT
ATOM      1  S   UNK A   1       4.193   6.420  17.026  0.00  0.00    +0.000 S 
ENDROOT
BRANCH   1   2
ATOM      2  C   UNK A   1       3.181   6.055  18.471  0.00  0.00    +0.000 A 
ATOM      3  C   UNK A   1       3.342   4.783  19.034  0.00  0.00    +0.000 A 
ATOM      4  C   UNK A   1       2.715   4.496  20.235  0.00  0.00    +0.000 A 
ATOM      5  C   UNK A   1       2.936   3.188  20.938  0.00  0.00    +0.000 C 
ATOM      6  N   UNK A   1       1.925   5.387  20.870  0.00  0.00    +0.000 NA
ATOM      7  C   UNK A   1       1.772   6.613  20.345  0.00  0.00    +0.000 A 
ATOM      8  C   UNK A   1       0.997   7.520  21.055  0.00  0.00    +0.000 A 
ATOM      9  C   UNK A   1       0.816   8.833  20.619  0.00  0.00    +0.000 A 
ATOM     10  C   UNK A   1       1.427   9.248  19.445  0.00  0.00    +0.000 A 
ATOM     11 BR   UNK A   1       1.215  11.028  18.850  0.00  0.00    +0.000 Br
ATOM     12  C   UNK A   1       2.207   8.358  18.709  0.00  0.00    +0.000 A 
ATOM     13  C   UNK A   1       2.390   7.021  19.141  0.00  0.00    +0.000 A 
ENDBRANCH   1   2
BRANCH   1  14
ATOM     14  C   UNK A   1       5.063   4.824  16.738  0.00  0.00    +0.000 C 
BRANCH  14  15
ATOM     15  C   UNK A   1       6.561   5.076  16.497  0.00  0.00    +0.000 C 
BRANCH  15  19
ATOM     16  C   UNK A   0       8.013   8.368  17.741  0.00  0.00    +0.000 C 
ATOM     17  C   UNK A   0       7.608   6.920  17.794  0.00  0.00    +0.000 C 
ATOM     18  O   UNK A   0       7.886   6.184  18.736  0.00  0.00    +0.000 OA
ATOM     19  N   UNK A   1       6.925   6.486  16.687  0.00  0.00    +0.000 N 
ATOM     20  H   UNK A   1       6.862   7.089  15.870  0.00  0.00    +0.000 HD
ENDBRANCH  15  19
BRANCH  15  21
ATOM     21  C   UNK A   1       6.959   4.732  15.057  0.00  0.00    +0.000 C 
ATOM     22  O   UNK A   1       7.731   5.414  14.393  0.00  0.00    +0.000 OA
BRANCH  21  23
ATOM     23  O   UNK A   1       6.398   3.600  14.571  0.00  0.00    +0.000 OA
ATOM     24  H   UNK A   1       7.049   2.916  14.307  0.00  0.00    +0.000 HD
ENDBRANCH  21  23
ENDBRANCH  15  21
ENDBRANCH  14  15
ENDBRANCH   1  14
TORSDOF 6
ENDMDL
MODEL 9
REMARK VINA RESULT:      -6.9      2.766      4.289
REMARK  Name = 
REMARK  8 active torsions:
REMARK  status: ('A' for Active; 'I' for Inactive)
REMARK    1  A    between atoms: C_1  and  C_2
REMARK    2  A    between atoms: N_4  and  C_5
REMARK    3  A    between atoms: C_5  and  C_6
REMARK    4  A    between atoms: C_5  and  C_20
REMARK    5  A    between atoms: C_6  and  S_7
REMARK    6  A    between atoms: S_7  and  C_8
REMARK    7  A    between atoms: C_10  and  C_11
REMARK    8  A    between atoms: C_20  and  O_22
REMARK                            x       y       z     vdW  Elec       q    Type
REMARK                         _______ _______ _______ _____ _____    ______ ____
ROOT
ATOM      1  S   UNK A   1       5.233   5.714  16.179  0.00  0.00    +0.000 S 
ENDROOT
BRANCH   1   2
ATOM      2  C   UNK A   1       4.303   5.192  17.632  0.00  0.00    +0.000 A 
ATOM      3  C   UNK A   1       4.627   3.935  18.156  0.00  0.00    +0.000 A 
ATOM      4  C   UNK A   1       4.065   3.544  19.360  0.00  0.00    +0.000 A 
ATOM      5  C   UNK A   1       4.456   2.255  20.022  0.00  0.00    +0.000 C 
ATOM      6  N   UNK A   1       3.187   4.317  20.033  0.00  0.00    +0.000 NA
ATOM      7  C   UNK A   1       2.877   5.528  19.545  0.00  0.00    +0.000 A 
ATOM      8  C   UNK A   1       2.013   6.317  20.293  0.00  0.00    +0.000 A 
ATOM      9  C   UNK A   1       1.666   7.609  19.897  0.00  0.00    +0.000 A 
ATOM     10  C   UNK A   1       2.198   8.124  18.724  0.00  0.00    +0.000 A 
ATOM     11 BR   UNK A   1       1.761   9.880  18.183  0.00  0.00    +0.000 Br
ATOM     12  C   UNK A   1       3.064   7.354  17.950  0.00  0.00    +0.000 A 
ATOM     13  C   UNK A   1       3.416   6.039  18.341  0.00  0.00    +0.000 A 
ENDBRANCH   1   2
BRANCH   1  14
ATOM     14  C   UNK A   1       5.529   4.120  15.306  0.00  0.00    +0.000 C 
BRANCH  14  15
ATOM     15  C   UNK A   1       6.022   4.388  13.874  0.00  0.00    +0.000 C 
BRANCH  15  19
ATOM     16  C   UNK A   0       6.013   1.566  11.318  0.00  0.00    +0.000 C 
ATOM     17  C   UNK A   0       5.522   2.798  12.029  0.00  0.00    +0.000 C 
ATOM     18  O   UNK A   0       4.557   3.449  11.645  0.00  0.00    +0.000 OA
ATOM     19  N   UNK A   1       6.265   3.147  13.128  0.00  0.00    +0.000 N 
ATOM     20  H   UNK A   1       7.146   2.669  13.309  0.00  0.00    +0.000 HD
ENDBRANCH  15  19
BRANCH  15  21
ATOM     21  C   UNK A   1       7.355   5.143  13.875  0.00  0.00    +0.000 C 
ATOM     22  O   UNK A   1       7.975   5.411  14.899  0.00  0.00    +0.000 OA
BRANCH  21  23
ATOM     23  O   UNK A   1       7.813   5.485  12.648  0.00  0.00    +0.000 OA
ATOM     24  H   UNK A   1       8.372   6.291  12.643  0.00  0.00    +0.000 HD
ENDBRANCH  21  23
ENDBRANCH  15  21
ENDBRANCH  14  15
ENDBRANCH   1  14
TORSDOF 6
ENDMDL
