MODEL 1
REMARK VINA RESULT:      -8.1      0.000      0.000
REMARK  Name = 
REMARK  6 active torsions:
REMARK  status: ('A' for Active; 'I' for Inactive)
REMARK    1  A    between atoms: C_1  and  C_2
REMARK    2  A    between atoms: C_5  and  C_6
REMARK    3  A    between atoms: N_7  and  O_8
REMARK    4  A    between atoms: C_14  and  O_15
REMARK    5  A    between atoms: O_15  and  C_16
REMARK    6  A    between atoms: C_16  and  C_17
REMARK                            x       y       z     vdW  Elec       q    Type
REMARK                         _______ _______ _______ _____ _____    ______ ____
ROOT
ATOM      1  C   UNL     1       1.361   2.711  21.597  0.00  0.00    +0.000 C 
ATOM      2  C   UNL     1       2.458   3.126  20.659  0.00  0.00    +0.000 A 
ATOM      3  C   UNL     1       3.391   2.221  20.188  0.00  0.00    +0.000 A 
ATOM      4  C   UNL     1       4.449   2.701  19.417  0.00  0.00    +0.000 A 
ATOM      5  C   UNL     1       4.585   4.079  19.141  0.00  0.00    +0.000 A 
ATOM      6  C   UNL     1       3.584   4.901  19.635  0.00  0.00    +0.000 A 
ATOM      7  N   UNL     1       2.536   4.440  20.371  0.00  0.00    +0.000 NA
ENDROOT
BRANCH   5   8
ATOM      8  C   UNL     1       5.878   4.515  18.469  0.00  0.00    +0.000 C 
ATOM      9  N   UNL     1       6.778   4.822  19.368  0.00  0.00    +0.000 NA
ATOM     10  N   UNL     1       6.033   4.517  17.074  0.00  0.00    +0.000 N 
ATOM     11  C   UNL     1       5.010   4.249  16.071  0.00  0.00    +0.000 C 
ATOM     12  C   UNL     1       5.777   3.937  14.795  0.00  0.00    +0.000 C 
ATOM     13  C   UNL     1       6.989   4.841  14.899  0.00  0.00    +0.000 C 
ATOM     14  C   UNL     1       7.279   4.894  16.398  0.00  0.00    +0.000 C 
BRANCH   9  15
ATOM     15  O   UNL     1       8.032   5.173  18.871  0.00  0.00    +0.000 OA
ATOM     16  H   UNL     1       8.283   4.378  18.372  0.00  0.00    +0.000 HD
ENDBRANCH   9  15
ENDBRANCH   5   8
BRANCH   6  17
ATOM     17  O   UNL     1       3.672   6.269  19.546  0.00  0.00    +0.000 OA
BRANCH  17  18
ATOM     18  C   UNL     1       2.842   6.799  18.498  0.00  0.00    +0.000 C 
BRANCH  18  19
ATOM     19  C   UNL     1       2.014   8.022  18.841  0.00  0.00    +0.000 A 
ATOM     20  C   UNL     1       1.755   9.025  17.909  0.00  0.00    +0.000 A 
ATOM     21  C   UNL     1       1.123  10.191  18.327  0.00  0.00    +0.000 A 
ATOM     22  C   UNL     1       0.730  10.313  19.653  0.00  0.00    +0.000 A 
ATOM     23  C   UNL     1       0.962   9.248  20.504  0.00  0.00    +0.000 A 
ATOM     24  N   UNL     1       1.587   8.110  20.131  0.00  0.00    +0.000 NA
ENDBRANCH  18  19
ENDBRANCH  17  18
ENDBRANCH   6  17
TORSDOF 5
ENDMDL
MODEL 2
REMARK VINA RESULT:      -7.8      0.759      1.120
REMARK  Name = 
REMARK  6 active torsions:
REMARK  status: ('A' for Active; 'I' for Inactive)
REMARK    1  A    between atoms: C_1  and  C_2
REMARK    2  A    between atoms: C_5  and  C_6
REMARK    3  A    between atoms: N_7  and  O_8
REMARK    4  A    between atoms: C_14  and  O_15
REMARK    5  A    between atoms: O_15  and  C_16
REMARK    6  A    between atoms: C_16  and  C_17
REMARK                            x       y       z     vdW  Elec       q    Type
REMARK                         _______ _______ _______ _____ _____    ______ ____
ROOT
ATOM      1  C   UNL     1       0.922   2.915  20.853  0.00  0.00    +0.000 C 
ATOM      2  C   UNL     1       2.100   3.261  19.989  0.00  0.00    +0.000 A 
ATOM      3  C   UNL     1       2.961   2.291  19.512  0.00  0.00    +0.000 A 
ATOM      4  C   UNL     1       4.098   2.698  18.815  0.00  0.00    +0.000 A 
ATOM      5  C   UNL     1       4.383   4.067  18.620  0.00  0.00    +0.000 A 
ATOM      6  C   UNL     1       3.446   4.961  19.113  0.00  0.00    +0.000 A 
ATOM      7  N   UNL     1       2.322   4.574  19.776  0.00  0.00    +0.000 NA
ENDROOT
BRANCH   5   8
ATOM      8  C   UNL     1       5.746   4.402  18.031  0.00  0.00    +0.000 C 
ATOM      9  N   UNL     1       6.638   4.517  18.981  0.00  0.00    +0.000 NA
ATOM     10  N   UNL     1       5.957   4.508  16.647  0.00  0.00    +0.000 N 
ATOM     11  C   UNL     1       4.951   4.455  15.594  0.00  0.00    +0.000 C 
ATOM     12  C   UNL     1       5.729   4.167  14.317  0.00  0.00    +0.000 C 
ATOM     13  C   UNL     1       7.033   4.905  14.541  0.00  0.00    +0.000 C 
ATOM     14  C   UNL     1       7.265   4.790  16.047  0.00  0.00    +0.000 C 
BRANCH   9  15
ATOM     15  O   UNL     1       7.943   4.757  18.557  0.00  0.00    +0.000 OA
ATOM     16  H   UNL     1       7.819   4.948  17.613  0.00  0.00    +0.000 HD
ENDBRANCH   9  15
ENDBRANCH   5   8
BRANCH   6  17
ATOM     17  O   UNL     1       3.674   6.316  19.102  0.00  0.00    +0.000 OA
BRANCH  17  18
ATOM     18  C   UNL     1       2.750   7.015  18.250  0.00  0.00    +0.000 C 
BRANCH  18  19
ATOM     19  C   UNL     1       2.017   8.192  18.864  0.00  0.00    +0.000 A 
ATOM     20  C   UNL     1       1.614   8.196  20.197  0.00  0.00    +0.000 A 
ATOM     21  C   UNL     1       0.813   9.236  20.658  0.00  0.00    +0.000 A 
ATOM     22  C   UNL     1       0.466  10.263  19.791  0.00  0.00    +0.000 A 
ATOM     23  C   UNL     1       0.961  10.223  18.500  0.00  0.00    +0.000 A 
ATOM     24  N   UNL     1       1.727   9.220  18.019  0.00  0.00    +0.000 NA
ENDBRANCH  18  19
ENDBRANCH  17  18
ENDBRANCH   6  17
TORSDOF 5
ENDMDL
MODEL 3
REMARK VINA RESULT:      -7.7      1.224      1.248
REMARK  Name = 
REMARK  6 active torsions:
REMARK  status: ('A' for Active; 'I' for Inactive)
REMARK    1  A    between atoms: C_1  and  C_2
REMARK    2  A    between atoms: C_5  and  C_6
REMARK    3  A    between atoms: N_7  and  O_8
REMARK    4  A    between atoms: C_14  and  O_15
REMARK    5  A    between atoms: O_15  and  C_16
REMARK    6  A    between atoms: C_16  and  C_17
REMARK                            x       y       z     vdW  Elec       q    Type
REMARK                         _______ _______ _______ _____ _____    ______ ____
ROOT
ATOM      1  C   UNL     1       0.497   2.525  19.511  0.00  0.00    +0.000 C 
ATOM      2  C   UNL     1       1.759   2.977  18.833  0.00  0.00    +0.000 A 
ATOM      3  C   UNL     1       2.590   2.089  18.177  0.00  0.00    +0.000 A 
ATOM      4  C   UNL     1       3.801   2.562  17.674  0.00  0.00    +0.000 A 
ATOM      5  C   UNL     1       4.188   3.908  17.850  0.00  0.00    +0.000 A 
ATOM      6  C   UNL     1       3.276   4.725  18.499  0.00  0.00    +0.000 A 
ATOM      7  N   UNL     1       2.081   4.279  18.974  0.00  0.00    +0.000 NA
ENDROOT
BRANCH   5   8
ATOM      8  C   UNL     1       5.611   4.267  17.447  0.00  0.00    +0.000 C 
ATOM      9  N   UNL     1       6.376   4.359  18.505  0.00  0.00    +0.000 NA
ATOM     10  N   UNL     1       5.994   4.413  16.104  0.00  0.00    +0.000 N 
ATOM     11  C   UNL     1       5.128   4.385  14.931  0.00  0.00    +0.000 C 
ATOM     12  C   UNL     1       6.063   4.137  13.756  0.00  0.00    +0.000 C 
ATOM     13  C   UNL     1       7.322   4.875  14.162  0.00  0.00    +0.000 C 
ATOM     14  C   UNL     1       7.364   4.719  15.681  0.00  0.00    +0.000 C 
BRANCH   9  15
ATOM     15  O   UNL     1       7.722   4.618  18.255  0.00  0.00    +0.000 OA
ATOM     16  H   UNL     1       7.990   5.098  19.056  0.00  0.00    +0.000 HD
ENDBRANCH   9  15
ENDBRANCH   5   8
BRANCH   6  17
ATOM     17  O   UNL     1       3.591   6.017  18.845  0.00  0.00    +0.000 OA
BRANCH  17  18
ATOM     18  C   UNL     1       2.644   6.576  19.773  0.00  0.00    +0.000 C 
BRANCH  18  19
ATOM     19  C   UNL     1       1.991   7.884  19.371  0.00  0.00    +0.000 A 
ATOM     20  C   UNL     1       2.118   8.408  18.086  0.00  0.00    +0.000 A 
ATOM     21  C   UNL     1       1.627   9.684  17.824  0.00  0.00    +0.000 A 
ATOM     22  C   UNL     1       0.990  10.389  18.837  0.00  0.00    +0.000 A 
ATOM     23  C   UNL     1       0.844   9.774  20.068  0.00  0.00    +0.000 A 
ATOM     24  N   UNL     1       1.323   8.545  20.357  0.00  0.00    +0.000 NA
ENDBRANCH  18  19
ENDBRANCH  17  18
ENDBRANCH   6  17
TORSDOF 5
ENDMDL
MODEL 4
REMARK VINA RESULT:      -7.5      2.033      4.583
REMARK  Name = 
REMARK  6 active torsions:
REMARK  status: ('A' for Active; 'I' for Inactive)
REMARK    1  A    between atoms: C_1  and  C_2
REMARK    2  A    between atoms: C_5  and  C_6
REMARK    3  A    between atoms: N_7  and  O_8
REMARK    4  A    between atoms: C_14  and  O_15
REMARK    5  A    between atoms: O_15  and  C_16
REMARK    6  A    between atoms: C_16  and  C_17
REMARK                            x       y       z     vdW  Elec       q    Type
REMARK                         _______ _______ _______ _____ _____    ______ ____
ROOT
ATOM      1  C   UNL     1       7.741   7.693  17.252  0.00  0.00    +0.000 C 
ATOM      2  C   UNL     1       6.751   6.664  17.716  0.00  0.00    +0.000 A 
ATOM      3  C   UNL     1       7.151   5.406  18.128  0.00  0.00    +0.000 A 
ATOM      4  C   UNL     1       6.168   4.465  18.433  0.00  0.00    +0.000 A 
ATOM      5  C   UNL     1       4.796   4.774  18.300  0.00  0.00    +0.000 A 
ATOM      6  C   UNL     1       4.498   6.068  17.906  0.00  0.00    +0.000 A 
ATOM      7  N   UNL     1       5.449   7.001  17.628  0.00  0.00    +0.000 NA
ENDROOT
BRANCH   5   8
ATOM      8  C   UNL     1       3.819   3.618  18.458  0.00  0.00    +0.000 C 
ATOM      9  N   UNL     1       3.953   2.769  17.471  0.00  0.00    +0.000 NA
ATOM     10  N   UNL     1       2.957   3.512  19.561  0.00  0.00    +0.000 N 
ATOM     11  C   UNL     1       2.753   4.493  20.620  0.00  0.00    +0.000 C 
ATOM     12  C   UNL     1       2.096   3.720  21.754  0.00  0.00    +0.000 C 
ATOM     13  C   UNL     1       1.232   2.714  21.023  0.00  0.00    +0.000 C 
ATOM     14  C   UNL     1       2.033   2.391  19.762  0.00  0.00    +0.000 C 
BRANCH   9  15
ATOM     15  O   UNL     1       3.155   1.630  17.543  0.00  0.00    +0.000 OA
ATOM     16  H   UNL     1       2.260   2.008  17.560  0.00  0.00    +0.000 HD
ENDBRANCH   9  15
ENDBRANCH   5   8
BRANCH   6  17
ATOM     17  O   UNL     1       3.210   6.450  17.616  0.00  0.00    +0.000 OA
BRANCH  17  18
ATOM     18  C   UNL     1       3.053   7.880  17.624  0.00  0.00    +0.000 C 
BRANCH  18  19
ATOM     19  C   UNL     1       2.035   8.445  18.596  0.00  0.00    +0.000 A 
ATOM     20  C   UNL     1       1.209   9.516  18.261  0.00  0.00    +0.000 A 
ATOM     21  C   UNL     1       0.408  10.085  19.245  0.00  0.00    +0.000 A 
ATOM     22  C   UNL     1       0.421   9.551  20.526  0.00  0.00    +0.000 A 
ATOM     23  C   UNL     1       1.217   8.446  20.765  0.00  0.00    +0.000 A 
ATOM     24  N   UNL     1       2.017   7.880  19.835  0.00  0.00    +0.000 NA
ENDBRANCH  18  19
ENDBRANCH  17  18
ENDBRANCH   6  17
TORSDOF 5
ENDMDL
MODEL 5
REMARK VINA RESULT:      -7.4      1.995      6.083
REMARK  Name = 
REMARK  6 active torsions:
REMARK  status: ('A' for Active; 'I' for Inactive)
REMARK    1  A    between atoms: C_1  and  C_2
REMARK    2  A    between atoms: C_5  and  C_6
REMARK    3  A    between atoms: N_7  and  O_8
REMARK    4  A    between atoms: C_14  and  O_15
REMARK    5  A    between atoms: O_15  and  C_16
REMARK    6  A    between atoms: C_16  and  C_17
REMARK                            x       y       z     vdW  Elec       q    Type
REMARK                         _______ _______ _______ _____ _____    ______ ____
ROOT
ATOM      1  C   UNL     1       6.969   4.622  15.247  0.00  0.00    +0.000 C 
ATOM      2  C   UNL     1       5.904   5.269  16.085  0.00  0.00    +0.000 A 
ATOM      3  C   UNL     1       6.151   6.419  16.811  0.00  0.00    +0.000 A 
ATOM      4  C   UNL     1       5.151   6.896  17.657  0.00  0.00    +0.000 A 
ATOM      5  C   UNL     1       3.923   6.212  17.794  0.00  0.00    +0.000 A 
ATOM      6  C   UNL     1       3.762   5.085  17.004  0.00  0.00    +0.000 A 
ATOM      7  N   UNL     1       4.723   4.623  16.158  0.00  0.00    +0.000 NA
ENDROOT
BRANCH   5   8
ATOM      8  C   UNL     1       2.989   6.701  18.891  0.00  0.00    +0.000 C 
ATOM      9  N   UNL     1       3.002   5.872  19.904  0.00  0.00    +0.000 NA
ATOM     10  N   UNL     1       2.280   7.908  18.788  0.00  0.00    +0.000 N 
ATOM     11  C   UNL     1       2.206   8.792  17.631  0.00  0.00    +0.000 C 
ATOM     12  C   UNL     1       1.712  10.123  18.181  0.00  0.00    +0.000 C 
ATOM     13  C   UNL     1       0.772   9.702  19.292  0.00  0.00    +0.000 C 
ATOM     14  C   UNL     1       1.403   8.425  19.844  0.00  0.00    +0.000 C 
BRANCH   9  15
ATOM     15  O   UNL     1       2.233   6.250  21.003  0.00  0.00    +0.000 OA
ATOM     16  H   UNL     1       2.385   5.516  21.620  0.00  0.00    +0.000 HD
ENDBRANCH   9  15
ENDBRANCH   5   8
BRANCH   6  17
ATOM     17  O   UNL     1       2.669   4.263  17.142  0.00  0.00    +0.000 OA
BRANCH  17  18
ATOM     18  C   UNL     1       3.014   2.994  17.727  0.00  0.00    +0.000 C 
BRANCH  18  19
ATOM     19  C   UNL     1       2.567   2.762  19.157  0.00  0.00    +0.000 A 
ATOM     20  C   UNL     1       1.232   2.871  19.540  0.00  0.00    +0.000 A 
ATOM     21  C   UNL     1       0.908   2.799  20.891  0.00  0.00    +0.000 A 
ATOM     22  C   UNL     1       1.916   2.583  21.821  0.00  0.00    +0.000 A 
ATOM     23  C   UNL     1       3.208   2.418  21.357  0.00  0.00    +0.000 A 
ATOM     24  N   UNL     1       3.556   2.498  20.055  0.00  0.00    +0.000 NA
ENDBRANCH  18  19
ENDBRANCH  17  18
ENDBRANCH   6  17
TORSDOF 5
ENDMDL
MODEL 6
REMARK VINA RESULT:      -7.2      2.098      4.662
REMARK  Name = 
REMARK  6 active torsions:
REMARK  status: ('A' for Active; 'I' for Inactive)
REMARK    1  A    between atoms: C_1  and  C_2
REMARK    2  A    between atoms: C_5  and  C_6
REMARK    3  A    between atoms: N_7  and  O_8
REMARK    4  A    between atoms: C_14  and  O_15
REMARK    5  A    between atoms: O_15  and  C_16
REMARK    6  A    between atoms: C_16  and  C_17
REMARK                            x       y       z     vdW  Elec       q    Type
REMARK                         _______ _______ _______ _____ _____    ______ ____
ROOT
ATOM      1  C   UNL     1       7.708   7.832  17.293  0.00  0.00    +0.000 C 
ATOM      2  C   UNL     1       6.768   6.760  17.764  0.00  0.00    +0.000 A 
ATOM      3  C   UNL     1       7.227   5.532  18.202  0.00  0.00    +0.000 A 
ATOM      4  C   UNL     1       6.291   4.547  18.512  0.00  0.00    +0.000 A 
ATOM      5  C   UNL     1       4.907   4.781  18.359  0.00  0.00    +0.000 A 
ATOM      6  C   UNL     1       4.547   6.051  17.939  0.00  0.00    +0.000 A 
ATOM      7  N   UNL     1       5.451   7.027  17.655  0.00  0.00    +0.000 NA
ENDROOT
BRANCH   5   8
ATOM      8  C   UNL     1       3.990   3.578  18.527  0.00  0.00    +0.000 C 
ATOM      9  N   UNL     1       4.176   2.723  17.554  0.00  0.00    +0.000 NA
ATOM     10  N   UNL     1       3.124   3.445  19.624  0.00  0.00    +0.000 N 
ATOM     11  C   UNL     1       2.860   4.429  20.665  0.00  0.00    +0.000 C 
ATOM     12  C   UNL     1       2.233   3.641  21.806  0.00  0.00    +0.000 C 
ATOM     13  C   UNL     1       1.429   2.580  21.083  0.00  0.00    +0.000 C 
ATOM     14  C   UNL     1       2.257   2.280  19.834  0.00  0.00    +0.000 C 
BRANCH   9  15
ATOM     15  O   UNL     1       3.437   1.544  17.637  0.00  0.00    +0.000 OA
ATOM     16  H   UNL     1       2.677   1.818  18.177  0.00  0.00    +0.000 HD
ENDBRANCH   9  15
ENDBRANCH   5   8
BRANCH   6  17
ATOM     17  O   UNL     1       3.244   6.360  17.628  0.00  0.00    +0.000 OA
BRANCH  17  18
ATOM     18  C   UNL     1       3.001   7.778  17.656  0.00  0.00    +0.000 C 
BRANCH  18  19
ATOM     19  C   UNL     1       2.104   8.291  18.765  0.00  0.00    +0.000 A 
ATOM     20  C   UNL     1       2.039   7.668  20.010  0.00  0.00    +0.000 A 
ATOM     21  C   UNL     1       1.085   8.093  20.930  0.00  0.00    +0.000 A 
ATOM     22  C   UNL     1       0.246   9.149  20.601  0.00  0.00    +0.000 A 
ATOM     23  C   UNL     1       0.416   9.760  19.371  0.00  0.00    +0.000 A 
ATOM     24  N   UNL     1       1.322   9.361  18.452  0.00  0.00    +0.000 NA
ENDBRANCH  18  19
ENDBRANCH  17  18
ENDBRANCH   6  17
TORSDOF 5
ENDMDL
MODEL 7
REMARK VINA RESULT:      -6.9      1.678      6.027
REMARK  Name = 
REMARK  6 active torsions:
REMARK  status: ('A' for Active; 'I' for Inactive)
REMARK    1  A    between atoms: C_1  and  C_2
REMARK    2  A    between atoms: C_5  and  C_6
REMARK    3  A    between atoms: N_7  and  O_8
REMARK    4  A    between atoms: C_14  and  O_15
REMARK    5  A    between atoms: O_15  and  C_16
REMARK    6  A    between atoms: C_16  and  C_17
REMARK                            x       y       z     vdW  Elec       q    Type
REMARK                         _______ _______ _______ _____ _____    ______ ____
ROOT
ATOM      1  C   UNL     1       3.346   1.572  18.754  0.00  0.00    +0.000 C 
ATOM      2  C   UNL     1       2.994   3.024  18.899  0.00  0.00    +0.000 A 
ATOM      3  C   UNL     1       1.736   3.502  18.583  0.00  0.00    +0.000 A 
ATOM      4  C   UNL     1       1.518   4.878  18.631  0.00  0.00    +0.000 A 
ATOM      5  C   UNL     1       2.560   5.770  18.966  0.00  0.00    +0.000 A 
ATOM      6  C   UNL     1       3.776   5.192  19.291  0.00  0.00    +0.000 A 
ATOM      7  N   UNL     1       3.994   3.849  19.270  0.00  0.00    +0.000 NA
ENDROOT
BRANCH   5   8
ATOM      8  C   UNL     1       2.270   7.254  18.788  0.00  0.00    +0.000 C 
ATOM      9  N   UNL     1       2.625   7.647  17.591  0.00  0.00    +0.000 NA
ATOM     10  N   UNL     1       1.659   8.023  19.791  0.00  0.00    +0.000 N 
ATOM     11  C   UNL     1       1.333   7.605  21.148  0.00  0.00    +0.000 C 
ATOM     12  C   UNL     1       0.313   8.622  21.641  0.00  0.00    +0.000 C 
ATOM     13  C   UNL     1       0.765   9.906  20.976  0.00  0.00    +0.000 C 
ATOM     14  C   UNL     1       1.331   9.444  19.634  0.00  0.00    +0.000 C 
BRANCH   9  15
ATOM     15  O   UNL     1       2.345   8.977  17.286  0.00  0.00    +0.000 OA
ATOM     16  H   UNL     1       1.469   8.912  16.871  0.00  0.00    +0.000 HD
ENDBRANCH   9  15
ENDBRANCH   5   8
BRANCH   6  17
ATOM     17  O   UNL     1       4.898   5.957  19.507  0.00  0.00    +0.000 OA
BRANCH  17  18
ATOM     18  C   UNL     1       6.080   5.357  18.946  0.00  0.00    +0.000 C 
BRANCH  18  19
ATOM     19  C   UNL     1       6.170   5.324  17.433  0.00  0.00    +0.000 A 
ATOM     20  C   UNL     1       5.379   6.140  16.627  0.00  0.00    +0.000 A 
ATOM     21  C   UNL     1       5.399   5.953  15.249  0.00  0.00    +0.000 A 
ATOM     22  C   UNL     1       6.233   4.985  14.705  0.00  0.00    +0.000 A 
ATOM     23  C   UNL     1       7.038   4.260  15.565  0.00  0.00    +0.000 A 
ATOM     24  N   UNL     1       7.031   4.408  16.907  0.00  0.00    +0.000 NA
ENDBRANCH  18  19
ENDBRANCH  17  18
ENDBRANCH   6  17
TORSDOF 5
ENDMDL
MODEL 8
REMARK VINA RESULT:      -6.8      2.110      6.124
REMARK  Name = 
REMARK  6 active torsions:
REMARK  status: ('A' for Active; 'I' for Inactive)
REMARK    1  A    between atoms: C_1  and  C_2
REMARK    2  A    between atoms: C_5  and  C_6
REMARK    3  A    between atoms: N_7  and  O_8
REMARK    4  A    between atoms: C_14  and  O_15
REMARK    5  A    between atoms: O_15  and  C_16
REMARK    6  A    between atoms: C_16  and  C_17
REMARK                            x       y       z     vdW  Elec       q    Type
REMARK                         _______ _______ _______ _____ _____    ______ ____
ROOT
ATOM      1  C   UNL     1       7.421   4.293  16.667  0.00  0.00    +0.000 C 
ATOM      2  C   UNL     1       6.296   5.269  16.855  0.00  0.00    +0.000 A 
ATOM      3  C   UNL     1       6.530   6.606  17.118  0.00  0.00    +0.000 A 
ATOM      4  C   UNL     1       5.439   7.427  17.397  0.00  0.00    +0.000 A 
ATOM      5  C   UNL     1       4.126   6.908  17.439  0.00  0.00    +0.000 A 
ATOM      6  C   UNL     1       3.993   5.562  17.135  0.00  0.00    +0.000 A 
ATOM      7  N   UNL     1       5.049   4.756  16.839  0.00  0.00    +0.000 NA
ENDROOT
BRANCH   5   8
ATOM      8  C   UNL     1       3.040   7.841  17.952  0.00  0.00    +0.000 C 
ATOM      9  N   UNL     1       2.809   8.794  17.085  0.00  0.00    +0.000 NA
ATOM     10  N   UNL     1       2.382   7.623  19.173  0.00  0.00    +0.000 N 
ATOM     11  C   UNL     1       2.689   6.609  20.173  0.00  0.00    +0.000 C 
ATOM     12  C   UNL     1       1.442   6.517  21.041  0.00  0.00    +0.000 C 
ATOM     13  C   UNL     1       0.936   7.944  21.059  0.00  0.00    +0.000 C 
ATOM     14  C   UNL     1       1.305   8.482  19.677  0.00  0.00    +0.000 C 
BRANCH   9  15
ATOM     15  O   UNL     1       1.782   9.676  17.417  0.00  0.00    +0.000 OA
ATOM     16  H   UNL     1       1.147   9.529  16.696  0.00  0.00    +0.000 HD
ENDBRANCH   9  15
ENDBRANCH   5   8
BRANCH   6  17
ATOM     17  O   UNL     1       2.789   4.913  17.269  0.00  0.00    +0.000 OA
BRANCH  17  18
ATOM     18  C   UNL     1       2.954   3.535  17.645  0.00  0.00    +0.000 C 
BRANCH  18  19
ATOM     19  C   UNL     1       2.501   3.154  19.041  0.00  0.00    +0.000 A 
ATOM     20  C   UNL     1       1.159   3.171  19.413  0.00  0.00    +0.000 A 
ATOM     21  C   UNL     1       0.823   2.961  20.747  0.00  0.00    +0.000 A 
ATOM     22  C   UNL     1       1.829   2.703  21.669  0.00  0.00    +0.000 A 
ATOM     23  C   UNL     1       3.133   2.636  21.211  0.00  0.00    +0.000 A 
ATOM     24  N   UNL     1       3.491   2.849  19.927  0.00  0.00    +0.000 NA
ENDBRANCH  18  19
ENDBRANCH  17  18
ENDBRANCH   6  17
TORSDOF 5
ENDMDL
MODEL 9
REMARK VINA RESULT:      -6.8      2.044      2.660
REMARK  Name = 
REMARK  6 active torsions:
REMARK  status: ('A' for Active; 'I' for Inactive)
REMARK    1  A    between atoms: C_1  and  C_2
REMARK    2  A    between atoms: C_5  and  C_6
REMARK    3  A    between atoms: N_7  and  O_8
REMARK    4  A    between atoms: C_14  and  O_15
REMARK    5  A    between atoms: O_15  and  C_16
REMARK    6  A    between atoms: C_16  and  C_17
REMARK                            x       y       z     vdW  Elec       q    Type
REMARK                         _______ _______ _______ _____ _____    ______ ____
ROOT
ATOM      1  C   UNL     1       0.505   2.483  19.306  0.00  0.00    +0.000 C 
ATOM      2  C   UNL     1       1.534   3.351  18.641  0.00  0.00    +0.000 A 
ATOM      3  C   UNL     1       2.322   2.881  17.608  0.00  0.00    +0.000 A 
ATOM      4  C   UNL     1       3.335   3.705  17.119  0.00  0.00    +0.000 A 
ATOM      5  C   UNL     1       3.573   4.979  17.678  0.00  0.00    +0.000 A 
ATOM      6  C   UNL     1       2.712   5.370  18.692  0.00  0.00    +0.000 A 
ATOM      7  N   UNL     1       1.707   4.583  19.161  0.00  0.00    +0.000 NA
ENDROOT
BRANCH   5   8
ATOM      8  C   UNL     1       4.826   5.706  17.211  0.00  0.00    +0.000 C 
ATOM      9  N   UNL     1       4.611   6.294  16.062  0.00  0.00    +0.000 NA
ATOM     10  N   UNL     1       5.999   5.743  17.980  0.00  0.00    +0.000 N 
ATOM     11  C   UNL     1       6.265   5.028  19.222  0.00  0.00    +0.000 C 
ATOM     12  C   UNL     1       7.449   5.749  19.850  0.00  0.00    +0.000 C 
ATOM     13  C   UNL     1       8.262   6.177  18.645  0.00  0.00    +0.000 C 
ATOM     14  C   UNL     1       7.209   6.467  17.576  0.00  0.00    +0.000 C 
BRANCH   9  15
ATOM     15  O   UNL     1       5.670   7.050  15.564  0.00  0.00    +0.000 OA
ATOM     16  H   UNL     1       5.607   7.862  16.094  0.00  0.00    +0.000 HD
ENDBRANCH   9  15
ENDBRANCH   5   8
BRANCH   6  17
ATOM     17  O   UNL     1       2.921   6.528  19.402  0.00  0.00    +0.000 OA
BRANCH  17  18
ATOM     18  C   UNL     1       2.239   7.653  18.819  0.00  0.00    +0.000 C 
BRANCH  18  19
ATOM     19  C   UNL     1       1.479   8.554  19.773  0.00  0.00    +0.000 A 
ATOM     20  C   UNL     1       0.914   9.758  19.359  0.00  0.00    +0.000 A 
ATOM     21  C   UNL     1       0.365  10.610  20.312  0.00  0.00    +0.000 A 
ATOM     22  C   UNL     1       0.360  10.225  21.646  0.00  0.00    +0.000 A 
ATOM     23  C   UNL     1       0.880   8.985  21.970  0.00  0.00    +0.000 A 
ATOM     24  N   UNL     1       1.432   8.143  21.071  0.00  0.00    +0.000 NA
ENDBRANCH  18  19
ENDBRANCH  17  18
ENDBRANCH   6  17
TORSDOF 5
ENDMDL
