MODEL 1
REMARK VINA RESULT:      -9.0      0.000      0.000
REMARK  Name = 
REMARK  5 active torsions:
REMARK  status: ('A' for Active; 'I' for Inactive)
REMARK    1  A    between atoms: C_1  and  C_2
REMARK    2  A    between atoms: C_5  and  N_6
REMARK    3  A    between atoms: C_15  and  C_16
REMARK    4  A    between atoms: C_17  and  C_18
REMARK    5  A    between atoms: N_20  and  O_21
REMARK                            x       y       z     vdW  Elec       q    Type
REMARK                         _______ _______ _______ _____ _____    ______ ____
ROOT
ATOM      1  N   UNL     1       0.563   7.178  20.981  0.00  0.00    +0.000 N 
ATOM      2  C   UNL     1       1.655   6.595  20.438  0.00  0.00    +0.000 A 
ATOM      3  N   UNL     1       2.504   7.133  19.578  0.00  0.00    +0.000 NA
ATOM      4  C   UNL     1       3.406   6.189  19.229  0.00  0.00    +0.000 A 
ATOM      5  C   UNL     1       3.306   4.963  19.831  0.00  0.00    +0.000 A 
ATOM      6  S   UNL     1       1.981   4.912  20.849  0.00  0.00    +0.000 S 
ATOM      7  C   UNL     1       4.197   3.926  19.248  0.00  0.00    +0.000 C 
ATOM      8  C   UNL     1       4.716   4.710  18.048  0.00  0.00    +0.000 A 
ATOM      9  C   UNL     1       5.378   4.237  16.935  0.00  0.00    +0.000 A 
ATOM     10  C   UNL     1       5.587   5.110  15.851  0.00  0.00    +0.000 A 
ATOM     11  C   UNL     1       5.190   6.467  15.952  0.00  0.00    +0.000 A 
ATOM     12  C   UNL     1       4.536   6.953  17.089  0.00  0.00    +0.000 A 
ATOM     13  C   UNL     1       4.285   6.059  18.107  0.00  0.00    +0.000 A 
ATOM     14  H   UNL     1      -0.074   6.568  21.475  0.00  0.00    +0.000 HD
ENDROOT
BRANCH   1  19
ATOM     15  C   UNL     1      -0.373  12.750  21.967  0.00  0.00    +0.000 C 
ATOM     16  C   UNL     1      -0.138  11.300  21.679  0.00  0.00    +0.000 A 
ATOM     17  C   UNL     1       0.286  10.875  20.418  0.00  0.00    +0.000 A 
ATOM     18  C   UNL     1       0.502   9.517  20.162  0.00  0.00    +0.000 A 
ATOM     19  C   UNL     1       0.307   8.549  21.154  0.00  0.00    +0.000 A 
ATOM     20  C   UNL     1      -0.141   8.986  22.410  0.00  0.00    +0.000 A 
ATOM     21  C   UNL     1      -0.354  10.341  22.673  0.00  0.00    +0.000 A 
ENDBRANCH   1  19
BRANCH  10  22
ATOM     22  C   UNL     1       6.154   4.513  14.630  0.00  0.00    +0.000 C 
ATOM     23  C   UNL     1       5.485   4.014  13.581  0.00  0.00    +0.000 C 
BRANCH  23  24
ATOM     24  C   UNL     1       6.276   3.415  12.476  0.00  0.00    +0.000 C 
ATOM     25  O   UNL     1       7.167   4.007  11.877  0.00  0.00    +0.000 OA
ATOM     26  N   UNL     1       5.908   2.134  12.160  0.00  0.00    +0.000 N 
ATOM     27  H   UNL     1       5.115   1.636  12.544  0.00  0.00    +0.000 HD
BRANCH  26  28
ATOM     28  O   UNL     1       6.565   1.554  11.055  0.00  0.00    +0.000 OA
ATOM     29  H   UNL     1       7.476   1.915  11.139  0.00  0.00    +0.000 HD
ENDBRANCH  26  28
ENDBRANCH  23  24
ENDBRANCH  10  22
TORSDOF 4
ENDMDL
MODEL 2
REMARK VINA RESULT:      -8.3      0.762      1.251
REMARK  Name = 
REMARK  5 active torsions:
REMARK  status: ('A' for Active; 'I' for Inactive)
REMARK    1  A    between atoms: C_1  and  C_2
REMARK    2  A    between atoms: C_5  and  N_6
REMARK    3  A    between atoms: C_15  and  C_16
REMARK    4  A    between atoms: C_17  and  C_18
REMARK    5  A    between atoms: N_20  and  O_21
REMARK                            x       y       z     vdW  Elec       q    Type
REMARK                         _______ _______ _______ _____ _____    ______ ____
ROOT
ATOM      1  N   UNL     1       0.917   7.126  20.991  0.00  0.00    +0.000 N 
ATOM      2  C   UNL     1       1.922   6.458  20.383  0.00  0.00    +0.000 A 
ATOM      3  N   UNL     1       2.722   6.910  19.431  0.00  0.00    +0.000 NA
ATOM      4  C   UNL     1       3.535   5.901  19.048  0.00  0.00    +0.000 A 
ATOM      5  C   UNL     1       3.418   4.707  19.710  0.00  0.00    +0.000 A 
ATOM      6  S   UNL     1       2.187   4.775  20.838  0.00  0.00    +0.000 S 
ATOM      7  C   UNL     1       4.194   3.596  19.099  0.00  0.00    +0.000 C 
ATOM      8  C   UNL     1       4.650   4.300  17.827  0.00  0.00    +0.000 A 
ATOM      9  C   UNL     1       5.185   3.746  16.682  0.00  0.00    +0.000 A 
ATOM     10  C   UNL     1       5.348   4.562  15.548  0.00  0.00    +0.000 A 
ATOM     11  C   UNL     1       5.039   5.944  15.624  0.00  0.00    +0.000 A 
ATOM     12  C   UNL     1       4.515   6.511  16.789  0.00  0.00    +0.000 A 
ATOM     13  C   UNL     1       4.304   5.674  17.863  0.00  0.00    +0.000 A 
ATOM     14  H   UNL     1       0.292   6.575  21.564  0.00  0.00    +0.000 HD
ENDROOT
BRANCH   1  19
ATOM     15  C   UNL     1       0.149  12.804  21.256  0.00  0.00    +0.000 C 
ATOM     16  C   UNL     1       0.359  11.323  21.218  0.00  0.00    +0.000 A 
ATOM     17  C   UNL     1       0.137  10.534  22.350  0.00  0.00    +0.000 A 
ATOM     18  C   UNL     1       0.337   9.150  22.300  0.00  0.00    +0.000 A 
ATOM     19  C   UNL     1       0.755   8.516  21.125  0.00  0.00    +0.000 A 
ATOM     20  C   UNL     1       0.995   9.321  20.001  0.00  0.00    +0.000 A 
ATOM     21  C   UNL     1       0.794  10.703  20.043  0.00  0.00    +0.000 A 
ENDBRANCH   1  19
BRANCH  10  22
ATOM     22  C   UNL     1       5.771   3.885  14.311  0.00  0.00    +0.000 C 
ATOM     23  C   UNL     1       5.072   3.752  13.174  0.00  0.00    +0.000 C 
BRANCH  23  24
ATOM     24  C   UNL     1       5.689   2.981  12.067  0.00  0.00    +0.000 C 
ATOM     25  O   UNL     1       5.050   2.474  11.150  0.00  0.00    +0.000 OA
ATOM     26  N   UNL     1       7.049   2.859  12.164  0.00  0.00    +0.000 N 
ATOM     27  H   UNL     1       7.615   3.162  12.947  0.00  0.00    +0.000 HD
BRANCH  26  28
ATOM     28  O   UNL     1       7.673   2.056  11.187  0.00  0.00    +0.000 OA
ATOM     29  H   UNL     1       8.628   2.218  11.359  0.00  0.00    +0.000 HD
ENDBRANCH  26  28
ENDBRANCH  23  24
ENDBRANCH  10  22
TORSDOF 4
ENDMDL
MODEL 3
REMARK VINA RESULT:      -8.3      5.008      9.868
REMARK  Name = 
REMARK  5 active torsions:
REMARK  status: ('A' for Active; 'I' for Inactive)
REMARK    1  A    between atoms: C_1  and  C_2
REMARK    2  A    between atoms: C_5  and  N_6
REMARK    3  A    between atoms: C_15  and  C_16
REMARK    4  A    between atoms: C_17  and  C_18
REMARK    5  A    between atoms: N_20  and  O_21
REMARK                            x       y       z     vdW  Elec       q    Type
REMARK                         _______ _______ _______ _____ _____    ______ ____
ROOT
ATOM      1  N   UNL     1       5.872   3.990  17.195  0.00  0.00    +0.000 N 
ATOM      2  C   UNL     1       4.801   4.450  17.880  0.00  0.00    +0.000 A 
ATOM      3  N   UNL     1       4.037   5.483  17.569  0.00  0.00    +0.000 NA
ATOM      4  C   UNL     1       3.127   5.648  18.556  0.00  0.00    +0.000 A 
ATOM      5  C   UNL     1       3.140   4.745  19.586  0.00  0.00    +0.000 A 
ATOM      6  S   UNL     1       4.385   3.647  19.394  0.00  0.00    +0.000 S 
ATOM      7  C   UNL     1       2.256   5.110  20.724  0.00  0.00    +0.000 C 
ATOM      8  C   UNL     1       1.853   6.508  20.268  0.00  0.00    +0.000 A 
ATOM      9  C   UNL     1       1.256   7.511  21.002  0.00  0.00    +0.000 A 
ATOM     10  C   UNL     1       1.156   8.795  20.437  0.00  0.00    +0.000 A 
ATOM     11  C   UNL     1       1.594   9.015  19.106  0.00  0.00    +0.000 A 
ATOM     12  C   UNL     1       2.183   7.993  18.354  0.00  0.00    +0.000 A 
ATOM     13  C   UNL     1       2.327   6.764  18.958  0.00  0.00    +0.000 A 
ATOM     14  H   UNL     1       6.449   3.307  17.666  0.00  0.00    +0.000 HD
ENDROOT
BRANCH   1  19
ATOM     15  C   UNL     1       7.358   4.683  11.699  0.00  0.00    +0.000 C 
ATOM     16  C   UNL     1       6.939   4.498  13.123  0.00  0.00    +0.000 A 
ATOM     17  C   UNL     1       5.883   3.648  13.459  0.00  0.00    +0.000 A 
ATOM     18  C   UNL     1       5.502   3.484  14.795  0.00  0.00    +0.000 A 
ATOM     19  C   UNL     1       6.164   4.156  15.829  0.00  0.00    +0.000 A 
ATOM     20  C   UNL     1       7.210   5.023  15.477  0.00  0.00    +0.000 A 
ATOM     21  C   UNL     1       7.597   5.188  14.145  0.00  0.00    +0.000 A 
ENDBRANCH   1  19
BRANCH  10  22
ATOM     22  C   UNL     1       0.658   9.862  21.320  0.00  0.00    +0.000 C 
ATOM     23  C   UNL     1       0.086  11.020  20.958  0.00  0.00    +0.000 C 
BRANCH  23  24
ATOM     24  C   UNL     1      -0.296  11.970  22.032  0.00  0.00    +0.000 C 
ATOM     25  O   UNL     1      -0.655  11.623  23.153  0.00  0.00    +0.000 OA
ATOM     26  N   UNL     1      -0.235  13.286  21.659  0.00  0.00    +0.000 N 
ATOM     27  H   UNL     1      -0.050  13.626  20.723  0.00  0.00    +0.000 HD
BRANCH  26  28
ATOM     28  O   UNL     1      -0.678  14.224  22.614  0.00  0.00    +0.000 OA
ATOM     29  H   UNL     1      -0.213  15.045  22.333  0.00  0.00    +0.000 HD
ENDBRANCH  26  28
ENDBRANCH  23  24
ENDBRANCH  10  22
TORSDOF 4
ENDMDL
MODEL 4
REMARK VINA RESULT:      -8.3      4.987      9.920
REMARK  Name = 
REMARK  5 active torsions:
REMARK  status: ('A' for Active; 'I' for Inactive)
REMARK    1  A    between atoms: C_1  and  C_2
REMARK    2  A    between atoms: C_5  and  N_6
REMARK    3  A    between atoms: C_15  and  C_16
REMARK    4  A    between atoms: C_17  and  C_18
REMARK    5  A    between atoms: N_20  and  O_21
REMARK                            x       y       z     vdW  Elec       q    Type
REMARK                         _______ _______ _______ _____ _____    ______ ____
ROOT
ATOM      1  N   UNL     1       5.946   4.160  17.344  0.00  0.00    +0.000 N 
ATOM      2  C   UNL     1       4.853   4.679  17.947  0.00  0.00    +0.000 A 
ATOM      3  N   UNL     1       4.123   5.702  17.535  0.00  0.00    +0.000 NA
ATOM      4  C   UNL     1       3.172   5.943  18.465  0.00  0.00    +0.000 A 
ATOM      5  C   UNL     1       3.120   5.108  19.550  0.00  0.00    +0.000 A 
ATOM      6  S   UNL     1       4.352   3.981  19.487  0.00  0.00    +0.000 S 
ATOM      7  C   UNL     1       2.190   5.558  20.619  0.00  0.00    +0.000 C 
ATOM      8  C   UNL     1       1.835   6.930  20.057  0.00  0.00    +0.000 A 
ATOM      9  C   UNL     1       1.223   7.988  20.697  0.00  0.00    +0.000 A 
ATOM     10  C   UNL     1       1.174   9.235  20.048  0.00  0.00    +0.000 A 
ATOM     11  C   UNL     1       1.678   9.362  18.728  0.00  0.00    +0.000 A 
ATOM     12  C   UNL     1       2.281   8.286  18.071  0.00  0.00    +0.000 A 
ATOM     13  C   UNL     1       2.374   7.095  18.757  0.00  0.00    +0.000 A 
ATOM     14  H   UNL     1       6.487   3.500  17.885  0.00  0.00    +0.000 HD
ENDROOT
BRANCH   1  19
ATOM     15  C   UNL     1       7.117   4.444  11.737  0.00  0.00    +0.000 C 
ATOM     16  C   UNL     1       6.843   4.374  13.206  0.00  0.00    +0.000 A 
ATOM     17  C   UNL     1       7.600   5.115  14.116  0.00  0.00    +0.000 A 
ATOM     18  C   UNL     1       7.333   5.041  15.487  0.00  0.00    +0.000 A 
ATOM     19  C   UNL     1       6.305   4.233  15.987  0.00  0.00    +0.000 A 
ATOM     20  C   UNL     1       5.566   3.477  15.065  0.00  0.00    +0.000 A 
ATOM     21  C   UNL     1       5.825   3.549  13.694  0.00  0.00    +0.000 A 
ENDBRANCH   1  19
BRANCH  10  22
ATOM     22  C   UNL     1       0.654  10.364  20.837  0.00  0.00    +0.000 C 
ATOM     23  C   UNL     1      -0.424  10.373  21.635  0.00  0.00    +0.000 C 
BRANCH  23  24
ATOM     24  C   UNL     1      -0.785  11.652  22.297  0.00  0.00    +0.000 C 
ATOM     25  O   UNL     1      -0.077  12.653  22.277  0.00  0.00    +0.000 OA
ATOM     26  N   UNL     1      -1.981  11.615  22.962  0.00  0.00    +0.000 N 
ATOM     27  H   UNL     1      -2.554  10.792  23.103  0.00  0.00    +0.000 HD
BRANCH  26  28
ATOM     28  O   UNL     1      -2.325  12.775  23.686  0.00  0.00    +0.000 OA
ATOM     29  H   UNL     1      -1.599  12.833  24.348  0.00  0.00    +0.000 HD
ENDBRANCH  26  28
ENDBRANCH  23  24
ENDBRANCH  10  22
TORSDOF 4
ENDMDL
MODEL 5
REMARK VINA RESULT:      -8.2      4.897      9.880
REMARK  Name = 
REMARK  5 active torsions:
REMARK  status: ('A' for Active; 'I' for Inactive)
REMARK    1  A    between atoms: C_1  and  C_2
REMARK    2  A    between atoms: C_5  and  N_6
REMARK    3  A    between atoms: C_15  and  C_16
REMARK    4  A    between atoms: C_17  and  C_18
REMARK    5  A    between atoms: N_20  and  O_21
REMARK                            x       y       z     vdW  Elec       q    Type
REMARK                         _______ _______ _______ _____ _____    ______ ____
ROOT
ATOM      1  N   UNL     1       5.917   3.454  16.314  0.00  0.00    +0.000 N 
ATOM      2  C   UNL     1       4.862   3.844  17.063  0.00  0.00    +0.000 A 
ATOM      3  N   UNL     1       4.180   4.973  16.958  0.00  0.00    +0.000 NA
ATOM      4  C   UNL     1       3.257   5.002  17.945  0.00  0.00    +0.000 A 
ATOM      5  C   UNL     1       3.178   3.912  18.771  0.00  0.00    +0.000 A 
ATOM      6  S   UNL     1       4.348   2.787  18.377  0.00  0.00    +0.000 S 
ATOM      7  C   UNL     1       2.289   4.105  19.947  0.00  0.00    +0.000 C 
ATOM      8  C   UNL     1       1.997   5.592  19.779  0.00  0.00    +0.000 A 
ATOM      9  C   UNL     1       1.451   6.468  20.693  0.00  0.00    +0.000 A 
ATOM     10  C   UNL     1       1.457   7.844  20.398  0.00  0.00    +0.000 A 
ATOM     11  C   UNL     1       1.947   8.294  19.146  0.00  0.00    +0.000 A 
ATOM     12  C   UNL     1       2.484   7.404  18.210  0.00  0.00    +0.000 A 
ATOM     13  C   UNL     1       2.525   6.071  18.554  0.00  0.00    +0.000 A 
ATOM     14  H   UNL     1       6.431   2.650  16.645  0.00  0.00    +0.000 HD
ENDROOT
BRANCH   1  19
ATOM     15  C   UNL     1       7.598   5.180  11.109  0.00  0.00    +0.000 C 
ATOM     16  C   UNL     1       7.129   4.724  12.455  0.00  0.00    +0.000 A 
ATOM     17  C   UNL     1       6.152   3.734  12.581  0.00  0.00    +0.000 A 
ATOM     18  C   UNL     1       5.724   3.317  13.846  0.00  0.00    +0.000 A 
ATOM     19  C   UNL     1       6.259   3.869  15.015  0.00  0.00    +0.000 A 
ATOM     20  C   UNL     1       7.224   4.878  14.875  0.00  0.00    +0.000 A 
ATOM     21  C   UNL     1       7.659   5.296  13.615  0.00  0.00    +0.000 A 
ENDBRANCH   1  19
BRANCH  10  22
ATOM     22  C   UNL     1       1.009   8.746  21.472  0.00  0.00    +0.000 C 
ATOM     23  C   UNL     1      -0.067   9.545  21.470  0.00  0.00    +0.000 C 
BRANCH  23  24
ATOM     24  C   UNL     1      -0.293  10.408  22.657  0.00  0.00    +0.000 C 
ATOM     25  O   UNL     1      -0.024  10.070  23.805  0.00  0.00    +0.000 OA
ATOM     26  N   UNL     1      -0.855  11.621  22.364  0.00  0.00    +0.000 N 
ATOM     27  H   UNL     1      -1.194  11.911  21.455  0.00  0.00    +0.000 HD
BRANCH  26  28
ATOM     28  O   UNL     1      -1.175  12.440  23.466  0.00  0.00    +0.000 OA
ATOM     29  H   UNL     1      -1.590  11.801  24.089  0.00  0.00    +0.000 HD
ENDBRANCH  26  28
ENDBRANCH  23  24
ENDBRANCH  10  22
TORSDOF 4
ENDMDL
MODEL 6
REMARK VINA RESULT:      -8.2      6.487     11.076
REMARK  Name = 
REMARK  5 active torsions:
REMARK  status: ('A' for Active; 'I' for Inactive)
REMARK    1  A    between atoms: C_1  and  C_2
REMARK    2  A    between atoms: C_5  and  N_6
REMARK    3  A    between atoms: C_15  and  C_16
REMARK    4  A    between atoms: C_17  and  C_18
REMARK    5  A    between atoms: N_20  and  O_21
REMARK                            x       y       z     vdW  Elec       q    Type
REMARK                         _______ _______ _______ _____ _____    ______ ____
ROOT
ATOM      1  N   UNL     1       2.386   6.753  18.162  0.00  0.00    +0.000 N 
ATOM      2  C   UNL     1       2.024   7.884  18.809  0.00  0.00    +0.000 A 
ATOM      3  N   UNL     1       1.745   8.015  20.095  0.00  0.00    +0.000 NA
ATOM      4  C   UNL     1       1.354   9.290  20.315  0.00  0.00    +0.000 A 
ATOM      5  C   UNL     1       1.372  10.150  19.249  0.00  0.00    +0.000 A 
ATOM      6  S   UNL     1       1.830   9.353  17.854  0.00  0.00    +0.000 S 
ATOM      7  C   UNL     1       0.737  11.467  19.521  0.00  0.00    +0.000 C 
ATOM      8  C   UNL     1       0.158  11.168  20.899  0.00  0.00    +0.000 A 
ATOM      9  C   UNL     1      -0.790  11.879  21.604  0.00  0.00    +0.000 A 
ATOM     10  C   UNL     1      -1.330  11.311  22.773  0.00  0.00    +0.000 A 
ATOM     11  C   UNL     1      -0.838  10.067  23.244  0.00  0.00    +0.000 A 
ATOM     12  C   UNL     1       0.136   9.354  22.539  0.00  0.00    +0.000 A 
ATOM     13  C   UNL     1       0.598   9.904  21.364  0.00  0.00    +0.000 A 
ATOM     14  H   UNL     1       2.384   6.792  17.153  0.00  0.00    +0.000 HD
ENDROOT
BRANCH   1  19
ATOM     15  C   UNL     1       4.639   1.891  20.206  0.00  0.00    +0.000 C 
ATOM     16  C   UNL     1       4.075   3.176  19.688  0.00  0.00    +0.000 A 
ATOM     17  C   UNL     1       4.909   4.246  19.354  0.00  0.00    +0.000 A 
ATOM     18  C   UNL     1       4.368   5.442  18.869  0.00  0.00    +0.000 A 
ATOM     19  C   UNL     1       2.989   5.602  18.700  0.00  0.00    +0.000 A 
ATOM     20  C   UNL     1       2.160   4.528  19.059  0.00  0.00    +0.000 A 
ATOM     21  C   UNL     1       2.693   3.330  19.540  0.00  0.00    +0.000 A 
ENDBRANCH   1  19
BRANCH  10  22
ATOM     22  C   UNL     1      -2.448  12.038  23.397  0.00  0.00    +0.000 C 
ATOM     23  C   UNL     1      -3.563  12.485  22.802  0.00  0.00    +0.000 C 
BRANCH  23  24
ATOM     24  C   UNL     1      -4.537  13.240  23.630  0.00  0.00    +0.000 C 
ATOM     25  O   UNL     1      -4.267  14.281  24.219  0.00  0.00    +0.000 OA
ATOM     26  N   UNL     1      -5.774  12.658  23.704  0.00  0.00    +0.000 N 
ATOM     27  H   UNL     1      -6.023  11.751  23.329  0.00  0.00    +0.000 HD
BRANCH  26  28
ATOM     28  O   UNL     1      -6.707  13.286  24.554  0.00  0.00    +0.000 OA
ATOM     29  H   UNL     1      -6.526  12.854  25.420  0.00  0.00    +0.000 HD
ENDBRANCH  26  28
ENDBRANCH  23  24
ENDBRANCH  10  22
TORSDOF 4
ENDMDL
MODEL 7
REMARK VINA RESULT:      -7.9      6.357     11.043
REMARK  Name = 
REMARK  5 active torsions:
REMARK  status: ('A' for Active; 'I' for Inactive)
REMARK    1  A    between atoms: C_1  and  C_2
REMARK    2  A    between atoms: C_5  and  N_6
REMARK    3  A    between atoms: C_15  and  C_16
REMARK    4  A    between atoms: C_17  and  C_18
REMARK    5  A    between atoms: N_20  and  O_21
REMARK                            x       y       z     vdW  Elec       q    Type
REMARK                         _______ _______ _______ _____ _____    ______ ____
ROOT
ATOM      1  N   UNL     1       2.372   6.494  18.049  0.00  0.00    +0.000 N 
ATOM      2  C   UNL     1       2.054   7.620  18.726  0.00  0.00    +0.000 A 
ATOM      3  N   UNL     1       1.769   7.725  20.013  0.00  0.00    +0.000 NA
ATOM      4  C   UNL     1       1.432   9.010  20.268  0.00  0.00    +0.000 A 
ATOM      5  C   UNL     1       1.497   9.899  19.228  0.00  0.00    +0.000 A 
ATOM      6  S   UNL     1       1.933   9.124  17.813  0.00  0.00    +0.000 S 
ATOM      7  C   UNL     1       0.919  11.234  19.534  0.00  0.00    +0.000 C 
ATOM      8  C   UNL     1       0.314  10.920  20.898  0.00  0.00    +0.000 A 
ATOM      9  C   UNL     1      -0.609  11.651  21.617  0.00  0.00    +0.000 A 
ATOM     10  C   UNL     1      -1.183  11.073  22.764  0.00  0.00    +0.000 A 
ATOM     11  C   UNL     1      -0.752   9.796  23.201  0.00  0.00    +0.000 A 
ATOM     12  C   UNL     1       0.198   9.061  22.483  0.00  0.00    +0.000 A 
ATOM     13  C   UNL     1       0.694   9.624  21.329  0.00  0.00    +0.000 A 
ATOM     14  H   UNL     1       2.381   6.562  17.041  0.00  0.00    +0.000 HD
ENDROOT
BRANCH   1  19
ATOM     15  C   UNL     1       4.817   1.797  20.253  0.00  0.00    +0.000 C 
ATOM     16  C   UNL     1       4.155   3.004  19.666  0.00  0.00    +0.000 A 
ATOM     17  C   UNL     1       2.764   3.087  19.568  0.00  0.00    +0.000 A 
ATOM     18  C   UNL     1       2.158   4.221  19.018  0.00  0.00    +0.000 A 
ATOM     19  C   UNL     1       2.918   5.302  18.557  0.00  0.00    +0.000 A 
ATOM     20  C   UNL     1       4.315   5.198  18.640  0.00  0.00    +0.000 A 
ATOM     21  C   UNL     1       4.926   4.069  19.192  0.00  0.00    +0.000 A 
ENDBRANCH   1  19
BRANCH  10  22
ATOM     22  C   UNL     1      -2.275  11.830  23.400  0.00  0.00    +0.000 C 
ATOM     23  C   UNL     1      -3.326  12.407  22.799  0.00  0.00    +0.000 C 
BRANCH  23  24
ATOM     24  C   UNL     1      -4.280  13.163  23.647  0.00  0.00    +0.000 C 
ATOM     25  O   UNL     1      -5.311  12.684  24.107  0.00  0.00    +0.000 OA
ATOM     26  N   UNL     1      -3.922  14.468  23.859  0.00  0.00    +0.000 N 
ATOM     27  H   UNL     1      -3.144  14.946  23.422  0.00  0.00    +0.000 HD
BRANCH  26  28
ATOM     28  O   UNL     1      -4.843  15.255  24.581  0.00  0.00    +0.000 OA
ATOM     29  H   UNL     1      -4.667  14.985  25.511  0.00  0.00    +0.000 HD
ENDBRANCH  26  28
ENDBRANCH  23  24
ENDBRANCH  10  22
TORSDOF 4
ENDMDL
MODEL 8
REMARK VINA RESULT:      -7.9      1.226      1.479
REMARK  Name = 
REMARK  5 active torsions:
REMARK  status: ('A' for Active; 'I' for Inactive)
REMARK    1  A    between atoms: C_1  and  C_2
REMARK    2  A    between atoms: C_5  and  N_6
REMARK    3  A    between atoms: C_15  and  C_16
REMARK    4  A    between atoms: C_17  and  C_18
REMARK    5  A    between atoms: N_20  and  O_21
REMARK                            x       y       z     vdW  Elec       q    Type
REMARK                         _______ _______ _______ _____ _____    ______ ____
ROOT
ATOM      1  N   UNL     1       1.189   7.966  19.804  0.00  0.00    +0.000 N 
ATOM      2  C   UNL     1       2.194   7.169  19.375  0.00  0.00    +0.000 A 
ATOM      3  N   UNL     1       3.093   7.447  18.445  0.00  0.00    +0.000 NA
ATOM      4  C   UNL     1       3.867   6.353  18.267  0.00  0.00    +0.000 A 
ATOM      5  C   UNL     1       3.621   5.266  19.064  0.00  0.00    +0.000 A 
ATOM      6  S   UNL     1       2.313   5.551  20.064  0.00  0.00    +0.000 S 
ATOM      7  C   UNL     1       4.370   4.044  18.671  0.00  0.00    +0.000 C 
ATOM      8  C   UNL     1       4.969   4.546  17.362  0.00  0.00    +0.000 A 
ATOM      9  C   UNL     1       5.554   3.816  16.350  0.00  0.00    +0.000 A 
ATOM     10  C   UNL     1       5.858   4.463  15.138  0.00  0.00    +0.000 A 
ATOM     11  C   UNL     1       5.634   5.857  15.008  0.00  0.00    +0.000 A 
ATOM     12  C   UNL     1       5.058   6.602  16.041  0.00  0.00    +0.000 A 
ATOM     13  C   UNL     1       4.710   5.929  17.191  0.00  0.00    +0.000 A 
ATOM     14  H   UNL     1       0.487   7.531  20.386  0.00  0.00    +0.000 HD
ENDROOT
BRANCH   1  19
ATOM     15  C   UNL     1       0.962  13.697  19.839  0.00  0.00    +0.000 C 
ATOM     16  C   UNL     1       1.012  12.202  19.798  0.00  0.00    +0.000 A 
ATOM     17  C   UNL     1       1.377  11.524  18.633  0.00  0.00    +0.000 A 
ATOM     18  C   UNL     1       1.420  10.126  18.609  0.00  0.00    +0.000 A 
ATOM     19  C   UNL     1       1.107   9.368  19.743  0.00  0.00    +0.000 A 
ATOM     20  C   UNL     1       0.721  10.059  20.901  0.00  0.00    +0.000 A 
ATOM     21  C   UNL     1       0.680  11.455  20.933  0.00  0.00    +0.000 A 
ENDBRANCH   1  19
BRANCH  10  22
ATOM     22  C   UNL     1       6.332   3.605  14.039  0.00  0.00    +0.000 C 
ATOM     23  C   UNL     1       5.907   3.600  12.767  0.00  0.00    +0.000 C 
BRANCH  23  24
ATOM     24  C   UNL     1       6.503   2.605  11.841  0.00  0.00    +0.000 C 
ATOM     25  O   UNL     1       7.499   2.820  11.158  0.00  0.00    +0.000 OA
ATOM     26  N   UNL     1       5.826   1.415  11.793  0.00  0.00    +0.000 N 
ATOM     27  H   UNL     1       4.944   1.219  12.249  0.00  0.00    +0.000 HD
BRANCH  26  28
ATOM     28  O   UNL     1       6.297   0.470  10.858  0.00  0.00    +0.000 OA
ATOM     29  H   UNL     1       7.036   0.953  10.425  0.00  0.00    +0.000 HD
ENDBRANCH  26  28
ENDBRANCH  23  24
ENDBRANCH  10  22
TORSDOF 4
ENDMDL
MODEL 9
REMARK VINA RESULT:      -7.9      5.149      9.899
REMARK  Name = 
REMARK  5 active torsions:
REMARK  status: ('A' for Active; 'I' for Inactive)
REMARK    1  A    between atoms: C_1  and  C_2
REMARK    2  A    between atoms: C_5  and  N_6
REMARK    3  A    between atoms: C_15  and  C_16
REMARK    4  A    between atoms: C_17  and  C_18
REMARK    5  A    between atoms: N_20  and  O_21
REMARK                            x       y       z     vdW  Elec       q    Type
REMARK                         _______ _______ _______ _____ _____    ______ ____
ROOT
ATOM      1  N   UNL     1       5.697   4.514  17.542  0.00  0.00    +0.000 N 
ATOM      2  C   UNL     1       4.614   5.132  18.064  0.00  0.00    +0.000 A 
ATOM      3  N   UNL     1       3.950   6.153  17.548  0.00  0.00    +0.000 NA
ATOM      4  C   UNL     1       2.983   6.513  18.422  0.00  0.00    +0.000 A 
ATOM      5  C   UNL     1       2.855   5.770  19.566  0.00  0.00    +0.000 A 
ATOM      6  S   UNL     1       4.030   4.584  19.635  0.00  0.00    +0.000 S 
ATOM      7  C   UNL     1       1.917   6.349  20.563  0.00  0.00    +0.000 C 
ATOM      8  C   UNL     1       1.649   7.687  19.884  0.00  0.00    +0.000 A 
ATOM      9  C   UNL     1       1.071   8.820  20.417  0.00  0.00    +0.000 A 
ATOM     10  C   UNL     1       1.106  10.012  19.670  0.00  0.00    +0.000 A 
ATOM     11  C   UNL     1       1.656  10.010  18.364  0.00  0.00    +0.000 A 
ATOM     12  C   UNL     1       2.225   8.856  17.814  0.00  0.00    +0.000 A 
ATOM     13  C   UNL     1       2.236   7.721  18.595  0.00  0.00    +0.000 A 
ATOM     14  H   UNL     1       6.188   3.875  18.152  0.00  0.00    +0.000 HD
ENDROOT
BRANCH   1  19
ATOM     15  C   UNL     1       7.055   4.299  11.974  0.00  0.00    +0.000 C 
ATOM     16  C   UNL     1       6.733   4.358  13.434  0.00  0.00    +0.000 A 
ATOM     17  C   UNL     1       7.513   5.111  14.315  0.00  0.00    +0.000 A 
ATOM     18  C   UNL     1       7.199   5.157  15.677  0.00  0.00    +0.000 A 
ATOM     19  C   UNL     1       6.102   4.462  16.197  0.00  0.00    +0.000 A 
ATOM     20  C   UNL     1       5.339   3.691  15.306  0.00  0.00    +0.000 A 
ATOM     21  C   UNL     1       5.644   3.644  13.944  0.00  0.00    +0.000 A 
ENDBRANCH   1  19
BRANCH  10  22
ATOM     22  C   UNL     1       0.619  11.224  20.350  0.00  0.00    +0.000 C 
ATOM     23  C   UNL     1      -0.155  11.291  21.443  0.00  0.00    +0.000 C 
BRANCH  23  24
ATOM     24  C   UNL     1      -0.561  12.636  21.923  0.00  0.00    +0.000 C 
ATOM     25  O   UNL     1      -0.331  13.054  23.053  0.00  0.00    +0.000 OA
ATOM     26  N   UNL     1      -1.245  13.375  20.996  0.00  0.00    +0.000 N 
ATOM     27  H   UNL     1      -1.556  13.045  20.090  0.00  0.00    +0.000 HD
BRANCH  26  28
ATOM     28  O   UNL     1      -1.736  14.622  21.434  0.00  0.00    +0.000 OA
ATOM     29  H   UNL     1      -0.907  15.113  21.638  0.00  0.00    +0.000 HD
ENDBRANCH  26  28
ENDBRANCH  23  24
ENDBRANCH  10  22
TORSDOF 4
ENDMDL
