MODEL 1
REMARK VINA RESULT:      -7.5      0.000      0.000
REMARK  Name = 
REMARK  8 active torsions:
REMARK  status: ('A' for Active; 'I' for Inactive)
REMARK    1  A    between atoms: C_1  and  C_2
REMARK    2  A    between atoms: C_2  and  C_3
REMARK    3  A    between atoms: C_3  and  C_4
REMARK    4  A    between atoms: C_4  and  C_5
REMARK    5  A    between atoms: C_5  and  O_7
REMARK    6  A    between atoms: O_7  and  C_8
REMARK    7  A    between atoms: C_8  and  C_9
REMARK    8  A    between atoms: C_18  and  N_19
REMARK                            x       y       z     vdW  Elec       q    Type
REMARK                         _______ _______ _______ _____ _____    ______ ____
ROOT
ATOM      1  C   UNL     1       3.699   4.408  18.144  0.00  0.00    +0.000 C 
ATOM      2  C   UNL     1       2.848   3.289  17.539  0.00  0.00    +0.000 C 
ATOM      3  C   UNL     1       4.297   5.216  16.993  0.00  0.00    +0.000 A 
ATOM      4  C   UNL     1       5.229   4.754  16.072  0.00  0.00    +0.000 A 
ATOM      5  C   UNL     1       5.680   5.630  15.099  0.00  0.00    +0.000 A 
ATOM      6  C   UNL     1       5.185   6.939  15.063  0.00  0.00    +0.000 A 
ATOM      7  C   UNL     1       4.236   7.378  15.994  0.00  0.00    +0.000 A 
ATOM      8  C   UNL     1       3.765   6.529  16.971  0.00  0.00    +0.000 A 
ATOM      9  C   UNL     1       2.924   6.719  18.145  0.00  0.00    +0.000 A 
ATOM     10  C   UNL     1       2.892   5.490  18.868  0.00  0.00    +0.000 A 
ATOM     11  C   UNL     1       2.401   5.486  20.157  0.00  0.00    +0.000 A 
ATOM     12  N   UNL     1       2.182   6.627  20.815  0.00  0.00    +0.000 NA
ATOM     13  C   UNL     1       2.022   7.733  20.080  0.00  0.00    +0.000 A 
ATOM     14  C   UNL     1       1.428   8.751  20.771  0.00  0.00    +0.000 A 
ATOM     15  C   UNL     1       0.469   9.472  20.102  0.00  0.00    +0.000 A 
ATOM     16  C   UNL     1       0.624   9.648  18.736  0.00  0.00    +0.000 A 
ATOM     17 BR   UNL     1      -0.586  10.795  17.855  0.00  0.00    +0.000 Br
ATOM     18  C   UNL     1       1.607   8.926  18.038  0.00  0.00    +0.000 A 
ATOM     19  C   UNL     1       2.224   7.820  18.702  0.00  0.00    +0.000 A 
ENDROOT
BRANCH  11  20
ATOM     20  N   UNL     1       1.935   4.334  20.832  0.00  0.00    +0.000 N 
ATOM     21  C   UNL     1       0.886   3.541  20.417  0.00  0.00    +0.000 A 
ATOM     22  C   UNL     1       0.902   2.438  21.234  0.00  0.00    +0.000 A 
ATOM     23  N   UNL     1       1.979   2.476  22.077  0.00  0.00    +0.000 NA
ATOM     24  C   UNL     1       2.622   3.575  21.751  0.00  0.00    +0.000 A 
ENDBRANCH  11  20
BRANCH   1  25
ATOM     25  O   UNL     1       4.734   4.042  19.082  0.00  0.00    +0.000 OA
BRANCH  25  26
ATOM     26  C   UNL     1       6.028   4.334  18.849  0.00  0.00    +0.000 C 
ATOM     27  O   UNL     1       6.821   3.660  18.205  0.00  0.00    +0.000 OA
BRANCH  26  28
ATOM     28  C   UNL     1       6.374   5.700  19.396  0.00  0.00    +0.000 C 
BRANCH  28  29
ATOM     29  C   UNL     1       7.720   6.233  18.929  0.00  0.00    +0.000 C 
BRANCH  29  31
ATOM     30  C   UNL     1       8.125   8.526  18.002  0.00  0.00    +0.000 C 
ATOM     31  C   UNL     1       7.596   7.135  17.703  0.00  0.00    +0.000 C 
ENDBRANCH  29  31
ENDBRANCH  28  29
ENDBRANCH  26  28
ENDBRANCH  25  26
ENDBRANCH   1  25
TORSDOF 6
ENDMDL
MODEL 2
REMARK VINA RESULT:      -6.9      6.588      9.646
REMARK  Name = 
REMARK  8 active torsions:
REMARK  status: ('A' for Active; 'I' for Inactive)
REMARK    1  A    between atoms: C_1  and  C_2
REMARK    2  A    between atoms: C_2  and  C_3
REMARK    3  A    between atoms: C_3  and  C_4
REMARK    4  A    between atoms: C_4  and  C_5
REMARK    5  A    between atoms: C_5  and  O_7
REMARK    6  A    between atoms: O_7  and  C_8
REMARK    7  A    between atoms: C_8  and  C_9
REMARK    8  A    between atoms: C_18  and  N_19
REMARK                            x       y       z     vdW  Elec       q    Type
REMARK                         _______ _______ _______ _____ _____    ______ ____
ROOT
ATOM      1  C   UNL     1      -1.370  12.126  19.041  0.00  0.00    +0.000 C 
ATOM      2  C   UNL     1      -0.758  12.843  17.835  0.00  0.00    +0.000 C 
ATOM      3  C   UNL     1      -1.041  12.945  20.289  0.00  0.00    +0.000 A 
ATOM      4  C   UNL     1       0.227  13.149  20.819  0.00  0.00    +0.000 A 
ATOM      5  C   UNL     1       0.342  13.909  21.971  0.00  0.00    +0.000 A 
ATOM      6  C   UNL     1      -0.806  14.452  22.560  0.00  0.00    +0.000 A 
ATOM      7  C   UNL     1      -2.072  14.243  22.000  0.00  0.00    +0.000 A 
ATOM      8  C   UNL     1      -2.219  13.496  20.852  0.00  0.00    +0.000 A 
ATOM      9  C   UNL     1      -3.375  12.981  20.131  0.00  0.00    +0.000 A 
ATOM     10  C   UNL     1      -2.901  12.146  19.077  0.00  0.00    +0.000 A 
ATOM     11  C   UNL     1      -3.792  11.317  18.429  0.00  0.00    +0.000 A 
ATOM     12  N   UNL     1      -5.016  11.105  18.916  0.00  0.00    +0.000 NA
ATOM     13  C   UNL     1      -5.503  12.023  19.760  0.00  0.00    +0.000 A 
ATOM     14  C   UNL     1      -6.860  11.951  19.901  0.00  0.00    +0.000 A 
ATOM     15  C   UNL     1      -7.542  13.143  19.922  0.00  0.00    +0.000 A 
ATOM     16  C   UNL     1      -6.911  14.242  20.482  0.00  0.00    +0.000 A 
ATOM     17 BR   UNL     1      -7.916  15.825  20.682  0.00  0.00    +0.000 Br
ATOM     18  C   UNL     1      -5.546  14.182  20.810  0.00  0.00    +0.000 A 
ATOM     19  C   UNL     1      -4.780  13.091  20.292  0.00  0.00    +0.000 A 
ENDROOT
BRANCH  11  20
ATOM     20  N   UNL     1      -3.579  10.760  17.146  0.00  0.00    +0.000 N 
ATOM     21  C   UNL     1      -3.623  11.461  15.959  0.00  0.00    +0.000 A 
ATOM     22  C   UNL     1      -3.167  10.597  14.995  0.00  0.00    +0.000 A 
ATOM     23  N   UNL     1      -2.755   9.419  15.556  0.00  0.00    +0.000 NA
ATOM     24  C   UNL     1      -2.932   9.583  16.849  0.00  0.00    +0.000 A 
ENDBRANCH  11  20
BRANCH   1  25
ATOM     25  O   UNL     1      -1.023  10.740  19.255  0.00  0.00    +0.000 OA
BRANCH  25  26
ATOM     26  C   UNL     1       0.237  10.298  19.087  0.00  0.00    +0.000 C 
ATOM     27  O   UNL     1       0.974  10.541  18.140  0.00  0.00    +0.000 OA
BRANCH  26  28
ATOM     28  C   UNL     1       0.699   9.529  20.304  0.00  0.00    +0.000 C 
BRANCH  28  29
ATOM     29  C   UNL     1      -0.395   9.272  21.329  0.00  0.00    +0.000 C 
BRANCH  29  31
ATOM     30  C   UNL     1      -1.293  10.711  23.174  0.00  0.00    +0.000 C 
ATOM     31  C   UNL     1      -0.094   9.923  22.677  0.00  0.00    +0.000 C 
ENDBRANCH  29  31
ENDBRANCH  28  29
ENDBRANCH  26  28
ENDBRANCH  25  26
ENDBRANCH   1  25
TORSDOF 6
ENDMDL
MODEL 3
REMARK VINA RESULT:      -6.9      2.397      4.980
REMARK  Name = 
REMARK  8 active torsions:
REMARK  status: ('A' for Active; 'I' for Inactive)
REMARK    1  A    between atoms: C_1  and  C_2
REMARK    2  A    between atoms: C_2  and  C_3
REMARK    3  A    between atoms: C_3  and  C_4
REMARK    4  A    between atoms: C_4  and  C_5
REMARK    5  A    between atoms: C_5  and  O_7
REMARK    6  A    between atoms: O_7  and  C_8
REMARK    7  A    between atoms: C_8  and  C_9
REMARK    8  A    between atoms: C_18  and  N_19
REMARK                            x       y       z     vdW  Elec       q    Type
REMARK                         _______ _______ _______ _____ _____    ______ ____
ROOT
ATOM      1  C   UNL     1       4.112   4.211  18.139  0.00  0.00    +0.000 C 
ATOM      2  C   UNL     1       5.325   3.775  18.965  0.00  0.00    +0.000 C 
ATOM      3  C   UNL     1       2.892   3.458  18.667  0.00  0.00    +0.000 A 
ATOM      4  C   UNL     1       2.683   2.086  18.590  0.00  0.00    +0.000 A 
ATOM      5  C   UNL     1       1.507   1.570  19.107  0.00  0.00    +0.000 A 
ATOM      6  C   UNL     1       0.573   2.432  19.695  0.00  0.00    +0.000 A 
ATOM      7  C   UNL     1       0.810   3.809  19.773  0.00  0.00    +0.000 A 
ATOM      8  C   UNL     1       1.973   4.352  19.272  0.00  0.00    +0.000 A 
ATOM      9  C   UNL     1       2.435   5.717  19.063  0.00  0.00    +0.000 A 
ATOM     10  C   UNL     1       3.680   5.661  18.371  0.00  0.00    +0.000 A 
ATOM     11  C   UNL     1       4.183   6.815  17.807  0.00  0.00    +0.000 A 
ATOM     12  N   UNL     1       3.430   7.910  17.689  0.00  0.00    +0.000 NA
ATOM     13  C   UNL     1       2.372   8.012  18.502  0.00  0.00    +0.000 A 
ATOM     14  C   UNL     1       1.897   9.289  18.600  0.00  0.00    +0.000 A 
ATOM     15  C   UNL     1       1.537   9.718  19.855  0.00  0.00    +0.000 A 
ATOM     16  C   UNL     1       1.013   8.784  20.735  0.00  0.00    +0.000 A 
ATOM     17 BR   UNL     1       0.345   9.409  22.384  0.00  0.00    +0.000 Br
ATOM     18  C   UNL     1       1.060   7.415  20.422  0.00  0.00    +0.000 A 
ATOM     19  C   UNL     1       1.903   7.002  19.343  0.00  0.00    +0.000 A 
ENDROOT
BRANCH  11  20
ATOM     20  N   UNL     1       5.542   7.011  17.464  0.00  0.00    +0.000 N 
ATOM     21  C   UNL     1       6.607   6.867  18.327  0.00  0.00    +0.000 A 
ATOM     22  C   UNL     1       7.735   6.948  17.548  0.00  0.00    +0.000 A 
ATOM     23  N   UNL     1       7.404   7.042  16.224  0.00  0.00    +0.000 NA
ATOM     24  C   UNL     1       6.091   6.988  16.202  0.00  0.00    +0.000 A 
ENDBRANCH  11  20
BRANCH   1  25
ATOM     25  O   UNL     1       4.187   4.083  16.702  0.00  0.00    +0.000 OA
BRANCH  25  26
ATOM     26  C   UNL     1       5.367   3.922  16.073  0.00  0.00    +0.000 C 
ATOM     27  O   UNL     1       6.454   3.734  16.602  0.00  0.00    +0.000 OA
BRANCH  26  28
ATOM     28  C   UNL     1       5.171   3.883  14.574  0.00  0.00    +0.000 C 
BRANCH  28  29
ATOM     29  C   UNL     1       6.443   4.119  13.775  0.00  0.00    +0.000 C 
BRANCH  29  31
ATOM     30  C   UNL     1       4.949   3.319  11.929  0.00  0.00    +0.000 C 
ATOM     31  C   UNL     1       6.387   3.483  12.388  0.00  0.00    +0.000 C 
ENDBRANCH  29  31
ENDBRANCH  28  29
ENDBRANCH  26  28
ENDBRANCH  25  26
ENDBRANCH   1  25
TORSDOF 6
ENDMDL
MODEL 4
REMARK VINA RESULT:      -6.7      2.347      4.963
REMARK  Name = 
REMARK  8 active torsions:
REMARK  status: ('A' for Active; 'I' for Inactive)
REMARK    1  A    between atoms: C_1  and  C_2
REMARK    2  A    between atoms: C_2  and  C_3
REMARK    3  A    between atoms: C_3  and  C_4
REMARK    4  A    between atoms: C_4  and  C_5
REMARK    5  A    between atoms: C_5  and  O_7
REMARK    6  A    between atoms: O_7  and  C_8
REMARK    7  A    between atoms: C_8  and  C_9
REMARK    8  A    between atoms: C_18  and  N_19
REMARK                            x       y       z     vdW  Elec       q    Type
REMARK                         _______ _______ _______ _____ _____    ______ ____
ROOT
ATOM      1  C   UNL     1       4.142   4.669  18.529  0.00  0.00    +0.000 C 
ATOM      2  C   UNL     1       5.390   4.453  19.390  0.00  0.00    +0.000 C 
ATOM      3  C   UNL     1       2.955   4.046  19.262  0.00  0.00    +0.000 A 
ATOM      4  C   UNL     1       2.772   2.692  19.514  0.00  0.00    +0.000 A 
ATOM      5  C   UNL     1       1.624   2.298  20.180  0.00  0.00    +0.000 A 
ATOM      6  C   UNL     1       0.692   3.261  20.584  0.00  0.00    +0.000 A 
ATOM      7  C   UNL     1       0.904   4.621  20.331  0.00  0.00    +0.000 A 
ATOM      8  C   UNL     1       2.039   5.046  19.675  0.00  0.00    +0.000 A 
ATOM      9  C   UNL     1       2.466   6.330  19.138  0.00  0.00    +0.000 A 
ATOM     10  C   UNL     1       3.690   6.129  18.433  0.00  0.00    +0.000 A 
ATOM     11  C   UNL     1       4.151   7.125  17.598  0.00  0.00    +0.000 A 
ATOM     12  N   UNL     1       3.373   8.154  17.256  0.00  0.00    +0.000 NA
ATOM     13  C   UNL     1       2.340   8.430  18.060  0.00  0.00    +0.000 A 
ATOM     14  C   UNL     1       1.843   9.689  17.876  0.00  0.00    +0.000 A 
ATOM     15  C   UNL     1       1.515  10.395  19.007  0.00  0.00    +0.000 A 
ATOM     16  C   UNL     1       1.039   9.686  20.099  0.00  0.00    +0.000 A 
ATOM     17 BR   UNL     1       0.412  10.670  21.580  0.00  0.00    +0.000 Br
ATOM     18  C   UNL     1       1.103   8.282  20.113  0.00  0.00    +0.000 A 
ATOM     19  C   UNL     1       1.918   7.639  19.129  0.00  0.00    +0.000 A 
ENDROOT
BRANCH  11  20
ATOM     20  N   UNL     1       5.493   7.251  17.169  0.00  0.00    +0.000 N 
ATOM     21  C   UNL     1       6.525   7.760  17.930  0.00  0.00    +0.000 A 
ATOM     22  C   UNL     1       7.673   7.516  17.218  0.00  0.00    +0.000 A 
ATOM     23  N   UNL     1       7.398   6.791  16.090  0.00  0.00    +0.000 NA
ATOM     24  C   UNL     1       6.102   6.575  16.137  0.00  0.00    +0.000 A 
ENDBRANCH  11  20
BRANCH   1  25
ATOM     25  O   UNL     1       4.174   4.211  17.160  0.00  0.00    +0.000 OA
BRANCH  25  26
ATOM     26  C   UNL     1       4.855   3.105  16.806  0.00  0.00    +0.000 C 
ATOM     27  O   UNL     1       4.616   1.958  17.161  0.00  0.00    +0.000 OA
BRANCH  26  28
ATOM     28  C   UNL     1       5.920   3.438  15.786  0.00  0.00    +0.000 C 
BRANCH  28  29
ATOM     29  C   UNL     1       5.376   3.989  14.476  0.00  0.00    +0.000 C 
BRANCH  29  31
ATOM     30  C   UNL     1       5.745   3.179  12.133  0.00  0.00    +0.000 C 
ATOM     31  C   UNL     1       6.378   3.864  13.331  0.00  0.00    +0.000 C 
ENDBRANCH  29  31
ENDBRANCH  28  29
ENDBRANCH  26  28
ENDBRANCH  25  26
ENDBRANCH   1  25
TORSDOF 6
ENDMDL
MODEL 5
REMARK VINA RESULT:      -6.6      7.790     11.509
REMARK  Name = 
REMARK  8 active torsions:
REMARK  status: ('A' for Active; 'I' for Inactive)
REMARK    1  A    between atoms: C_1  and  C_2
REMARK    2  A    between atoms: C_2  and  C_3
REMARK    3  A    between atoms: C_3  and  C_4
REMARK    4  A    between atoms: C_4  and  C_5
REMARK    5  A    between atoms: C_5  and  O_7
REMARK    6  A    between atoms: O_7  and  C_8
REMARK    7  A    between atoms: C_8  and  C_9
REMARK    8  A    between atoms: C_18  and  N_19
REMARK                            x       y       z     vdW  Elec       q    Type
REMARK                         _______ _______ _______ _____ _____    ______ ____
ROOT
ATOM      1  C   UNL     1      -3.603  13.546  21.190  0.00  0.00    +0.000 C 
ATOM      2  C   UNL     1      -3.549  15.055  20.938  0.00  0.00    +0.000 C 
ATOM      3  C   UNL     1      -5.056  13.099  21.038  0.00  0.00    +0.000 A 
ATOM      4  C   UNL     1      -6.112  13.461  21.866  0.00  0.00    +0.000 A 
ATOM      5  C   UNL     1      -7.368  12.948  21.592  0.00  0.00    +0.000 A 
ATOM      6  C   UNL     1      -7.543  12.094  20.496  0.00  0.00    +0.000 A 
ATOM      7  C   UNL     1      -6.467  11.752  19.669  0.00  0.00    +0.000 A 
ATOM      8  C   UNL     1      -5.206  12.250  19.912  0.00  0.00    +0.000 A 
ATOM      9  C   UNL     1      -3.891  11.972  19.352  0.00  0.00    +0.000 A 
ATOM     10  C   UNL     1      -2.926  12.702  20.107  0.00  0.00    +0.000 A 
ATOM     11  C   UNL     1      -1.590  12.391  19.961  0.00  0.00    +0.000 A 
ATOM     12  N   UNL     1      -1.205  11.285  19.322  0.00  0.00    +0.000 NA
ATOM     13  C   UNL     1      -2.079  10.739  18.469  0.00  0.00    +0.000 A 
ATOM     14  C   UNL     1      -1.494   9.874  17.588  0.00  0.00    +0.000 A 
ATOM     15  C   UNL     1      -1.915   9.944  16.283  0.00  0.00    +0.000 A 
ATOM     16  C   UNL     1      -3.238  10.283  16.045  0.00  0.00    +0.000 A 
ATOM     17 BR   UNL     1      -3.861  10.193  14.267  0.00  0.00    +0.000 Br
ATOM     18  C   UNL     1      -4.047  10.749  17.094  0.00  0.00    +0.000 A 
ATOM     19  C   UNL     1      -3.407  11.136  18.314  0.00  0.00    +0.000 A 
ENDROOT
BRANCH  11  20
ATOM     20  N   UNL     1      -0.526  13.257  20.305  0.00  0.00    +0.000 N 
ATOM     21  C   UNL     1       0.579  12.901  21.049  0.00  0.00    +0.000 A 
ATOM     22  C   UNL     1       1.443  13.966  20.974  0.00  0.00    +0.000 A 
ATOM     23  N   UNL     1       0.953  14.928  20.134  0.00  0.00    +0.000 NA
ATOM     24  C   UNL     1      -0.180  14.436  19.683  0.00  0.00    +0.000 A 
ENDBRANCH  11  20
BRANCH   1  25
ATOM     25  O   UNL     1      -3.059  13.044  22.430  0.00  0.00    +0.000 OA
BRANCH  25  26
ATOM     26  C   UNL     1      -2.540  13.873  23.356  0.00  0.00    +0.000 C 
ATOM     27  O   UNL     1      -1.467  14.459  23.288  0.00  0.00    +0.000 OA
BRANCH  26  28
ATOM     28  C   UNL     1      -3.523  14.099  24.481  0.00  0.00    +0.000 C 
BRANCH  28  29
ATOM     29  C   UNL     1      -3.779  15.564  24.800  0.00  0.00    +0.000 C 
BRANCH  29  31
ATOM     30  C   UNL     1      -4.881  17.403  23.502  0.00  0.00    +0.000 C 
ATOM     31  C   UNL     1      -5.088  16.071  24.201  0.00  0.00    +0.000 C 
ENDBRANCH  29  31
ENDBRANCH  28  29
ENDBRANCH  26  28
ENDBRANCH  25  26
ENDBRANCH   1  25
TORSDOF 6
ENDMDL
MODEL 6
REMARK VINA RESULT:      -6.5      2.220      5.313
REMARK  Name = 
REMARK  8 active torsions:
REMARK  status: ('A' for Active; 'I' for Inactive)
REMARK    1  A    between atoms: C_1  and  C_2
REMARK    2  A    between atoms: C_2  and  C_3
REMARK    3  A    between atoms: C_3  and  C_4
REMARK    4  A    between atoms: C_4  and  C_5
REMARK    5  A    between atoms: C_5  and  O_7
REMARK    6  A    between atoms: O_7  and  C_8
REMARK    7  A    between atoms: C_8  and  C_9
REMARK    8  A    between atoms: C_18  and  N_19
REMARK                            x       y       z     vdW  Elec       q    Type
REMARK                         _______ _______ _______ _____ _____    ______ ____
ROOT
ATOM      1  C   UNL     1       4.611   4.321  19.121  0.00  0.00    +0.000 C 
ATOM      2  C   UNL     1       5.979   4.395  19.802  0.00  0.00    +0.000 C 
ATOM      3  C   UNL     1       3.601   3.820  20.152  0.00  0.00    +0.000 A 
ATOM      4  C   UNL     1       3.586   2.557  20.733  0.00  0.00    +0.000 A 
ATOM      5  C   UNL     1       2.584   2.264  21.641  0.00  0.00    +0.000 A 
ATOM      6  C   UNL     1       1.628   3.236  21.955  0.00  0.00    +0.000 A 
ATOM      7  C   UNL     1       1.670   4.506  21.368  0.00  0.00    +0.000 A 
ATOM      8  C   UNL     1       2.657   4.831  20.463  0.00  0.00    +0.000 A 
ATOM      9  C   UNL     1       2.880   5.972  19.587  0.00  0.00    +0.000 A 
ATOM     10  C   UNL     1       4.009   5.684  18.765  0.00  0.00    +0.000 A 
ATOM     11  C   UNL     1       4.253   6.476  17.663  0.00  0.00    +0.000 A 
ATOM     12  N   UNL     1       3.339   7.342  17.220  0.00  0.00    +0.000 NA
ATOM     13  C   UNL     1       2.404   7.739  18.091  0.00  0.00    +0.000 A 
ATOM     14  C   UNL     1       1.766   8.883  17.704  0.00  0.00    +0.000 A 
ATOM     15  C   UNL     1       1.530   9.818  18.681  0.00  0.00    +0.000 A 
ATOM     16  C   UNL     1       1.278   9.365  19.967  0.00  0.00    +0.000 A 
ATOM     17 BR   UNL     1       0.768  10.636  21.263  0.00  0.00    +0.000 Br
ATOM     18  C   UNL     1       1.480   8.012  20.290  0.00  0.00    +0.000 A 
ATOM     19  C   UNL     1       2.212   7.203  19.365  0.00  0.00    +0.000 A 
ENDROOT
BRANCH  11  20
ATOM     20  N   UNL     1       5.505   6.578  17.013  0.00  0.00    +0.000 N 
ATOM     21  C   UNL     1       6.595   7.273  17.494  0.00  0.00    +0.000 A 
ATOM     22  C   UNL     1       7.643   6.948  16.668  0.00  0.00    +0.000 A 
ATOM     23  N   UNL     1       7.262   6.006  15.751  0.00  0.00    +0.000 NA
ATOM     24  C   UNL     1       6.007   5.743  16.041  0.00  0.00    +0.000 A 
ENDBRANCH  11  20
BRANCH   1  25
ATOM     25  O   UNL     1       4.499   3.550  17.905  0.00  0.00    +0.000 OA
BRANCH  25  26
ATOM     26  C   UNL     1       4.078   2.271  17.920  0.00  0.00    +0.000 C 
ATOM     27  O   UNL     1       4.642   1.325  18.455  0.00  0.00    +0.000 OA
BRANCH  26  28
ATOM     28  C   UNL     1       2.716   2.149  17.275  0.00  0.00    +0.000 C 
BRANCH  28  29
ATOM     29  C   UNL     1       2.072   3.483  16.928  0.00  0.00    +0.000 C 
BRANCH  29  31
ATOM     30  C   UNL     1       0.445   2.570  18.602  0.00  0.00    +0.000 C 
ATOM     31  C   UNL     1       0.869   3.797  17.814  0.00  0.00    +0.000 C 
ENDBRANCH  29  31
ENDBRANCH  28  29
ENDBRANCH  26  28
ENDBRANCH  25  26
ENDBRANCH   1  25
TORSDOF 6
ENDMDL
MODEL 7
REMARK VINA RESULT:      -6.5      7.476     11.314
REMARK  Name = 
REMARK  8 active torsions:
REMARK  status: ('A' for Active; 'I' for Inactive)
REMARK    1  A    between atoms: C_1  and  C_2
REMARK    2  A    between atoms: C_2  and  C_3
REMARK    3  A    between atoms: C_3  and  C_4
REMARK    4  A    between atoms: C_4  and  C_5
REMARK    5  A    between atoms: C_5  and  O_7
REMARK    6  A    between atoms: O_7  and  C_8
REMARK    7  A    between atoms: C_8  and  C_9
REMARK    8  A    between atoms: C_18  and  N_19
REMARK                            x       y       z     vdW  Elec       q    Type
REMARK                         _______ _______ _______ _____ _____    ______ ____
ROOT
ATOM      1  C   UNL     1      -2.517  14.033  21.456  0.00  0.00    +0.000 C 
ATOM      2  C   UNL     1      -2.354  15.508  21.077  0.00  0.00    +0.000 C 
ATOM      3  C   UNL     1      -4.011  13.715  21.468  0.00  0.00    +0.000 A 
ATOM      4  C   UNL     1      -4.949  14.237  22.351  0.00  0.00    +0.000 A 
ATOM      5  C   UNL     1      -6.265  13.825  22.230  0.00  0.00    +0.000 A 
ATOM      6  C   UNL     1      -6.616  12.913  21.227  0.00  0.00    +0.000 A 
ATOM      7  C   UNL     1      -5.656  12.411  20.340  0.00  0.00    +0.000 A 
ATOM      8  C   UNL     1      -4.339  12.804  20.432  0.00  0.00    +0.000 A 
ATOM      9  C   UNL     1      -3.112  12.362  19.785  0.00  0.00    +0.000 A 
ATOM     10  C   UNL     1      -2.020  13.051  20.391  0.00  0.00    +0.000 A 
ATOM     11  C   UNL     1      -0.736  12.606  20.156  0.00  0.00    +0.000 A 
ATOM     12  N   UNL     1      -0.511  11.424  19.579  0.00  0.00    +0.000 NA
ATOM     13  C   UNL     1      -1.505  10.901  18.852  0.00  0.00    +0.000 A 
ATOM     14  C   UNL     1      -1.084   9.922  17.998  0.00  0.00    +0.000 A 
ATOM     15  C   UNL     1      -1.617   9.936  16.733  0.00  0.00    +0.000 A 
ATOM     16  C   UNL     1      -2.922  10.379  16.583  0.00  0.00    +0.000 A 
ATOM     17 BR   UNL     1      -3.715  10.219  14.880  0.00  0.00    +0.000 Br
ATOM     18  C   UNL     1      -3.586  10.996  17.657  0.00  0.00    +0.000 A 
ATOM     19  C   UNL     1      -2.803  11.410  18.780  0.00  0.00    +0.000 A 
ENDROOT
BRANCH  11  20
ATOM     20  N   UNL     1       0.427  13.390  20.334  0.00  0.00    +0.000 N 
ATOM     21  C   UNL     1       1.599  12.953  20.915  0.00  0.00    +0.000 A 
ATOM     22  C   UNL     1       2.518  13.950  20.706  0.00  0.00    +0.000 A 
ATOM     23  N   UNL     1       1.985  14.947  19.935  0.00  0.00    +0.000 NA
ATOM     24  C   UNL     1       0.765  14.540  19.657  0.00  0.00    +0.000 A 
ENDBRANCH  11  20
BRANCH   1  25
ATOM     25  O   UNL     1      -1.904  13.575  22.681  0.00  0.00    +0.000 OA
BRANCH  25  26
ATOM     26  C   UNL     1      -1.261  14.424  23.505  0.00  0.00    +0.000 C 
ATOM     27  O   UNL     1      -0.157  14.919  23.322  0.00  0.00    +0.000 OA
BRANCH  26  28
ATOM     28  C   UNL     1      -2.142  14.803  24.674  0.00  0.00    +0.000 C 
BRANCH  28  29
ATOM     29  C   UNL     1      -2.510  16.278  24.721  0.00  0.00    +0.000 C 
BRANCH  29  31
ATOM     30  C   UNL     1      -4.492  17.701  24.147  0.00  0.00    +0.000 C 
ATOM     31  C   UNL     1      -4.005  16.499  24.937  0.00  0.00    +0.000 C 
ENDBRANCH  29  31
ENDBRANCH  28  29
ENDBRANCH  26  28
ENDBRANCH  25  26
ENDBRANCH   1  25
TORSDOF 6
ENDMDL
MODEL 8
REMARK VINA RESULT:      -6.5      7.873     11.480
REMARK  Name = 
REMARK  8 active torsions:
REMARK  status: ('A' for Active; 'I' for Inactive)
REMARK    1  A    between atoms: C_1  and  C_2
REMARK    2  A    between atoms: C_2  and  C_3
REMARK    3  A    between atoms: C_3  and  C_4
REMARK    4  A    between atoms: C_4  and  C_5
REMARK    5  A    between atoms: C_5  and  O_7
REMARK    6  A    between atoms: O_7  and  C_8
REMARK    7  A    between atoms: C_8  and  C_9
REMARK    8  A    between atoms: C_18  and  N_19
REMARK                            x       y       z     vdW  Elec       q    Type
REMARK                         _______ _______ _______ _____ _____    ______ ____
ROOT
ATOM      1  C   UNL     1      -3.858  13.821  21.305  0.00  0.00    +0.000 C 
ATOM      2  C   UNL     1      -3.815  15.320  20.994  0.00  0.00    +0.000 C 
ATOM      3  C   UNL     1      -5.286  13.334  21.066  0.00  0.00    +0.000 A 
ATOM      4  C   UNL     1      -6.407  13.706  21.798  0.00  0.00    +0.000 A 
ATOM      5  C   UNL     1      -7.629  13.152  21.454  0.00  0.00    +0.000 A 
ATOM      6  C   UNL     1      -7.704  12.249  20.387  0.00  0.00    +0.000 A 
ATOM      7  C   UNL     1      -6.562  11.900  19.655  0.00  0.00    +0.000 A 
ATOM      8  C   UNL     1      -5.334  12.437  19.970  0.00  0.00    +0.000 A 
ATOM      9  C   UNL     1      -3.975  12.167  19.520  0.00  0.00    +0.000 A 
ATOM     10  C   UNL     1      -3.084  12.950  20.312  0.00  0.00    +0.000 A 
ATOM     11  C   UNL     1      -1.735  12.665  20.277  0.00  0.00    +0.000 A 
ATOM     12  N   UNL     1      -1.281  11.543  19.717  0.00  0.00    +0.000 NA
ATOM     13  C   UNL     1      -2.077  10.941  18.825  0.00  0.00    +0.000 A 
ATOM     14  C   UNL     1      -1.411  10.055  18.028  0.00  0.00    +0.000 A 
ATOM     15  C   UNL     1      -1.735  10.062  16.693  0.00  0.00    +0.000 A 
ATOM     16  C   UNL     1      -3.044  10.359  16.344  0.00  0.00    +0.000 A 
ATOM     17 BR   UNL     1      -3.531  10.182  14.531  0.00  0.00    +0.000 Br
ATOM     18  C   UNL     1      -3.938  10.849  17.311  0.00  0.00    +0.000 A 
ATOM     19  C   UNL     1      -3.399  11.300  18.556  0.00  0.00    +0.000 A 
ENDROOT
BRANCH  11  20
ATOM     20  N   UNL     1      -0.717  13.570  20.661  0.00  0.00    +0.000 N 
ATOM     21  C   UNL     1       0.371  13.254  21.448  0.00  0.00    +0.000 A 
ATOM     22  C   UNL     1       1.197  14.350  21.405  0.00  0.00    +0.000 A 
ATOM     23  N   UNL     1       0.704  15.294  20.546  0.00  0.00    +0.000 NA
ATOM     24  C   UNL     1      -0.392  14.760  20.052  0.00  0.00    +0.000 A 
ENDBRANCH  11  20
BRANCH   1  25
ATOM     25  O   UNL     1      -3.397  13.384  22.602  0.00  0.00    +0.000 OA
BRANCH  25  26
ATOM     26  C   UNL     1      -3.305  14.238  23.639  0.00  0.00    +0.000 C 
ATOM     27  O   UNL     1      -4.238  14.732  24.260  0.00  0.00    +0.000 OA
BRANCH  26  28
ATOM     28  C   UNL     1      -1.862  14.438  24.040  0.00  0.00    +0.000 C 
BRANCH  28  29
ATOM     29  C   UNL     1      -1.316  15.823  23.727  0.00  0.00    +0.000 C 
BRANCH  29  31
ATOM     30  C   UNL     1      -1.193  15.795  26.230  0.00  0.00    +0.000 C 
ATOM     31  C   UNL     1      -0.785  16.535  24.969  0.00  0.00    +0.000 C 
ENDBRANCH  29  31
ENDBRANCH  28  29
ENDBRANCH  26  28
ENDBRANCH  25  26
ENDBRANCH   1  25
TORSDOF 6
ENDMDL
MODEL 9
REMARK VINA RESULT:      -6.5      6.077     10.140
REMARK  Name = 
REMARK  8 active torsions:
REMARK  status: ('A' for Active; 'I' for Inactive)
REMARK    1  A    between atoms: C_1  and  C_2
REMARK    2  A    between atoms: C_2  and  C_3
REMARK    3  A    between atoms: C_3  and  C_4
REMARK    4  A    between atoms: C_4  and  C_5
REMARK    5  A    between atoms: C_5  and  O_7
REMARK    6  A    between atoms: O_7  and  C_8
REMARK    7  A    between atoms: C_8  and  C_9
REMARK    8  A    between atoms: C_18  and  N_19
REMARK                            x       y       z     vdW  Elec       q    Type
REMARK                         _______ _______ _______ _____ _____    ______ ____
ROOT
ATOM      1  C   UNL     1      -2.206  12.364  21.698  0.00  0.00    +0.000 C 
ATOM      2  C   UNL     1      -1.252  13.540  21.921  0.00  0.00    +0.000 C 
ATOM      3  C   UNL     1      -3.385  12.530  22.656  0.00  0.00    +0.000 A 
ATOM      4  C   UNL     1      -3.326  12.458  24.042  0.00  0.00    +0.000 A 
ATOM      5  C   UNL     1      -4.500  12.616  24.759  0.00  0.00    +0.000 A 
ATOM      6  C   UNL     1      -5.701  12.849  24.077  0.00  0.00    +0.000 A 
ATOM      7  C   UNL     1      -5.734  12.930  22.680  0.00  0.00    +0.000 A 
ATOM      8  C   UNL     1      -4.582  12.782  21.939  0.00  0.00    +0.000 A 
ATOM      9  C   UNL     1      -4.315  12.659  20.513  0.00  0.00    +0.000 A 
ATOM     10  C   UNL     1      -2.926  12.384  20.347  0.00  0.00    +0.000 A 
ATOM     11  C   UNL     1      -2.474  11.945  19.119  0.00  0.00    +0.000 A 
ATOM     12  N   UNL     1      -3.327  11.551  18.171  0.00  0.00    +0.000 NA
ATOM     13  C   UNL     1      -4.585  11.996  18.261  0.00  0.00    +0.000 A 
ATOM     14  C   UNL     1      -5.275  11.884  17.087  0.00  0.00    +0.000 A 
ATOM     15  C   UNL     1      -6.071  12.946  16.735  0.00  0.00    +0.000 A 
ATOM     16  C   UNL     1      -6.677  13.668  17.752  0.00  0.00    +0.000 A 
ATOM     17 BR   UNL     1      -7.917  15.003  17.264  0.00  0.00    +0.000 Br
ATOM     18  C   UNL     1      -6.307  13.451  19.090  0.00  0.00    +0.000 A 
ATOM     19  C   UNL     1      -5.115  12.701  19.343  0.00  0.00    +0.000 A 
ENDROOT
BRANCH  11  20
ATOM     20  N   UNL     1      -1.129  12.024  18.687  0.00  0.00    +0.000 N 
ATOM     21  C   UNL     1      -0.336  13.149  18.762  0.00  0.00    +0.000 A 
ATOM     22  C   UNL     1       0.932  12.738  18.431  0.00  0.00    +0.000 A 
ATOM     23  N   UNL     1       0.968  11.383  18.245  0.00  0.00    +0.000 NA
ATOM     24  C   UNL     1      -0.257  10.977  18.492  0.00  0.00    +0.000 A 
ENDBRANCH  11  20
BRANCH   1  25
ATOM     25  O   UNL     1      -1.670  11.027  21.801  0.00  0.00    +0.000 OA
BRANCH  25  26
ATOM     26  C   UNL     1      -0.542  10.774  22.490  0.00  0.00    +0.000 C 
ATOM     27  O   UNL     1      -0.437  10.676  23.706  0.00  0.00    +0.000 OA
BRANCH  26  28
ATOM     28  C   UNL     1       0.608  10.499  21.548  0.00  0.00    +0.000 C 
BRANCH  28  29
ATOM     29  C   UNL     1       1.310   9.172  21.795  0.00  0.00    +0.000 C 
BRANCH  29  31
ATOM     30  C   UNL     1       2.091   7.401  20.202  0.00  0.00    +0.000 C 
ATOM     31  C   UNL     1       0.881   8.093  20.805  0.00  0.00    +0.000 C 
ENDBRANCH  29  31
ENDBRANCH  28  29
ENDBRANCH  26  28
ENDBRANCH  25  26
ENDBRANCH   1  25
TORSDOF 6
ENDMDL
