MODEL 1
REMARK VINA RESULT:      -6.9      0.000      0.000
REMARK  Name = 
REMARK  1 active torsions:
REMARK  status: ('A' for Active; 'I' for Inactive)
REMARK    1  A    between atoms: N_3  and  C_4
REMARK                            x       y       z     vdW  Elec       q    Type
REMARK                         _______ _______ _______ _____ _____    ______ ____
ROOT
ATOM      1  C   UNL     1       6.463   4.518  16.948  0.00  0.00    +0.000 A 
ATOM      2  C   UNL     1       7.556   4.983  17.687  0.00  0.00    +0.000 A 
ATOM      3  C   UNL     1       7.359   5.354  19.000  0.00  0.00    +0.000 A 
ATOM      4  N   UNL     1       6.170   5.288  19.626  0.00  0.00    +0.000 NA
ATOM      5  C   UNL     1       5.117   4.821  18.941  0.00  0.00    +0.000 A 
ATOM      6  C   UNL     1       3.900   4.735  19.602  0.00  0.00    +0.000 A 
ATOM      7  C   UNL     1       2.761   4.258  18.960  0.00  0.00    +0.000 A 
ATOM      8 CL   UNL     1       1.273   4.168  19.817  0.00  0.00    +0.000 Cl
ATOM      9  C   UNL     1       2.822   3.853  17.633  0.00  0.00    +0.000 A 
ATOM     10  C   UNL     1       4.035   3.932  16.951  0.00  0.00    +0.000 A 
ATOM     11  C   UNL     1       5.202   4.417  17.589  0.00  0.00    +0.000 A 
ENDROOT
BRANCH   1  14
ATOM     12  N   UNL     1       7.882   5.513  14.184  0.00  0.00    +0.000 NA
ATOM     13  N   UNL     1       7.256   4.840  14.861  0.00  0.00    +0.000 NA
ATOM     14  N   UNL     1       6.586   4.095  15.601  0.00  0.00    +0.000 NA
ENDBRANCH   1  14
TORSDOF 1
ENDMDL
MODEL 2
REMARK VINA RESULT:      -6.9      1.074      1.093
REMARK  Name = 
REMARK  1 active torsions:
REMARK  status: ('A' for Active; 'I' for Inactive)
REMARK    1  A    between atoms: N_3  and  C_4
REMARK                            x       y       z     vdW  Elec       q    Type
REMARK                         _______ _______ _______ _____ _____    ______ ____
ROOT
ATOM      1  C   UNL     1       6.214   5.640  16.938  0.00  0.00    +0.000 A 
ATOM      2  C   UNL     1       7.257   6.099  17.749  0.00  0.00    +0.000 A 
ATOM      3  C   UNL     1       7.275   5.730  19.078  0.00  0.00    +0.000 A 
ATOM      4  N   UNL     1       6.348   4.941  19.648  0.00  0.00    +0.000 NA
ATOM      5  C   UNL     1       5.354   4.471  18.879  0.00  0.00    +0.000 A 
ATOM      6  C   UNL     1       4.415   3.639  19.472  0.00  0.00    +0.000 A 
ATOM      7  C   UNL     1       3.356   3.110  18.740  0.00  0.00    +0.000 A 
ATOM      8 CL   UNL     1       2.214   2.082  19.514  0.00  0.00    +0.000 Cl
ATOM      9  C   UNL     1       3.218   3.406  17.390  0.00  0.00    +0.000 A 
ATOM     10  C   UNL     1       4.151   4.241  16.777  0.00  0.00    +0.000 A 
ATOM     11  C   UNL     1       5.233   4.788  17.508  0.00  0.00    +0.000 A 
ENDROOT
BRANCH   1  14
ATOM     12  N   UNL     1       7.997   5.272  14.231  0.00  0.00    +0.000 NA
ATOM     13  N   UNL     1       7.110   5.605  14.868  0.00  0.00    +0.000 NA
ATOM     14  N   UNL     1       6.134   5.955  15.558  0.00  0.00    +0.000 NA
ENDBRANCH   1  14
TORSDOF 1
ENDMDL
MODEL 3
REMARK VINA RESULT:      -6.8      3.790      5.077
REMARK  Name = 
REMARK  1 active torsions:
REMARK  status: ('A' for Active; 'I' for Inactive)
REMARK    1  A    between atoms: N_3  and  C_4
REMARK                            x       y       z     vdW  Elec       q    Type
REMARK                         _______ _______ _______ _____ _____    ______ ____
ROOT
ATOM      1  C   UNL     1       3.680   2.861  20.404  0.00  0.00    +0.000 A 
ATOM      2  C   UNL     1       2.674   2.459  21.288  0.00  0.00    +0.000 A 
ATOM      3  C   UNL     1       1.601   3.300  21.498  0.00  0.00    +0.000 A 
ATOM      4  N   UNL     1       1.455   4.492  20.894  0.00  0.00    +0.000 NA
ATOM      5  C   UNL     1       2.398   4.883  20.024  0.00  0.00    +0.000 A 
ATOM      6  C   UNL     1       2.227   6.105  19.389  0.00  0.00    +0.000 A 
ATOM      7  C   UNL     1       3.160   6.578  18.471  0.00  0.00    +0.000 A 
ATOM      8 CL   UNL     1       2.908   8.098  17.706  0.00  0.00    +0.000 Cl
ATOM      9  C   UNL     1       4.290   5.830  18.170  0.00  0.00    +0.000 A 
ATOM     10  C   UNL     1       4.481   4.600  18.799  0.00  0.00    +0.000 A 
ATOM     11  C   UNL     1       3.542   4.105  19.736  0.00  0.00    +0.000 A 
ENDROOT
BRANCH   1  14
ATOM     12  N   UNL     1       5.795   0.947  21.987  0.00  0.00    +0.000 NA
ATOM     13  N   UNL     1       5.325   1.480  21.094  0.00  0.00    +0.000 NA
ATOM     14  N   UNL     1       4.804   2.047  20.115  0.00  0.00    +0.000 NA
ENDBRANCH   1  14
TORSDOF 1
ENDMDL
MODEL 4
REMARK VINA RESULT:      -6.6      1.791      2.131
REMARK  Name = 
REMARK  1 active torsions:
REMARK  status: ('A' for Active; 'I' for Inactive)
REMARK    1  A    between atoms: N_3  and  C_4
REMARK                            x       y       z     vdW  Elec       q    Type
REMARK                         _______ _______ _______ _____ _____    ______ ____
ROOT
ATOM      1  C   UNL     1       5.363   5.122  16.871  0.00  0.00    +0.000 A 
ATOM      2  C   UNL     1       5.344   6.519  16.925  0.00  0.00    +0.000 A 
ATOM      3  C   UNL     1       4.209   7.150  17.392  0.00  0.00    +0.000 A 
ATOM      4  N   UNL     1       3.111   6.498  17.811  0.00  0.00    +0.000 NA
ATOM      5  C   UNL     1       3.121   5.157  17.790  0.00  0.00    +0.000 A 
ATOM      6  C   UNL     1       1.990   4.494  18.247  0.00  0.00    +0.000 A 
ATOM      7  C   UNL     1       1.925   3.104  18.259  0.00  0.00    +0.000 A 
ATOM      8 CL   UNL     1       0.504   2.322  18.834  0.00  0.00    +0.000 Cl
ATOM      9  C   UNL     1       3.000   2.347  17.812  0.00  0.00    +0.000 A 
ATOM     10  C   UNL     1       4.144   2.995  17.349  0.00  0.00    +0.000 A 
ATOM     11  C   UNL     1       4.225   4.408  17.328  0.00  0.00    +0.000 A 
ENDROOT
BRANCH   1  14
ATOM     12  N   UNL     1       7.737   5.400  14.651  0.00  0.00    +0.000 NA
ATOM     13  N   UNL     1       7.138   4.917  15.495  0.00  0.00    +0.000 NA
ATOM     14  N   UNL     1       6.497   4.397  16.427  0.00  0.00    +0.000 NA
ENDBRANCH   1  14
TORSDOF 1
ENDMDL
MODEL 5
REMARK VINA RESULT:      -6.3      2.077      2.483
REMARK  Name = 
REMARK  1 active torsions:
REMARK  status: ('A' for Active; 'I' for Inactive)
REMARK    1  A    between atoms: N_3  and  C_4
REMARK                            x       y       z     vdW  Elec       q    Type
REMARK                         _______ _______ _______ _____ _____    ______ ____
ROOT
ATOM      1  C   UNL     1       4.623   4.983  17.155  0.00  0.00    +0.000 A 
ATOM      2  C   UNL     1       4.511   6.361  16.940  0.00  0.00    +0.000 A 
ATOM      3  C   UNL     1       3.661   7.090  17.745  0.00  0.00    +0.000 A 
ATOM      4  N   UNL     1       2.932   6.556  18.741  0.00  0.00    +0.000 NA
ATOM      5  C   UNL     1       3.046   5.242  18.977  0.00  0.00    +0.000 A 
ATOM      6  C   UNL     1       2.306   4.705  20.021  0.00  0.00    +0.000 A 
ATOM      7  C   UNL     1       2.373   3.349  20.331  0.00  0.00    +0.000 A 
ATOM      8 CL   UNL     1       1.440   2.725  21.634  0.00  0.00    +0.000 Cl
ATOM      9  C   UNL     1       3.189   2.501  19.595  0.00  0.00    +0.000 A 
ATOM     10  C   UNL     1       3.939   3.021  18.541  0.00  0.00    +0.000 A 
ATOM     11  C   UNL     1       3.882   4.397  18.213  0.00  0.00    +0.000 A 
ENDROOT
BRANCH   1  14
ATOM     12  N   UNL     1       7.825   4.493  16.765  0.00  0.00    +0.000 NA
ATOM     13  N   UNL     1       6.708   4.343  16.580  0.00  0.00    +0.000 NA
ATOM     14  N   UNL     1       5.491   4.166  16.388  0.00  0.00    +0.000 NA
ENDBRANCH   1  14
TORSDOF 1
ENDMDL
MODEL 6
REMARK VINA RESULT:      -6.3      1.989      2.075
REMARK  Name = 
REMARK  1 active torsions:
REMARK  status: ('A' for Active; 'I' for Inactive)
REMARK    1  A    between atoms: N_3  and  C_4
REMARK                            x       y       z     vdW  Elec       q    Type
REMARK                         _______ _______ _______ _____ _____    ______ ____
ROOT
ATOM      1  C   UNL     1       5.180   4.625  16.382  0.00  0.00    +0.000 A 
ATOM      2  C   UNL     1       5.438   5.994  16.255  0.00  0.00    +0.000 A 
ATOM      3  C   UNL     1       4.622   6.887  16.917  0.00  0.00    +0.000 A 
ATOM      4  N   UNL     1       3.587   6.521  17.694  0.00  0.00    +0.000 NA
ATOM      5  C   UNL     1       3.341   5.212  17.848  0.00  0.00    +0.000 A 
ATOM      6  C   UNL     1       2.285   4.844  18.669  0.00  0.00    +0.000 A 
ATOM      7  C   UNL     1       1.968   3.505  18.881  0.00  0.00    +0.000 A 
ATOM      8 CL   UNL     1       0.651   3.092  19.908  0.00  0.00    +0.000 Cl
ATOM      9  C   UNL     1       2.710   2.503  18.270  0.00  0.00    +0.000 A 
ATOM     10  C   UNL     1       3.774   2.853  17.439  0.00  0.00    +0.000 A 
ATOM     11  C   UNL     1       4.108   4.209  17.213  0.00  0.00    +0.000 A 
ENDROOT
BRANCH   1  14
ATOM     12  N   UNL     1       6.293   3.906  13.401  0.00  0.00    +0.000 NA
ATOM     13  N   UNL     1       6.138   3.776  14.524  0.00  0.00    +0.000 NA
ATOM     14  N   UNL     1       5.985   3.642  15.753  0.00  0.00    +0.000 NA
ENDBRANCH   1  14
TORSDOF 1
ENDMDL
MODEL 7
REMARK VINA RESULT:      -6.2      2.289      2.758
REMARK  Name = 
REMARK  1 active torsions:
REMARK  status: ('A' for Active; 'I' for Inactive)
REMARK    1  A    between atoms: N_3  and  C_4
REMARK                            x       y       z     vdW  Elec       q    Type
REMARK                         _______ _______ _______ _____ _____    ______ ____
ROOT
ATOM      1  C   UNL     1       4.675   5.917  16.973  0.00  0.00    +0.000 A 
ATOM      2  C   UNL     1       4.403   7.267  17.217  0.00  0.00    +0.000 A 
ATOM      3  C   UNL     1       3.214   7.604  17.830  0.00  0.00    +0.000 A 
ATOM      4  N   UNL     1       2.293   6.705  18.220  0.00  0.00    +0.000 NA
ATOM      5  C   UNL     1       2.549   5.404  18.017  0.00  0.00    +0.000 A 
ATOM      6  C   UNL     1       1.603   4.484  18.444  0.00  0.00    +0.000 A 
ATOM      7  C   UNL     1       1.796   3.116  18.272  0.00  0.00    +0.000 A 
ATOM      8 CL   UNL     1       0.598   2.009  18.816  0.00  0.00    +0.000 Cl
ATOM      9  C   UNL     1       2.952   2.642  17.664  0.00  0.00    +0.000 A 
ATOM     10  C   UNL     1       3.914   3.552  17.227  0.00  0.00    +0.000 A 
ATOM     11  C   UNL     1       3.731   4.946  17.394  0.00  0.00    +0.000 A 
ENDROOT
BRANCH   1  14
ATOM     12  N   UNL     1       7.743   6.965  16.602  0.00  0.00    +0.000 NA
ATOM     13  N   UNL     1       6.850   6.262  16.484  0.00  0.00    +0.000 NA
ATOM     14  N   UNL     1       5.883   5.486  16.369  0.00  0.00    +0.000 NA
ENDBRANCH   1  14
TORSDOF 1
ENDMDL
MODEL 8
REMARK VINA RESULT:      -6.2      2.103      2.937
REMARK  Name = 
REMARK  1 active torsions:
REMARK  status: ('A' for Active; 'I' for Inactive)
REMARK    1  A    between atoms: N_3  and  C_4
REMARK                            x       y       z     vdW  Elec       q    Type
REMARK                         _______ _______ _______ _____ _____    ______ ____
ROOT
ATOM      1  C   UNL     1       5.559   5.120  17.919  0.00  0.00    +0.000 A 
ATOM      2  C   UNL     1       5.466   6.475  17.587  0.00  0.00    +0.000 A 
ATOM      3  C   UNL     1       4.215   7.042  17.461  0.00  0.00    +0.000 A 
ATOM      4  N   UNL     1       3.066   6.369  17.649  0.00  0.00    +0.000 NA
ATOM      5  C   UNL     1       3.137   5.076  17.993  0.00  0.00    +0.000 A 
ATOM      6  C   UNL     1       1.946   4.396  18.206  0.00  0.00    +0.000 A 
ATOM      7  C   UNL     1       1.936   3.052  18.568  0.00  0.00    +0.000 A 
ATOM      8 CL   UNL     1       0.437   2.248  18.824  0.00  0.00    +0.000 Cl
ATOM      9  C   UNL     1       3.129   2.359  18.726  0.00  0.00    +0.000 A 
ATOM     10  C   UNL     1       4.337   3.024  18.514  0.00  0.00    +0.000 A 
ATOM     11  C   UNL     1       4.363   4.390  18.144  0.00  0.00    +0.000 A 
ENDROOT
BRANCH   1  14
ATOM     12  N   UNL     1       8.179   5.301  19.855  0.00  0.00    +0.000 NA
ATOM     13  N   UNL     1       7.524   4.908  19.006  0.00  0.00    +0.000 NA
ATOM     14  N   UNL     1       6.805   4.466  18.090  0.00  0.00    +0.000 NA
ENDBRANCH   1  14
TORSDOF 1
ENDMDL
MODEL 9
REMARK VINA RESULT:      -6.2      3.169      4.635
REMARK  Name = 
REMARK  1 active torsions:
REMARK  status: ('A' for Active; 'I' for Inactive)
REMARK    1  A    between atoms: N_3  and  C_4
REMARK                            x       y       z     vdW  Elec       q    Type
REMARK                         _______ _______ _______ _____ _____    ______ ____
ROOT
ATOM      1  C   UNL     1       5.591   4.503  18.484  0.00  0.00    +0.000 A 
ATOM      2  C   UNL     1       6.390   5.309  19.301  0.00  0.00    +0.000 A 
ATOM      3  C   UNL     1       7.442   5.994  18.731  0.00  0.00    +0.000 A 
ATOM      4  N   UNL     1       7.747   5.943  17.422  0.00  0.00    +0.000 NA
ATOM      5  C   UNL     1       6.976   5.195  16.620  0.00  0.00    +0.000 A 
ATOM      6  C   UNL     1       7.286   5.166  15.267  0.00  0.00    +0.000 A 
ATOM      7  C   UNL     1       6.532   4.415  14.370  0.00  0.00    +0.000 A 
ATOM      8 CL   UNL     1       6.949   4.409  12.701  0.00  0.00    +0.000 Cl
ATOM      9  C   UNL     1       5.444   3.675  14.814  0.00  0.00    +0.000 A 
ATOM     10  C   UNL     1       5.118   3.689  16.170  0.00  0.00    +0.000 A 
ATOM     11  C   UNL     1       5.876   4.447  17.095  0.00  0.00    +0.000 A 
ENDROOT
BRANCH   1  14
ATOM     12  N   UNL     1       4.990   1.962  20.440  0.00  0.00    +0.000 NA
ATOM     13  N   UNL     1       4.746   2.829  19.738  0.00  0.00    +0.000 NA
ATOM     14  N   UNL     1       4.477   3.784  18.987  0.00  0.00    +0.000 NA
ENDBRANCH   1  14
TORSDOF 1
ENDMDL
