MODEL 1
REMARK VINA RESULT:      -6.5      0.000      0.000
REMARK  Name = 
REMARK  7 active torsions:
REMARK  status: ('A' for Active; 'I' for Inactive)
REMARK    1  A    between atoms: C_1  and  C_2
REMARK    2  A    between atoms: C_5  and  S_6
REMARK    3  A    between atoms: S_6  and  N_9
REMARK    4  A    between atoms: C_10  and  C_11
REMARK    5  A    between atoms: C_19  and  C_20
REMARK    6  A    between atoms: C_20  and  O_22
REMARK    7  A    between atoms: C_23  and  C_24
REMARK                            x       y       z     vdW  Elec       q    Type
REMARK                         _______ _______ _______ _____ _____    ______ ____
ROOT
ATOM      1  N   UNL     1      -1.191  13.443  20.735  0.00  0.00    +0.000 NA
ATOM      2  C   UNL     1      -2.029  12.400  21.454  0.00  0.00    +0.000 C 
ATOM      3  C   UNL     1      -0.960  11.617  22.247  0.00  0.00    +0.000 C 
ATOM      4  C   UNL     1      -0.456  10.611  21.320  0.00  0.00    +0.000 C 
ATOM      5  C   UNL     1       0.056  11.106  20.178  0.00  0.00    +0.000 C 
ATOM      6  C   UNL     1      -0.017  12.658  19.835  0.00  0.00    +0.000 C 
ENDROOT
BRANCH   6   7
ATOM      7  C   UNL     1       1.345  13.359  19.674  0.00  0.00    +0.000 A 
ATOM      8  C   UNL     1       2.305  13.436  20.701  0.00  0.00    +0.000 A 
ATOM      9  C   UNL     1       3.539  14.074  20.508  0.00  0.00    +0.000 A 
ATOM     10  C   UNL     1       3.813  14.699  19.302  0.00  0.00    +0.000 A 
ATOM     11  F   UNL     1       4.962  15.369  19.146  0.00  0.00    +0.000 F 
ATOM     12  C   UNL     1       2.908  14.627  18.259  0.00  0.00    +0.000 A 
ATOM     13  C   UNL     1       1.716  13.905  18.427  0.00  0.00    +0.000 A 
ENDBRANCH   6   7
BRANCH   2  14
ATOM     14  C   UNL     1      -3.284  12.570  22.311  0.00  0.00    +0.000 A 
ATOM     15  C   UNL     1      -4.573  12.833  21.848  0.00  0.00    +0.000 A 
ATOM     16  C   UNL     1      -5.636  13.004  22.756  0.00  0.00    +0.000 A 
ATOM     17  C   UNL     1      -5.439  12.862  24.131  0.00  0.00    +0.000 A 
ATOM     18  C   UNL     1      -4.202  12.475  24.606  0.00  0.00    +0.000 A 
ATOM     19  C   UNL     1      -3.169  12.285  23.700  0.00  0.00    +0.000 A 
ENDBRANCH   2  14
BRANCH   1  20
ATOM     20  S   UNL     1      -0.957  14.941  21.597  0.00  0.00    +0.000 S 
ATOM     21  O   UNL     1       0.130  14.736  22.540  0.00  0.00    +0.000 OA
ATOM     22  O   UNL     1      -2.184  15.451  22.142  0.00  0.00    +0.000 OA
BRANCH  20  27
ATOM     23  C   UNL     1       1.328  18.397  17.207  0.00  0.00    +0.000 C 
ATOM     24  C   UNL     1       0.684  17.658  18.342  0.00  0.00    +0.000 A 
ATOM     25  C   UNL     1      -0.546  17.009  18.170  0.00  0.00    +0.000 A 
ATOM     26  C   UNL     1      -1.114  16.275  19.214  0.00  0.00    +0.000 A 
ATOM     27  C   UNL     1      -0.398  16.125  20.407  0.00  0.00    +0.000 A 
ATOM     28  C   UNL     1       0.773  16.844  20.630  0.00  0.00    +0.000 A 
ATOM     29  C   UNL     1       1.317  17.607  19.593  0.00  0.00    +0.000 A 
ENDBRANCH  20  27
ENDBRANCH   1  20
BRANCH   5  30
ATOM     30  C   UNL     1       0.658   9.996  19.408  0.00  0.00    +0.000 C 
ATOM     31  O   UNL     1       1.195   9.005  19.887  0.00  0.00    +0.000 OA
BRANCH  30  32
ATOM     32  O   UNL     1       0.762  10.206  18.097  0.00  0.00    +0.000 OA
ATOM     33  H   UNL     1       1.329   9.446  17.827  0.00  0.00    +0.000 HD
ENDBRANCH  30  32
ENDBRANCH   5  30
TORSDOF 6
ENDMDL
MODEL 2
REMARK VINA RESULT:      -6.2      0.183      1.327
REMARK  Name = 
REMARK  7 active torsions:
REMARK  status: ('A' for Active; 'I' for Inactive)
REMARK    1  A    between atoms: C_1  and  C_2
REMARK    2  A    between atoms: C_5  and  S_6
REMARK    3  A    between atoms: S_6  and  N_9
REMARK    4  A    between atoms: C_10  and  C_11
REMARK    5  A    between atoms: C_19  and  C_20
REMARK    6  A    between atoms: C_20  and  O_22
REMARK    7  A    between atoms: C_23  and  C_24
REMARK                            x       y       z     vdW  Elec       q    Type
REMARK                         _______ _______ _______ _____ _____    ______ ____
ROOT
ATOM      1  N   UNL     1      -1.119  13.377  20.864  0.00  0.00    +0.000 NA
ATOM      2  C   UNL     1      -1.907  12.328  21.630  0.00  0.00    +0.000 C 
ATOM      3  C   UNL     1      -0.792  11.576  22.388  0.00  0.00    +0.000 C 
ATOM      4  C   UNL     1      -0.307  10.566  21.454  0.00  0.00    +0.000 C 
ATOM      5  C   UNL     1       0.149  11.055  20.287  0.00  0.00    +0.000 C 
ATOM      6  C   UNL     1       0.033  12.601  19.927  0.00  0.00    +0.000 C 
ENDROOT
BRANCH   6   7
ATOM      7  C   UNL     1       1.373  13.324  19.701  0.00  0.00    +0.000 A 
ATOM      8  C   UNL     1       1.731  13.934  18.483  0.00  0.00    +0.000 A 
ATOM      9  C   UNL     1       2.959  14.593  18.323  0.00  0.00    +0.000 A 
ATOM     10  C   UNL     1       3.878  14.604  19.360  0.00  0.00    +0.000 A 
ATOM     11  F   UNL     1       5.077  15.171  19.179  0.00  0.00    +0.000 F 
ATOM     12  C   UNL     1       3.557  14.038  20.580  0.00  0.00    +0.000 A 
ATOM     13  C   UNL     1       2.290  13.464  20.765  0.00  0.00    +0.000 A 
ENDBRANCH   6   7
BRANCH   2  14
ATOM     14  C   UNL     1      -3.129  12.487  22.534  0.00  0.00    +0.000 A 
ATOM     15  C   UNL     1      -3.142  12.424  23.927  0.00  0.00    +0.000 A 
ATOM     16  C   UNL     1      -4.354  12.552  24.635  0.00  0.00    +0.000 A 
ATOM     17  C   UNL     1      -5.556  12.800  23.970  0.00  0.00    +0.000 A 
ATOM     18  C   UNL     1      -5.549  12.995  22.604  0.00  0.00    +0.000 A 
ATOM     19  C   UNL     1      -4.347  12.891  21.919  0.00  0.00    +0.000 A 
ENDBRANCH   2  14
BRANCH   1  20
ATOM     20  S   UNL     1      -0.878  14.890  21.697  0.00  0.00    +0.000 S 
ATOM     21  O   UNL     1       0.234  14.710  22.615  0.00  0.00    +0.000 OA
ATOM     22  O   UNL     1      -2.096  15.396  22.264  0.00  0.00    +0.000 OA
BRANCH  20  27
ATOM     23  C   UNL     1       1.274  18.302  17.206  0.00  0.00    +0.000 C 
ATOM     24  C   UNL     1       0.662  17.573  18.365  0.00  0.00    +0.000 A 
ATOM     25  C   UNL     1      -0.554  16.891  18.221  0.00  0.00    +0.000 A 
ATOM     26  C   UNL     1      -1.093  16.167  19.287  0.00  0.00    +0.000 A 
ATOM     27  C   UNL     1      -0.360  16.060  20.475  0.00  0.00    +0.000 A 
ATOM     28  C   UNL     1       0.795  16.812  20.669  0.00  0.00    +0.000 A 
ATOM     29  C   UNL     1       1.309  17.565  19.609  0.00  0.00    +0.000 A 
ENDBRANCH  20  27
ENDBRANCH   1  20
BRANCH   5  30
ATOM     30  C   UNL     1       0.740   9.946  19.506  0.00  0.00    +0.000 C 
ATOM     31  O   UNL     1       0.697   9.831  18.288  0.00  0.00    +0.000 OA
BRANCH  30  32
ATOM     32  O   UNL     1       1.195   8.924  20.228  0.00  0.00    +0.000 OA
ATOM     33  H   UNL     1       2.169   9.067  20.169  0.00  0.00    +0.000 HD
ENDBRANCH  30  32
ENDBRANCH   5  30
TORSDOF 6
ENDMDL
MODEL 3
REMARK VINA RESULT:      -6.1      1.774      3.191
REMARK  Name = 
REMARK  7 active torsions:
REMARK  status: ('A' for Active; 'I' for Inactive)
REMARK    1  A    between atoms: C_1  and  C_2
REMARK    2  A    between atoms: C_5  and  S_6
REMARK    3  A    between atoms: S_6  and  N_9
REMARK    4  A    between atoms: C_10  and  C_11
REMARK    5  A    between atoms: C_19  and  C_20
REMARK    6  A    between atoms: C_20  and  O_22
REMARK    7  A    between atoms: C_23  and  C_24
REMARK                            x       y       z     vdW  Elec       q    Type
REMARK                         _______ _______ _______ _____ _____    ______ ____
ROOT
ATOM      1  N   UNL     1      -1.311  13.813  20.889  0.00  0.00    +0.000 NA
ATOM      2  C   UNL     1      -2.206  12.675  21.348  0.00  0.00    +0.000 C 
ATOM      3  C   UNL     1      -1.182  11.663  21.906  0.00  0.00    +0.000 C 
ATOM      4  C   UNL     1      -0.744  10.887  20.752  0.00  0.00    +0.000 C 
ATOM      5  C   UNL     1      -0.208  11.615  19.756  0.00  0.00    +0.000 C 
ATOM      6  C   UNL     1      -0.189  13.206  19.803  0.00  0.00    +0.000 C 
ENDROOT
BRANCH   6   7
ATOM      7  C   UNL     1       1.211  13.846  19.791  0.00  0.00    +0.000 A 
ATOM      8  C   UNL     1       2.213  13.540  20.732  0.00  0.00    +0.000 A 
ATOM      9  C   UNL     1       3.480  14.139  20.678  0.00  0.00    +0.000 A 
ATOM     10  C   UNL     1       3.751  15.098  19.716  0.00  0.00    +0.000 A 
ATOM     11  F   UNL     1       4.937  15.719  19.713  0.00  0.00    +0.000 F 
ATOM     12  C   UNL     1       2.804  15.411  18.759  0.00  0.00    +0.000 A 
ATOM     13  C   UNL     1       1.572  14.740  18.760  0.00  0.00    +0.000 A 
ENDBRANCH   6   7
BRANCH   2  14
ATOM     14  C   UNL     1      -3.445  12.703  22.244  0.00  0.00    +0.000 A 
ATOM     15  C   UNL     1      -4.763  12.886  21.829  0.00  0.00    +0.000 A 
ATOM     16  C   UNL     1      -5.808  12.927  22.772  0.00  0.00    +0.000 A 
ATOM     17  C   UNL     1      -5.561  12.730  24.132  0.00  0.00    +0.000 A 
ATOM     18  C   UNL     1      -4.285  12.418  24.553  0.00  0.00    +0.000 A 
ATOM     19  C   UNL     1      -3.267  12.357  23.612  0.00  0.00    +0.000 A 
ENDBRANCH   2  14
BRANCH   1  20
ATOM     20  S   UNL     1      -0.983  15.039  22.085  0.00  0.00    +0.000 S 
ATOM     21  O   UNL     1      -0.171  16.063  21.449  0.00  0.00    +0.000 OA
ATOM     22  O   UNL     1      -0.467  14.482  23.304  0.00  0.00    +0.000 OA
BRANCH  20  27
ATOM     23  C   UNL     1      -6.578  16.858  23.441  0.00  0.00    +0.000 C 
ATOM     24  C   UNL     1      -5.146  16.547  23.120  0.00  0.00    +0.000 A 
ATOM     25  C   UNL     1      -4.240  16.214  24.136  0.00  0.00    +0.000 A 
ATOM     26  C   UNL     1      -2.921  15.870  23.828  0.00  0.00    +0.000 A 
ATOM     27  C   UNL     1      -2.540  15.781  22.484  0.00  0.00    +0.000 A 
ATOM     28  C   UNL     1      -3.394  16.206  21.472  0.00  0.00    +0.000 A 
ATOM     29  C   UNL     1      -4.702  16.585  21.791  0.00  0.00    +0.000 A 
ENDBRANCH  20  27
ENDBRANCH   1  20
BRANCH   5  30
ATOM     30  C   UNL     1       0.323  10.695  18.727  0.00  0.00    +0.000 C 
ATOM     31  O   UNL     1       1.498  10.376  18.595  0.00  0.00    +0.000 OA
BRANCH  30  32
ATOM     32  O   UNL     1      -0.544  10.340  17.781  0.00  0.00    +0.000 OA
ATOM     33  H   UNL     1      -1.167  11.103  17.798  0.00  0.00    +0.000 HD
ENDBRANCH  30  32
ENDBRANCH   5  30
TORSDOF 6
ENDMDL
MODEL 4
REMARK VINA RESULT:      -5.9      3.046      6.556
REMARK  Name = 
REMARK  7 active torsions:
REMARK  status: ('A' for Active; 'I' for Inactive)
REMARK    1  A    between atoms: C_1  and  C_2
REMARK    2  A    between atoms: C_5  and  S_6
REMARK    3  A    between atoms: S_6  and  N_9
REMARK    4  A    between atoms: C_10  and  C_11
REMARK    5  A    between atoms: C_19  and  C_20
REMARK    6  A    between atoms: C_20  and  O_22
REMARK    7  A    between atoms: C_23  and  C_24
REMARK                            x       y       z     vdW  Elec       q    Type
REMARK                         _______ _______ _______ _____ _____    ______ ____
ROOT
ATOM      1  N   UNL     1       0.329  13.645  21.614  0.00  0.00    +0.000 NA
ATOM      2  C   UNL     1       1.569  13.069  20.953  0.00  0.00    +0.000 C 
ATOM      3  C   UNL     1       0.962  12.119  19.899  0.00  0.00    +0.000 C 
ATOM      4  C   UNL     1       0.725  10.865  20.604  0.00  0.00    +0.000 C 
ATOM      5  C   UNL     1      -0.078  10.968  21.679  0.00  0.00    +0.000 C 
ATOM      6  C   UNL     1      -0.604  12.380  22.194  0.00  0.00    +0.000 C 
ENDROOT
BRANCH   6   7
ATOM      7  C   UNL     1      -2.133  12.555  22.178  0.00  0.00    +0.000 A 
ATOM      8  C   UNL     1      -2.902  12.563  20.997  0.00  0.00    +0.000 A 
ATOM      9  C   UNL     1      -4.296  12.715  21.028  0.00  0.00    +0.000 A 
ATOM     10  C   UNL     1      -4.942  12.920  22.236  0.00  0.00    +0.000 A 
ATOM     11  F   UNL     1      -6.263  13.136  22.254  0.00  0.00    +0.000 F 
ATOM     12  C   UNL     1      -4.229  12.896  23.420  0.00  0.00    +0.000 A 
ATOM     13  C   UNL     1      -2.848  12.648  23.391  0.00  0.00    +0.000 A 
ENDBRANCH   6   7
BRANCH   2  14
ATOM     14  C   UNL     1       2.787  13.782  20.365  0.00  0.00    +0.000 A 
ATOM     15  C   UNL     1       3.857  14.320  21.079  0.00  0.00    +0.000 A 
ATOM     16  C   UNL     1       4.900  14.987  20.407  0.00  0.00    +0.000 A 
ATOM     17  C   UNL     1       4.919  15.076  19.014  0.00  0.00    +0.000 A 
ATOM     18  C   UNL     1       3.940  14.441  18.277  0.00  0.00    +0.000 A 
ATOM     19  C   UNL     1       2.930  13.767  18.949  0.00  0.00    +0.000 A 
ENDBRANCH   2  14
BRANCH   1  20
ATOM     20  S   UNL     1      -0.299  15.101  20.890  0.00  0.00    +0.000 S 
ATOM     21  O   UNL     1      -1.055  14.711  19.711  0.00  0.00    +0.000 OA
ATOM     22  O   UNL     1       0.721  16.092  20.692  0.00  0.00    +0.000 OA
BRANCH  20  27
ATOM     23  C   UNL     1      -4.450  16.699  24.972  0.00  0.00    +0.000 C 
ATOM     24  C   UNL     1      -3.380  16.445  23.951  0.00  0.00    +0.000 A 
ATOM     25  C   UNL     1      -2.065  16.165  24.346  0.00  0.00    +0.000 A 
ATOM     26  C   UNL     1      -1.085  15.874  23.394  0.00  0.00    +0.000 A 
ATOM     27  C   UNL     1      -1.453  15.782  22.047  0.00  0.00    +0.000 A 
ATOM     28  C   UNL     1      -2.727  16.155  21.630  0.00  0.00    +0.000 A 
ATOM     29  C   UNL     1      -3.693  16.482  22.585  0.00  0.00    +0.000 A 
ENDBRANCH  20  27
ENDBRANCH   1  20
BRANCH   5  30
ATOM     30  C   UNL     1      -0.349   9.611  22.202  0.00  0.00    +0.000 C 
ATOM     31  O   UNL     1      -0.384   8.585  21.535  0.00  0.00    +0.000 OA
BRANCH  30  32
ATOM     32  O   UNL     1      -0.751   9.562  23.470  0.00  0.00    +0.000 OA
ATOM     33  H   UNL     1      -0.847   8.590  23.602  0.00  0.00    +0.000 HD
ENDBRANCH  30  32
ENDBRANCH   5  30
TORSDOF 6
ENDMDL
MODEL 5
REMARK VINA RESULT:      -5.8      7.480     10.912
REMARK  Name = 
REMARK  7 active torsions:
REMARK  status: ('A' for Active; 'I' for Inactive)
REMARK    1  A    between atoms: C_1  and  C_2
REMARK    2  A    between atoms: C_5  and  S_6
REMARK    3  A    between atoms: S_6  and  N_9
REMARK    4  A    between atoms: C_10  and  C_11
REMARK    5  A    between atoms: C_19  and  C_20
REMARK    6  A    between atoms: C_20  and  O_22
REMARK    7  A    between atoms: C_23  and  C_24
REMARK                            x       y       z     vdW  Elec       q    Type
REMARK                         _______ _______ _______ _____ _____    ______ ____
ROOT
ATOM      1  N   UNL     1       7.870  14.141  20.935  0.00  0.00    +0.000 NA
ATOM      2  C   UNL     1       8.476  14.346  19.557  0.00  0.00    +0.000 C 
ATOM      3  C   UNL     1       8.915  15.824  19.614  0.00  0.00    +0.000 C 
ATOM      4  C   UNL     1       7.733  16.590  19.235  0.00  0.00    +0.000 C 
ATOM      5  C   UNL     1       6.654  16.377  20.011  0.00  0.00    +0.000 C 
ATOM      6  C   UNL     1       6.657  15.274  21.158  0.00  0.00    +0.000 C 
ENDROOT
BRANCH   6   7
ATOM      7  C   UNL     1       6.437  15.812  22.584  0.00  0.00    +0.000 A 
ATOM      8  C   UNL     1       7.212  16.840  23.155  0.00  0.00    +0.000 A 
ATOM      9  C   UNL     1       6.971  17.308  24.455  0.00  0.00    +0.000 A 
ATOM     10  C   UNL     1       5.987  16.717  25.231  0.00  0.00    +0.000 A 
ATOM     11  F   UNL     1       5.808  17.118  26.496  0.00  0.00    +0.000 F 
ATOM     12  C   UNL     1       5.187  15.721  24.701  0.00  0.00    +0.000 A 
ATOM     13  C   UNL     1       5.370  15.323  23.369  0.00  0.00    +0.000 A 
ENDBRANCH   6   7
BRANCH   2  14
ATOM     14  C   UNL     1       9.532  13.522  18.819  0.00  0.00    +0.000 A 
ATOM     15  C   UNL     1       9.383  12.220  18.344  0.00  0.00    +0.000 A 
ATOM     16  C   UNL     1      10.457  11.564  17.711  0.00  0.00    +0.000 A 
ATOM     17  C   UNL     1      11.673  12.216  17.493  0.00  0.00    +0.000 A 
ATOM     18  C   UNL     1      11.803  13.547  17.837  0.00  0.00    +0.000 A 
ATOM     19  C   UNL     1      10.730  14.189  18.439  0.00  0.00    +0.000 A 
ENDBRANCH   2  14
BRANCH   1  20
ATOM     20  S   UNL     1       8.978  13.604  22.170  0.00  0.00    +0.000 S 
ATOM     21  O   UNL     1       9.705  14.771  22.640  0.00  0.00    +0.000 OA
ATOM     22  O   UNL     1       9.773  12.489  21.737  0.00  0.00    +0.000 OA
BRANCH  20  27
ATOM     23  C   UNL     1       6.140  11.105  26.876  0.00  0.00    +0.000 C 
ATOM     24  C   UNL     1       6.739  11.829  25.707  0.00  0.00    +0.000 A 
ATOM     25  C   UNL     1       7.671  12.858  25.902  0.00  0.00    +0.000 A 
ATOM     26  C   UNL     1       8.268  13.491  24.810  0.00  0.00    +0.000 A 
ATOM     27  C   UNL     1       7.987  13.028  23.519  0.00  0.00    +0.000 A 
ATOM     28  C   UNL     1       6.991  12.081  23.303  0.00  0.00    +0.000 A 
ATOM     29  C   UNL     1       6.370  11.477  24.401  0.00  0.00    +0.000 A 
ENDBRANCH  20  27
ENDBRANCH   1  20
BRANCH   5  30
ATOM     30  C   UNL     1       5.587  17.319  19.608  0.00  0.00    +0.000 C 
ATOM     31  O   UNL     1       4.757  17.121  18.729  0.00  0.00    +0.000 OA
BRANCH  30  32
ATOM     32  O   UNL     1       5.672  18.535  20.143  0.00  0.00    +0.000 OA
ATOM     33  H   UNL     1       4.812  18.927  19.862  0.00  0.00    +0.000 HD
ENDBRANCH  30  32
ENDBRANCH   5  30
TORSDOF 6
ENDMDL
MODEL 6
REMARK VINA RESULT:      -5.8      6.722     10.615
REMARK  Name = 
REMARK  7 active torsions:
REMARK  status: ('A' for Active; 'I' for Inactive)
REMARK    1  A    between atoms: C_1  and  C_2
REMARK    2  A    between atoms: C_5  and  S_6
REMARK    3  A    between atoms: S_6  and  N_9
REMARK    4  A    between atoms: C_10  and  C_11
REMARK    5  A    between atoms: C_19  and  C_20
REMARK    6  A    between atoms: C_20  and  O_22
REMARK    7  A    between atoms: C_23  and  C_24
REMARK                            x       y       z     vdW  Elec       q    Type
REMARK                         _______ _______ _______ _____ _____    ______ ____
ROOT
ATOM      1  N   UNL     1       7.541  14.074  21.529  0.00  0.00    +0.000 NA
ATOM      2  C   UNL     1       7.384  15.377  20.763  0.00  0.00    +0.000 C 
ATOM      3  C   UNL     1       7.187  16.400  21.902  0.00  0.00    +0.000 C 
ATOM      4  C   UNL     1       5.759  16.373  22.199  0.00  0.00    +0.000 C 
ATOM      5  C   UNL     1       5.282  15.165  22.548  0.00  0.00    +0.000 C 
ATOM      6  C   UNL     1       6.194  13.862  22.502  0.00  0.00    +0.000 C 
ENDROOT
BRANCH   6   7
ATOM      7  C   UNL     1       6.397  13.156  23.855  0.00  0.00    +0.000 A 
ATOM      8  C   UNL     1       6.165  11.781  24.057  0.00  0.00    +0.000 A 
ATOM      9  C   UNL     1       6.372  11.175  25.304  0.00  0.00    +0.000 A 
ATOM     10  C   UNL     1       6.761  11.943  26.390  0.00  0.00    +0.000 A 
ATOM     11  F   UNL     1       6.889  11.373  27.595  0.00  0.00    +0.000 F 
ATOM     12  C   UNL     1       7.023  13.291  26.231  0.00  0.00    +0.000 A 
ATOM     13  C   UNL     1       6.905  13.873  24.959  0.00  0.00    +0.000 A 
ENDBRANCH   6   7
BRANCH   2  14
ATOM     14  C   UNL     1       8.265  15.984  19.671  0.00  0.00    +0.000 A 
ATOM     15  C   UNL     1       8.207  15.700  18.307  0.00  0.00    +0.000 A 
ATOM     16  C   UNL     1       9.110  16.308  17.413  0.00  0.00    +0.000 A 
ATOM     17  C   UNL     1      10.043  17.247  17.858  0.00  0.00    +0.000 A 
ATOM     18  C   UNL     1      10.035  17.641  19.180  0.00  0.00    +0.000 A 
ATOM     19  C   UNL     1       9.125  17.053  20.047  0.00  0.00    +0.000 A 
ENDBRANCH   2  14
BRANCH   1  20
ATOM     20  S   UNL     1       9.174  13.659  21.975  0.00  0.00    +0.000 S 
ATOM     21  O   UNL     1       9.125  12.387  22.677  0.00  0.00    +0.000 OA
ATOM     22  O   UNL     1       9.841  14.735  22.654  0.00  0.00    +0.000 OA
BRANCH  20  27
ATOM     23  C   UNL     1      11.796  13.335  16.547  0.00  0.00    +0.000 C 
ATOM     24  C   UNL     1      11.234  13.305  17.938  0.00  0.00    +0.000 A 
ATOM     25  C   UNL     1      11.800  14.083  18.956  0.00  0.00    +0.000 A 
ATOM     26  C   UNL     1      11.240  14.096  20.236  0.00  0.00    +0.000 A 
ATOM     27  C   UNL     1      10.055  13.386  20.465  0.00  0.00    +0.000 A 
ATOM     28  C   UNL     1       9.539  12.531  19.497  0.00  0.00    +0.000 A 
ATOM     29  C   UNL     1      10.128  12.495  18.229  0.00  0.00    +0.000 A 
ENDBRANCH  20  27
ENDBRANCH   1  20
BRANCH   5  30
ATOM     30  C   UNL     1       3.869  15.314  22.961  0.00  0.00    +0.000 C 
ATOM     31  O   UNL     1       2.910  14.769  22.428  0.00  0.00    +0.000 OA
BRANCH  30  32
ATOM     32  O   UNL     1       3.641  16.256  23.874  0.00  0.00    +0.000 OA
ATOM     33  H   UNL     1       2.889  15.859  24.373  0.00  0.00    +0.000 HD
ENDBRANCH  30  32
ENDBRANCH   5  30
TORSDOF 6
ENDMDL
MODEL 7
REMARK VINA RESULT:      -5.7      7.419     10.788
REMARK  Name = 
REMARK  7 active torsions:
REMARK  status: ('A' for Active; 'I' for Inactive)
REMARK    1  A    between atoms: C_1  and  C_2
REMARK    2  A    between atoms: C_5  and  S_6
REMARK    3  A    between atoms: S_6  and  N_9
REMARK    4  A    between atoms: C_10  and  C_11
REMARK    5  A    between atoms: C_19  and  C_20
REMARK    6  A    between atoms: C_20  and  O_22
REMARK    7  A    between atoms: C_23  and  C_24
REMARK                            x       y       z     vdW  Elec       q    Type
REMARK                         _______ _______ _______ _____ _____    ______ ____
ROOT
ATOM      1  N   UNL     1       7.916  14.168  20.999  0.00  0.00    +0.000 NA
ATOM      2  C   UNL     1       8.526  14.369  19.623  0.00  0.00    +0.000 C 
ATOM      3  C   UNL     1       8.931  15.858  19.663  0.00  0.00    +0.000 C 
ATOM      4  C   UNL     1       7.734  16.592  19.268  0.00  0.00    +0.000 C 
ATOM      5  C   UNL     1       6.656  16.364  20.040  0.00  0.00    +0.000 C 
ATOM      6  C   UNL     1       6.676  15.276  21.201  0.00  0.00    +0.000 C 
ENDROOT
BRANCH   6   7
ATOM      7  C   UNL     1       6.436  15.826  22.619  0.00  0.00    +0.000 A 
ATOM      8  C   UNL     1       7.204  16.858  23.192  0.00  0.00    +0.000 A 
ATOM      9  C   UNL     1       6.944  17.338  24.485  0.00  0.00    +0.000 A 
ATOM     10  C   UNL     1       5.947  16.755  25.250  0.00  0.00    +0.000 A 
ATOM     11  F   UNL     1       5.749  17.167  26.509  0.00  0.00    +0.000 F 
ATOM     12  C   UNL     1       5.153  15.756  24.717  0.00  0.00    +0.000 A 
ATOM     13  C   UNL     1       5.356  15.346  23.391  0.00  0.00    +0.000 A 
ENDBRANCH   6   7
BRANCH   2  14
ATOM     14  C   UNL     1       9.605  13.561  18.901  0.00  0.00    +0.000 A 
ATOM     15  C   UNL     1      10.919  13.961  18.663  0.00  0.00    +0.000 A 
ATOM     16  C   UNL     1      11.800  13.125  17.949  0.00  0.00    +0.000 A 
ATOM     17  C   UNL     1      11.401  11.861  17.511  0.00  0.00    +0.000 A 
ATOM     18  C   UNL     1      10.147  11.390  17.846  0.00  0.00    +0.000 A 
ATOM     19  C   UNL     1       9.296  12.212  18.571  0.00  0.00    +0.000 A 
ENDBRANCH   2  14
BRANCH   1  20
ATOM     20  S   UNL     1       9.028  13.672  22.247  0.00  0.00    +0.000 S 
ATOM     21  O   UNL     1       9.659  14.872  22.771  0.00  0.00    +0.000 OA
ATOM     22  O   UNL     1       9.911  12.630  21.803  0.00  0.00    +0.000 OA
BRANCH  20  27
ATOM     23  C   UNL     1       5.180  11.893  26.546  0.00  0.00    +0.000 C 
ATOM     24  C   UNL     1       6.217  12.216  25.511  0.00  0.00    +0.000 A 
ATOM     25  C   UNL     1       6.108  11.715  24.206  0.00  0.00    +0.000 A 
ATOM     26  C   UNL     1       7.045  12.063  23.231  0.00  0.00    +0.000 A 
ATOM     27  C   UNL     1       8.048  12.986  23.551  0.00  0.00    +0.000 A 
ATOM     28  C   UNL     1       8.231  13.412  24.864  0.00  0.00    +0.000 A 
ATOM     29  C   UNL     1       7.310  13.029  25.843  0.00  0.00    +0.000 A 
ENDBRANCH  20  27
ENDBRANCH   1  20
BRANCH   5  30
ATOM     30  C   UNL     1       5.570  17.277  19.619  0.00  0.00    +0.000 C 
ATOM     31  O   UNL     1       4.748  17.047  18.741  0.00  0.00    +0.000 OA
BRANCH  30  32
ATOM     32  O   UNL     1       5.627  18.502  20.135  0.00  0.00    +0.000 OA
ATOM     33  H   UNL     1       6.576  18.557  20.393  0.00  0.00    +0.000 HD
ENDBRANCH  30  32
ENDBRANCH   5  30
TORSDOF 6
ENDMDL
MODEL 8
REMARK VINA RESULT:      -5.7      2.366      5.977
REMARK  Name = 
REMARK  7 active torsions:
REMARK  status: ('A' for Active; 'I' for Inactive)
REMARK    1  A    between atoms: C_1  and  C_2
REMARK    2  A    between atoms: C_5  and  S_6
REMARK    3  A    between atoms: S_6  and  N_9
REMARK    4  A    between atoms: C_10  and  C_11
REMARK    5  A    between atoms: C_19  and  C_20
REMARK    6  A    between atoms: C_20  and  O_22
REMARK    7  A    between atoms: C_23  and  C_24
REMARK                            x       y       z     vdW  Elec       q    Type
REMARK                         _______ _______ _______ _____ _____    ______ ____
ROOT
ATOM      1  N   UNL     1       1.842  13.608  21.303  0.00  0.00    +0.000 NA
ATOM      2  C   UNL     1       2.871  13.769  20.196  0.00  0.00    +0.000 C 
ATOM      3  C   UNL     1       1.980  13.882  18.941  0.00  0.00    +0.000 C 
ATOM      4  C   UNL     1       1.718  12.507  18.532  0.00  0.00    +0.000 C 
ATOM      5  C   UNL     1       1.131  11.744  19.472  0.00  0.00    +0.000 C 
ATOM      6  C   UNL     1       0.877  12.286  20.947  0.00  0.00    +0.000 C 
ENDROOT
BRANCH   6   7
ATOM      7  C   UNL     1      -0.599  12.344  21.379  0.00  0.00    +0.000 A 
ATOM      8  C   UNL     1      -1.635  12.808  20.545  0.00  0.00    +0.000 A 
ATOM      9  C   UNL     1      -2.970  12.834  20.975  0.00  0.00    +0.000 A 
ATOM     10  C   UNL     1      -3.287  12.450  22.267  0.00  0.00    +0.000 A 
ATOM     11  F   UNL     1      -4.552  12.544  22.697  0.00  0.00    +0.000 F 
ATOM     12  C   UNL     1      -2.305  11.965  23.111  0.00  0.00    +0.000 A 
ATOM     13  C   UNL     1      -0.987  11.852  22.644  0.00  0.00    +0.000 A 
ENDBRANCH   6   7
BRANCH   2  14
ATOM     14  C   UNL     1       4.046  14.741  20.084  0.00  0.00    +0.000 A 
ATOM     15  C   UNL     1       5.118  14.849  20.969  0.00  0.00    +0.000 A 
ATOM     16  C   UNL     1       6.118  15.820  20.763  0.00  0.00    +0.000 A 
ATOM     17  C   UNL     1       6.092  16.655  19.645  0.00  0.00    +0.000 A 
ATOM     18  C   UNL     1       5.113  16.481  18.687  0.00  0.00    +0.000 A 
ATOM     19  C   UNL     1       4.148  15.505  18.889  0.00  0.00    +0.000 A 
ENDBRANCH   2  14
BRANCH   1  20
ATOM     20  S   UNL     1       1.279  15.092  22.024  0.00  0.00    +0.000 S 
ATOM     21  O   UNL     1       2.419  15.724  22.669  0.00  0.00    +0.000 OA
ATOM     22  O   UNL     1       0.117  14.890  22.843  0.00  0.00    +0.000 OA
BRANCH  20  27
ATOM     23  C   UNL     1      -0.002  18.214  17.019  0.00  0.00    +0.000 C 
ATOM     24  C   UNL     1       0.226  17.531  18.335  0.00  0.00    +0.000 A 
ATOM     25  C   UNL     1      -0.602  16.479  18.749  0.00  0.00    +0.000 A 
ATOM     26  C   UNL     1      -0.353  15.808  19.948  0.00  0.00    +0.000 A 
ATOM     27  C   UNL     1       0.785  16.145  20.690  0.00  0.00    +0.000 A 
ATOM     28  C   UNL     1       1.557  17.251  20.347  0.00  0.00    +0.000 A 
ATOM     29  C   UNL     1       1.279  17.942  19.164  0.00  0.00    +0.000 A 
ENDBRANCH  20  27
ENDBRANCH   1  20
BRANCH   5  30
ATOM     30  C   UNL     1       0.793  10.433  18.877  0.00  0.00    +0.000 C 
ATOM     31  O   UNL     1       1.355   9.373  19.122  0.00  0.00    +0.000 OA
BRANCH  30  32
ATOM     32  O   UNL     1      -0.080  10.474  17.872  0.00  0.00    +0.000 OA
ATOM     33  H   UNL     1       0.526  10.490  17.095  0.00  0.00    +0.000 HD
ENDBRANCH  30  32
ENDBRANCH   5  30
TORSDOF 6
ENDMDL
MODEL 9
REMARK VINA RESULT:      -5.7      7.372     10.805
REMARK  Name = 
REMARK  7 active torsions:
REMARK  status: ('A' for Active; 'I' for Inactive)
REMARK    1  A    between atoms: C_1  and  C_2
REMARK    2  A    between atoms: C_5  and  S_6
REMARK    3  A    between atoms: S_6  and  N_9
REMARK    4  A    between atoms: C_10  and  C_11
REMARK    5  A    between atoms: C_19  and  C_20
REMARK    6  A    between atoms: C_20  and  O_22
REMARK    7  A    between atoms: C_23  and  C_24
REMARK                            x       y       z     vdW  Elec       q    Type
REMARK                         _______ _______ _______ _____ _____    ______ ____
ROOT
ATOM      1  N   UNL     1       7.917  14.071  20.981  0.00  0.00    +0.000 NA
ATOM      2  C   UNL     1       8.519  14.272  19.601  0.00  0.00    +0.000 C 
ATOM      3  C   UNL     1       8.934  15.759  19.643  0.00  0.00    +0.000 C 
ATOM      4  C   UNL     1       7.740  16.501  19.258  0.00  0.00    +0.000 C 
ATOM      5  C   UNL     1       6.666  16.279  20.037  0.00  0.00    +0.000 C 
ATOM      6  C   UNL     1       6.687  15.188  21.195  0.00  0.00    +0.000 C 
ENDROOT
BRANCH   6   7
ATOM      7  C   UNL     1       6.459  15.735  22.616  0.00  0.00    +0.000 A 
ATOM      8  C   UNL     1       7.258  16.738  23.198  0.00  0.00    +0.000 A 
ATOM      9  C   UNL     1       7.010  17.217  24.493  0.00  0.00    +0.000 A 
ATOM     10  C   UNL     1       5.993  16.661  25.252  0.00  0.00    +0.000 A 
ATOM     11  F   UNL     1       5.805  17.071  26.513  0.00  0.00    +0.000 F 
ATOM     12  C   UNL     1       5.170  15.692  24.710  0.00  0.00    +0.000 A 
ATOM     13  C   UNL     1       5.363  15.285  23.381  0.00  0.00    +0.000 A 
ENDBRANCH   6   7
BRANCH   2  14
ATOM     14  C   UNL     1       9.587  13.459  18.869  0.00  0.00    +0.000 A 
ATOM     15  C   UNL     1       9.427  12.188  18.318  0.00  0.00    +0.000 A 
ATOM     16  C   UNL     1      10.513  11.536  17.702  0.00  0.00    +0.000 A 
ATOM     17  C   UNL     1      11.754  12.163  17.577  0.00  0.00    +0.000 A 
ATOM     18  C   UNL     1      11.902  13.469  17.998  0.00  0.00    +0.000 A 
ATOM     19  C   UNL     1      10.819  14.109  18.582  0.00  0.00    +0.000 A 
ENDBRANCH   2  14
BRANCH   1  20
ATOM     20  S   UNL     1       9.034  13.564  22.220  0.00  0.00    +0.000 S 
ATOM     21  O   UNL     1       9.694  14.756  22.727  0.00  0.00    +0.000 OA
ATOM     22  O   UNL     1       9.893  12.503  21.774  0.00  0.00    +0.000 OA
BRANCH  20  27
ATOM     23  C   UNL     1       5.204  11.891  26.576  0.00  0.00    +0.000 C 
ATOM     24  C   UNL     1       6.235  12.186  25.527  0.00  0.00    +0.000 A 
ATOM     25  C   UNL     1       6.104  11.675  24.229  0.00  0.00    +0.000 A 
ATOM     26  C   UNL     1       7.037  11.998  23.240  0.00  0.00    +0.000 A 
ATOM     27  C   UNL     1       8.057  12.908  23.541  0.00  0.00    +0.000 A 
ATOM     28  C   UNL     1       8.261  13.343  24.847  0.00  0.00    +0.000 A 
ATOM     29  C   UNL     1       7.344  12.985  25.840  0.00  0.00    +0.000 A 
ENDBRANCH  20  27
ENDBRANCH   1  20
BRANCH   5  30
ATOM     30  C   UNL     1       5.583  17.200  19.626  0.00  0.00    +0.000 C 
ATOM     31  O   UNL     1       5.440  18.351  20.018  0.00  0.00    +0.000 OA
BRANCH  30  32
ATOM     32  O   UNL     1       4.608  16.645  18.907  0.00  0.00    +0.000 OA
ATOM     33  H   UNL     1       5.108  15.960  18.406  0.00  0.00    +0.000 HD
ENDBRANCH  30  32
ENDBRANCH   5  30
TORSDOF 6
ENDMDL
