MODEL 1
REMARK VINA RESULT:      -6.9      0.000      0.000
REMARK  Name = 
REMARK  6 active torsions:
REMARK  status: ('A' for Active; 'I' for Inactive)
REMARK    1  A    between atoms: C_1  and  C_2
REMARK    2  A    between atoms: C_6  and  C_8
REMARK    3  A    between atoms: C_8  and  S_9
REMARK    4  A    between atoms: S_9  and  C_10
REMARK    5  A    between atoms: C_13  and  C_14
REMARK    6  A    between atoms: C_15  and  O_16
REMARK                            x       y       z     vdW  Elec       q    Type
REMARK                         _______ _______ _______ _____ _____    ______ ____
ROOT
ATOM      1  C   UNL     1       5.919   6.518  18.107  0.00  0.00    +0.000 C 
ENDROOT
BRANCH   1   7
ATOM      2  C   UNL     1       5.981   2.837  11.679  0.00  0.00    +0.000 C 
ATOM      3  C   UNL     1       6.146   3.653  12.893  0.00  0.00    +0.000 A 
ATOM      4  C   UNL     1       5.474   3.778  14.085  0.00  0.00    +0.000 A 
ATOM      5  C   UNL     1       6.198   4.765  14.805  0.00  0.00    +0.000 A 
ATOM      6  N   UNL     1       5.849   5.215  16.065  0.00  0.00    +0.000 N 
ATOM      7  C   UNL     1       6.534   6.200  16.752  0.00  0.00    +0.000 C 
ATOM      8  O   UNL     1       7.559   6.768  16.381  0.00  0.00    +0.000 OA
ATOM      9  N   UNL     1       7.245   5.183  14.090  0.00  0.00    +0.000 NA
ATOM     10  O   UNL     1       7.208   4.497  12.897  0.00  0.00    +0.000 OA
ATOM     11  H   UNL     1       4.970   4.874  16.431  0.00  0.00    +0.000 HD
ENDBRANCH   1   7
BRANCH   1  12
ATOM     12  S   UNL     1       6.116   5.148  19.281  0.00  0.00    +0.000 S 
BRANCH  12  13
ATOM     13  C   UNL     1       4.510   4.395  19.218  0.00  0.00    +0.000 A 
ATOM     14  N   UNL     1       4.360   3.384  18.336  0.00  0.00    +0.000 NA
ATOM     15  N   UNL     1       3.148   2.782  18.189  0.00  0.00    +0.000 NA
ATOM     16  C   UNL     1       2.118   3.210  18.940  0.00  0.00    +0.000 A 
ATOM     17  C   UNL     1       0.807   2.530  18.737  0.00  0.00    +0.000 C 
ATOM     18  C   UNL     1       2.330   4.252  19.829  0.00  0.00    +0.000 A 
ATOM     19  N   UNL     1       3.510   4.882  19.974  0.00  0.00    +0.000 NA
BRANCH  18  20
ATOM     20  O   UNL     1       1.349   4.753  20.639  0.00  0.00    +0.000 OA
ATOM     21  H   UNL     1       0.487   4.456  20.317  0.00  0.00    +0.000 HD
ENDBRANCH  18  20
ENDBRANCH  12  13
ENDBRANCH   1  12
TORSDOF 4
ENDMDL
MODEL 2
REMARK VINA RESULT:      -6.9      1.721      6.037
REMARK  Name = 
REMARK  6 active torsions:
REMARK  status: ('A' for Active; 'I' for Inactive)
REMARK    1  A    between atoms: C_1  and  C_2
REMARK    2  A    between atoms: C_6  and  C_8
REMARK    3  A    between atoms: C_8  and  S_9
REMARK    4  A    between atoms: S_9  and  C_10
REMARK    5  A    between atoms: C_13  and  C_14
REMARK    6  A    between atoms: C_15  and  O_16
REMARK                            x       y       z     vdW  Elec       q    Type
REMARK                         _______ _______ _______ _____ _____    ______ ____
ROOT
ATOM      1  C   UNL     1       6.315   6.838  17.814  0.00  0.00    +0.000 C 
ENDROOT
BRANCH   1   7
ATOM      2  C   UNL     1       0.699   2.133  18.900  0.00  0.00    +0.000 C 
ATOM      3  C   UNL     1       1.676   3.191  18.595  0.00  0.00    +0.000 A 
ATOM      4  C   UNL     1       3.036   3.332  18.726  0.00  0.00    +0.000 A 
ATOM      5  C   UNL     1       3.314   4.629  18.220  0.00  0.00    +0.000 A 
ATOM      6  N   UNL     1       4.577   5.190  18.182  0.00  0.00    +0.000 N 
ATOM      7  C   UNL     1       4.843   6.466  17.721  0.00  0.00    +0.000 C 
ATOM      8  O   UNL     1       4.028   7.251  17.238  0.00  0.00    +0.000 OA
ATOM      9  N   UNL     1       2.189   5.211  17.798  0.00  0.00    +0.000 NA
ATOM     10  O   UNL     1       1.169   4.319  18.039  0.00  0.00    +0.000 OA
ATOM     11  H   UNL     1       5.312   4.663  18.633  0.00  0.00    +0.000 HD
ENDBRANCH   1   7
BRANCH   1  12
ATOM     12  S   UNL     1       7.394   5.391  17.631  0.00  0.00    +0.000 S 
BRANCH  12  13
ATOM     13  C   UNL     1       7.029   4.886  15.969  0.00  0.00    +0.000 A 
ATOM     14  N   UNL     1       6.132   3.885  15.835  0.00  0.00    +0.000 NA
ATOM     15  N   UNL     1       5.830   3.403  14.598  0.00  0.00    +0.000 NA
ATOM     16  C   UNL     1       6.433   3.948  13.527  0.00  0.00    +0.000 A 
ATOM     17  C   UNL     1       6.080   3.381  12.194  0.00  0.00    +0.000 C 
ATOM     18  C   UNL     1       7.345   4.974  13.725  0.00  0.00    +0.000 A 
ATOM     19  N   UNL     1       7.682   5.448  14.938  0.00  0.00    +0.000 NA
BRANCH  18  20
ATOM     20  O   UNL     1       8.004   5.594  12.701  0.00  0.00    +0.000 OA
ATOM     21  H   UNL     1       8.445   4.928  12.156  0.00  0.00    +0.000 HD
ENDBRANCH  18  20
ENDBRANCH  12  13
ENDBRANCH   1  12
TORSDOF 4
ENDMDL
MODEL 3
REMARK VINA RESULT:      -6.9      2.451      2.937
REMARK  Name = 
REMARK  6 active torsions:
REMARK  status: ('A' for Active; 'I' for Inactive)
REMARK    1  A    between atoms: C_1  and  C_2
REMARK    2  A    between atoms: C_6  and  C_8
REMARK    3  A    between atoms: C_8  and  S_9
REMARK    4  A    between atoms: S_9  and  C_10
REMARK    5  A    between atoms: C_13  and  C_14
REMARK    6  A    between atoms: C_15  and  O_16
REMARK                            x       y       z     vdW  Elec       q    Type
REMARK                         _______ _______ _______ _____ _____    ______ ____
ROOT
ATOM      1  C   UNL     1       5.575   4.228  19.183  0.00  0.00    +0.000 C 
ENDROOT
BRANCH   1   7
ATOM      2  C   UNL     1       7.152   4.340  11.946  0.00  0.00    +0.000 C 
ATOM      3  C   UNL     1       6.997   4.449  13.406  0.00  0.00    +0.000 A 
ATOM      4  C   UNL     1       6.197   3.852  14.350  0.00  0.00    +0.000 A 
ATOM      5  C   UNL     1       6.591   4.441  15.581  0.00  0.00    +0.000 A 
ATOM      6  N   UNL     1       6.020   4.136  16.802  0.00  0.00    +0.000 N 
ATOM      7  C   UNL     1       6.381   4.734  17.995  0.00  0.00    +0.000 C 
ATOM      8  O   UNL     1       7.276   5.562  18.154  0.00  0.00    +0.000 OA
ATOM      9  N   UNL     1       7.578   5.318  15.378  0.00  0.00    +0.000 NA
ATOM     10  O   UNL     1       7.824   5.328  14.023  0.00  0.00    +0.000 OA
ATOM     11  H   UNL     1       5.214   3.527  16.777  0.00  0.00    +0.000 HD
ENDBRANCH   1   7
BRANCH   1  12
ATOM     12  S   UNL     1       3.847   3.897  18.738  0.00  0.00    +0.000 S 
BRANCH  12  13
ATOM     13  C   UNL     1       3.161   5.534  18.744  0.00  0.00    +0.000 A 
ATOM     14  N   UNL     1       3.289   6.238  17.598  0.00  0.00    +0.000 NA
ATOM     15  N   UNL     1       2.834   7.519  17.532  0.00  0.00    +0.000 NA
ATOM     16  C   UNL     1       2.254   8.057  18.619  0.00  0.00    +0.000 A 
ATOM     17  C   UNL     1       1.780   9.466  18.504  0.00  0.00    +0.000 C 
ATOM     18  C   UNL     1       2.149   7.287  19.768  0.00  0.00    +0.000 A 
ATOM     19  N   UNL     1       2.616   6.029  19.868  0.00  0.00    +0.000 NA
BRANCH  18  20
ATOM     20  O   UNL     1       1.571   7.742  20.921  0.00  0.00    +0.000 OA
ATOM     21  H   UNL     1       2.261   7.913  21.577  0.00  0.00    +0.000 HD
ENDBRANCH  18  20
ENDBRANCH  12  13
ENDBRANCH   1  12
TORSDOF 4
ENDMDL
MODEL 4
REMARK VINA RESULT:      -6.9      3.396      4.596
REMARK  Name = 
REMARK  6 active torsions:
REMARK  status: ('A' for Active; 'I' for Inactive)
REMARK    1  A    between atoms: C_1  and  C_2
REMARK    2  A    between atoms: C_6  and  C_8
REMARK    3  A    between atoms: C_8  and  S_9
REMARK    4  A    between atoms: S_9  and  C_10
REMARK    5  A    between atoms: C_13  and  C_14
REMARK    6  A    between atoms: C_15  and  O_16
REMARK                            x       y       z     vdW  Elec       q    Type
REMARK                         _______ _______ _______ _____ _____    ______ ____
ROOT
ATOM      1  C   UNL     1       3.405   1.806  18.483  0.00  0.00    +0.000 C 
ENDROOT
BRANCH   1   7
ATOM      2  C   UNL     1       7.848   7.678  17.686  0.00  0.00    +0.000 C 
ATOM      3  C   UNL     1       7.070   6.474  18.018  0.00  0.00    +0.000 A 
ATOM      4  C   UNL     1       6.080   5.750  17.400  0.00  0.00    +0.000 A 
ATOM      5  C   UNL     1       5.790   4.692  18.303  0.00  0.00    +0.000 A 
ATOM      6  N   UNL     1       4.827   3.726  18.078  0.00  0.00    +0.000 N 
ATOM      7  C   UNL     1       4.521   2.717  18.973  0.00  0.00    +0.000 C 
ATOM      8  O   UNL     1       5.081   2.500  20.046  0.00  0.00    +0.000 OA
ATOM      9  N   UNL     1       6.574   4.777  19.380  0.00  0.00    +0.000 NA
ATOM     10  O   UNL     1       7.365   5.890  19.206  0.00  0.00    +0.000 OA
ATOM     11  H   UNL     1       4.246   3.858  17.262  0.00  0.00    +0.000 HD
ENDBRANCH   1   7
BRANCH   1  12
ATOM     12  S   UNL     1       1.786   2.307  19.133  0.00  0.00    +0.000 S 
BRANCH  12  13
ATOM     13  C   UNL     1       1.899   4.075  19.037  0.00  0.00    +0.000 A 
ATOM     14  N   UNL     1       2.049   4.597  17.801  0.00  0.00    +0.000 NA
ATOM     15  N   UNL     1       2.192   5.941  17.642  0.00  0.00    +0.000 NA
ATOM     16  C   UNL     1       2.171   6.727  18.732  0.00  0.00    +0.000 A 
ATOM     17  C   UNL     1       2.342   8.192  18.511  0.00  0.00    +0.000 C 
ATOM     18  C   UNL     1       2.013   6.137  19.977  0.00  0.00    +0.000 A 
ATOM     19  N   UNL     1       1.898   4.809  20.163  0.00  0.00    +0.000 NA
BRANCH  18  20
ATOM     20  O   UNL     1       1.974   6.851  21.142  0.00  0.00    +0.000 OA
ATOM     21  H   UNL     1       2.878   7.020  21.442  0.00  0.00    +0.000 HD
ENDBRANCH  18  20
ENDBRANCH  12  13
ENDBRANCH   1  12
TORSDOF 4
ENDMDL
MODEL 5
REMARK VINA RESULT:      -6.8      2.510      3.347
REMARK  Name = 
REMARK  6 active torsions:
REMARK  status: ('A' for Active; 'I' for Inactive)
REMARK    1  A    between atoms: C_1  and  C_2
REMARK    2  A    between atoms: C_6  and  C_8
REMARK    3  A    between atoms: C_8  and  S_9
REMARK    4  A    between atoms: S_9  and  C_10
REMARK    5  A    between atoms: C_13  and  C_14
REMARK    6  A    between atoms: C_15  and  O_16
REMARK                            x       y       z     vdW  Elec       q    Type
REMARK                         _______ _______ _______ _____ _____    ______ ____
ROOT
ATOM      1  C   UNL     1       4.408   3.199  19.758  0.00  0.00    +0.000 C 
ENDROOT
BRANCH   1   7
ATOM      2  C   UNL     1       7.349   4.981  13.197  0.00  0.00    +0.000 C 
ATOM      3  C   UNL     1       6.897   4.763  14.581  0.00  0.00    +0.000 A 
ATOM      4  C   UNL     1       6.011   3.914  15.196  0.00  0.00    +0.000 A 
ATOM      5  C   UNL     1       6.077   4.259  16.573  0.00  0.00    +0.000 A 
ATOM      6  N   UNL     1       5.321   3.653  17.559  0.00  0.00    +0.000 N 
ATOM      7  C   UNL     1       5.361   4.012  18.894  0.00  0.00    +0.000 C 
ATOM      8  O   UNL     1       6.094   4.861  19.399  0.00  0.00    +0.000 OA
ATOM      9  N   UNL     1       6.963   5.239  16.761  0.00  0.00    +0.000 NA
ATOM     10  O   UNL     1       7.467   5.559  15.520  0.00  0.00    +0.000 OA
ATOM     11  H   UNL     1       4.620   2.997  17.243  0.00  0.00    +0.000 HD
ENDBRANCH   1   7
BRANCH   1  12
ATOM     12  S   UNL     1       2.697   3.299  19.162  0.00  0.00    +0.000 S 
BRANCH  12  13
ATOM     13  C   UNL     1       2.473   5.055  19.027  0.00  0.00    +0.000 A 
ATOM     14  N   UNL     1       2.606   5.578  17.789  0.00  0.00    +0.000 NA
ATOM     15  N   UNL     1       2.498   6.922  17.603  0.00  0.00    +0.000 NA
ATOM     16  C   UNL     1       2.250   7.705  18.668  0.00  0.00    +0.000 A 
ATOM     17  C   UNL     1       2.151   9.171  18.419  0.00  0.00    +0.000 C 
ATOM     18  C   UNL     1       2.122   7.112  19.915  0.00  0.00    +0.000 A 
ATOM     19  N   UNL     1       2.253   5.790  20.130  0.00  0.00    +0.000 NA
BRANCH  18  20
ATOM     20  O   UNL     1       1.865   7.821  21.055  0.00  0.00    +0.000 OA
ATOM     21  H   UNL     1       1.446   7.240  21.704  0.00  0.00    +0.000 HD
ENDBRANCH  18  20
ENDBRANCH  12  13
ENDBRANCH   1  12
TORSDOF 4
ENDMDL
MODEL 6
REMARK VINA RESULT:      -6.8      2.715      3.297
REMARK  Name = 
REMARK  6 active torsions:
REMARK  status: ('A' for Active; 'I' for Inactive)
REMARK    1  A    between atoms: C_1  and  C_2
REMARK    2  A    between atoms: C_6  and  C_8
REMARK    3  A    between atoms: C_8  and  S_9
REMARK    4  A    between atoms: S_9  and  C_10
REMARK    5  A    between atoms: C_13  and  C_14
REMARK    6  A    between atoms: C_15  and  O_16
REMARK                            x       y       z     vdW  Elec       q    Type
REMARK                         _______ _______ _______ _____ _____    ______ ____
ROOT
ATOM      1  C   UNL     1       5.795   5.204  19.317  0.00  0.00    +0.000 C 
ENDROOT
BRANCH   1   7
ATOM      2  C   UNL     1       6.923   3.992  12.097  0.00  0.00    +0.000 C 
ATOM      3  C   UNL     1       6.859   4.363  13.521  0.00  0.00    +0.000 A 
ATOM      4  C   UNL     1       6.116   3.959  14.602  0.00  0.00    +0.000 A 
ATOM      5  C   UNL     1       6.589   4.752  15.681  0.00  0.00    +0.000 A 
ATOM      6  N   UNL     1       6.093   4.680  16.970  0.00  0.00    +0.000 N 
ATOM      7  C   UNL     1       6.530   5.476  18.012  0.00  0.00    +0.000 C 
ATOM      8  O   UNL     1       7.438   6.304  17.966  0.00  0.00    +0.000 OA
ATOM      9  N   UNL     1       7.566   5.561  15.266  0.00  0.00    +0.000 NA
ATOM     10  O   UNL     1       7.727   5.325  13.919  0.00  0.00    +0.000 OA
ATOM     11  H   UNL     1       5.283   4.090  17.103  0.00  0.00    +0.000 HD
ENDBRANCH   1   7
BRANCH   1  12
ATOM     12  S   UNL     1       4.096   4.637  19.034  0.00  0.00    +0.000 S 
BRANCH  12  13
ATOM     13  C   UNL     1       3.191   6.160  19.146  0.00  0.00    +0.000 A 
ATOM     14  N   UNL     1       2.518   6.369  20.298  0.00  0.00    +0.000 NA
ATOM     15  N   UNL     1       1.759   7.489  20.449  0.00  0.00    +0.000 NA
ATOM     16  C   UNL     1       1.704   8.374  19.439  0.00  0.00    +0.000 A 
ATOM     17  C   UNL     1       0.853   9.580  19.645  0.00  0.00    +0.000 C 
ATOM     18  C   UNL     1       2.417   8.108  18.280  0.00  0.00    +0.000 A 
ATOM     19  N   UNL     1       3.151   6.995  18.095  0.00  0.00    +0.000 NA
BRANCH  18  20
ATOM     20  O   UNL     1       2.429   8.948  17.201  0.00  0.00    +0.000 OA
ATOM     21  H   UNL     1       3.292   8.898  16.768  0.00  0.00    +0.000 HD
ENDBRANCH  18  20
ENDBRANCH  12  13
ENDBRANCH   1  12
TORSDOF 4
ENDMDL
MODEL 7
REMARK VINA RESULT:      -6.8      1.505      1.935
REMARK  Name = 
REMARK  6 active torsions:
REMARK  status: ('A' for Active; 'I' for Inactive)
REMARK    1  A    between atoms: C_1  and  C_2
REMARK    2  A    between atoms: C_6  and  C_8
REMARK    3  A    between atoms: C_8  and  S_9
REMARK    4  A    between atoms: S_9  and  C_10
REMARK    5  A    between atoms: C_13  and  C_14
REMARK    6  A    between atoms: C_15  and  O_16
REMARK                            x       y       z     vdW  Elec       q    Type
REMARK                         _______ _______ _______ _____ _____    ______ ____
ROOT
ATOM      1  C   UNL     1       5.244   6.465  18.148  0.00  0.00    +0.000 C 
ENDROOT
BRANCH   1   7
ATOM      2  C   UNL     1       6.701   3.137  11.693  0.00  0.00    +0.000 C 
ATOM      3  C   UNL     1       6.589   3.901  12.947  0.00  0.00    +0.000 A 
ATOM      4  C   UNL     1       5.720   3.908  14.011  0.00  0.00    +0.000 A 
ATOM      5  C   UNL     1       6.223   4.914  14.879  0.00  0.00    +0.000 A 
ATOM      6  N   UNL     1       5.631   5.267  16.077  0.00  0.00    +0.000 N 
ATOM      7  C   UNL     1       6.101   6.269  16.906  0.00  0.00    +0.000 C 
ATOM      8  O   UNL     1       7.117   6.940  16.735  0.00  0.00    +0.000 OA
ATOM      9  N   UNL     1       7.331   5.453  14.368  0.00  0.00    +0.000 NA
ATOM     10  O   UNL     1       7.554   4.829  13.161  0.00  0.00    +0.000 OA
ATOM     11  H   UNL     1       4.738   4.836  16.278  0.00  0.00    +0.000 HD
ENDBRANCH   1   7
BRANCH   1  12
ATOM     12  S   UNL     1       3.474   6.510  17.753  0.00  0.00    +0.000 S 
BRANCH  12  13
ATOM     13  C   UNL     1       2.837   5.256  18.836  0.00  0.00    +0.000 A 
ATOM     14  N   UNL     1       2.584   5.639  20.106  0.00  0.00    +0.000 NA
ATOM     15  N   UNL     1       2.140   4.729  21.015  0.00  0.00    +0.000 NA
ATOM     16  C   UNL     1       1.954   3.457  20.620  0.00  0.00    +0.000 A 
ATOM     17  C   UNL     1       1.477   2.493  21.652  0.00  0.00    +0.000 C 
ATOM     18  C   UNL     1       2.230   3.121  19.303  0.00  0.00    +0.000 A 
ATOM     19  N   UNL     1       2.697   3.995  18.393  0.00  0.00    +0.000 NA
BRANCH  18  20
ATOM     20  O   UNL     1       2.068   1.858  18.805  0.00  0.00    +0.000 OA
ATOM     21  H   UNL     1       2.625   1.751  18.022  0.00  0.00    +0.000 HD
ENDBRANCH  18  20
ENDBRANCH  12  13
ENDBRANCH   1  12
TORSDOF 4
ENDMDL
MODEL 8
REMARK VINA RESULT:      -6.8      1.219      1.373
REMARK  Name = 
REMARK  6 active torsions:
REMARK  status: ('A' for Active; 'I' for Inactive)
REMARK    1  A    between atoms: C_1  and  C_2
REMARK    2  A    between atoms: C_6  and  C_8
REMARK    3  A    between atoms: C_8  and  S_9
REMARK    4  A    between atoms: S_9  and  C_10
REMARK    5  A    between atoms: C_13  and  C_14
REMARK    6  A    between atoms: C_15  and  O_16
REMARK                            x       y       z     vdW  Elec       q    Type
REMARK                         _______ _______ _______ _____ _____    ______ ____
ROOT
ATOM      1  C   UNL     1       5.896   6.273  18.055  0.00  0.00    +0.000 C 
ENDROOT
BRANCH   1   7
ATOM      2  C   UNL     1       6.691   3.068  11.425  0.00  0.00    +0.000 C 
ATOM      3  C   UNL     1       6.702   3.812  12.695  0.00  0.00    +0.000 A 
ATOM      4  C   UNL     1       5.963   3.780  13.852  0.00  0.00    +0.000 A 
ATOM      5  C   UNL     1       6.534   4.791  14.672  0.00  0.00    +0.000 A 
ATOM      6  N   UNL     1       6.075   5.112  15.936  0.00  0.00    +0.000 N 
ATOM      7  C   UNL     1       6.609   6.118  16.719  0.00  0.00    +0.000 C 
ATOM      8  O   UNL     1       7.579   6.821  16.442  0.00  0.00    +0.000 OA
ATOM      9  N   UNL     1       7.560   5.370  14.044  0.00  0.00    +0.000 NA
ATOM     10  O   UNL     1       7.659   4.766  12.810  0.00  0.00    +0.000 OA
ATOM     11  H   UNL     1       5.224   4.652  16.231  0.00  0.00    +0.000 HD
ENDBRANCH   1   7
BRANCH   1  12
ATOM     12  S   UNL     1       6.082   4.801  19.099  0.00  0.00    +0.000 S 
BRANCH  12  13
ATOM     13  C   UNL     1       4.460   4.089  18.998  0.00  0.00    +0.000 A 
ATOM     14  N   UNL     1       4.029   3.431  20.095  0.00  0.00    +0.000 NA
ATOM     15  N   UNL     1       2.816   2.813  20.086  0.00  0.00    +0.000 NA
ATOM     16  C   UNL     1       2.064   2.881  18.974  0.00  0.00    +0.000 A 
ATOM     17  C   UNL     1       0.748   2.181  19.005  0.00  0.00    +0.000 C 
ATOM     18  C   UNL     1       2.557   3.571  17.877  0.00  0.00    +0.000 A 
ATOM     19  N   UNL     1       3.764   4.165  17.851  0.00  0.00    +0.000 NA
BRANCH  18  20
ATOM     20  O   UNL     1       1.866   3.700  16.704  0.00  0.00    +0.000 OA
ATOM     21  H   UNL     1       2.373   3.291  15.989  0.00  0.00    +0.000 HD
ENDBRANCH  18  20
ENDBRANCH  12  13
ENDBRANCH   1  12
TORSDOF 4
ENDMDL
MODEL 9
REMARK VINA RESULT:      -6.7      2.983      6.576
REMARK  Name = 
REMARK  6 active torsions:
REMARK  status: ('A' for Active; 'I' for Inactive)
REMARK    1  A    between atoms: C_1  and  C_2
REMARK    2  A    between atoms: C_6  and  C_8
REMARK    3  A    between atoms: C_8  and  S_9
REMARK    4  A    between atoms: S_9  and  C_10
REMARK    5  A    between atoms: C_13  and  C_14
REMARK    6  A    between atoms: C_15  and  O_16
REMARK                            x       y       z     vdW  Elec       q    Type
REMARK                         _______ _______ _______ _____ _____    ______ ____
ROOT
ATOM      1  C   UNL     1       4.587   4.092  15.819  0.00  0.00    +0.000 C 
ENDROOT
BRANCH   1   7
ATOM      2  C   UNL     1       1.275   8.118  21.081  0.00  0.00    +0.000 C 
ATOM      3  C   UNL     1       1.927   7.162  20.171  0.00  0.00    +0.000 A 
ATOM      4  C   UNL     1       2.490   7.234  18.920  0.00  0.00    +0.000 A 
ATOM      5  C   UNL     1       2.936   5.913  18.650  0.00  0.00    +0.000 A 
ATOM      6  N   UNL     1       3.554   5.530  17.473  0.00  0.00    +0.000 N 
ATOM      7  C   UNL     1       3.958   4.237  17.197  0.00  0.00    +0.000 C 
ATOM      8  O   UNL     1       3.883   3.272  17.956  0.00  0.00    +0.000 OA
ATOM      9  N   UNL     1       2.671   5.115  19.687  0.00  0.00    +0.000 NA
ATOM     10  O   UNL     1       2.036   5.891  20.630  0.00  0.00    +0.000 OA
ATOM     11  H   UNL     1       3.591   6.228  16.743  0.00  0.00    +0.000 HD
ENDBRANCH   1   7
BRANCH   1  12
ATOM     12  S   UNL     1       6.353   3.686  15.918  0.00  0.00    +0.000 S 
BRANCH  12  13
ATOM     13  C   UNL     1       6.973   5.040  16.884  0.00  0.00    +0.000 A 
ATOM     14  N   UNL     1       7.183   6.198  16.221  0.00  0.00    +0.000 NA
ATOM     15  N   UNL     1       7.703   7.272  16.876  0.00  0.00    +0.000 NA
ATOM     16  C   UNL     1       7.991   7.156  18.184  0.00  0.00    +0.000 A 
ATOM     17  C   UNL     1       8.569   8.354  18.856  0.00  0.00    +0.000 C 
ATOM     18  C   UNL     1       7.754   5.943  18.813  0.00  0.00    +0.000 A 
ATOM     19  N   UNL     1       7.267   4.858  18.183  0.00  0.00    +0.000 NA
BRANCH  18  20
ATOM     20  O   UNL     1       8.008   5.728  20.139  0.00  0.00    +0.000 OA
ATOM     21  H   UNL     1       7.190   5.464  20.582  0.00  0.00    +0.000 HD
ENDBRANCH  18  20
ENDBRANCH  12  13
ENDBRANCH   1  12
TORSDOF 4
ENDMDL
