MODEL 1
REMARK VINA RESULT:      -7.0      0.000      0.000
REMARK  Name = 
REMARK  8 active torsions:
REMARK  status: ('A' for Active; 'I' for Inactive)
REMARK    1  A    between atoms: C_1  and  O_2
REMARK    2  A    between atoms: O_2  and  C_3
REMARK    3  A    between atoms: C_8  and  O_9
REMARK    4  A    between atoms: O_9  and  C_10
REMARK    5  A    between atoms: C_16  and  O_17
REMARK    6  A    between atoms: O_17  and  C_18
REMARK    7  A    between atoms: C_19  and  O_20
REMARK    8  A    between atoms: O_20  and  C_21
REMARK                            x       y       z     vdW  Elec       q    Type
REMARK                         _______ _______ _______ _____ _____    ______ ____
ROOT
ATOM      1  C   UNL     1       0.419  13.227  18.594  0.00  0.00    +0.000 A 
ATOM      2  C   UNL     1      -0.453  12.207  19.018  0.00  0.00    +0.000 A 
ATOM      3  C   UNL     1      -0.022  10.887  19.064  0.00  0.00    +0.000 A 
ATOM      4  C   UNL     1       1.233  10.525  18.576  0.00  0.00    +0.000 A 
ATOM      5  C   UNL     1       2.131  11.532  18.182  0.00  0.00    +0.000 A 
ATOM      6  C   UNL     1       1.757  12.884  18.244  0.00  0.00    +0.000 A 
ATOM      7  C   UNL     1       1.530   9.038  18.678  0.00  0.00    +0.000 C 
ATOM      8  C   UNL     1       2.817   8.581  18.020  0.00  0.00    +0.000 C 
ATOM      9  C   UNL     1       2.998   7.109  18.242  0.00  0.00    +0.000 A 
ATOM     10  C   UNL     1       3.593   6.338  17.242  0.00  0.00    +0.000 A 
ATOM     11  C   UNL     1       3.830   4.986  17.444  0.00  0.00    +0.000 A 
ATOM     12  C   UNL     1       3.505   4.373  18.665  0.00  0.00    +0.000 A 
ATOM     13  C   UNL     1       2.883   5.140  19.690  0.00  0.00    +0.000 A 
ATOM     14  C   UNL     1       2.599   6.511  19.461  0.00  0.00    +0.000 A 
ATOM     15  C   UNL     1       1.822   7.303  20.500  0.00  0.00    +0.000 C 
ATOM     16  N   UNL     1       1.472   8.697  20.120  0.00  0.00    +0.000 NA
ATOM     17  C   UNL     1       0.216   9.203  20.787  0.00  0.00    +0.000 C 
ATOM     18  C   UNL     1      -0.806   9.814  19.770  0.00  0.00    +0.000 C 
ENDROOT
BRANCH   1  20
ATOM     19  C   UNL     1      -0.201  15.328  19.659  0.00  0.00    +0.000 C 
ATOM     20  O   UNL     1       0.007  14.521  18.556  0.00  0.00    +0.000 OA
ENDBRANCH   1  20
BRANCH   6  21
ATOM     21  O   UNL     1       2.729  13.812  18.019  0.00  0.00    +0.000 OA
ATOM     22  C   UNL     1       3.521  14.428  18.971  0.00  0.00    +0.000 C 
ENDBRANCH   6  21
BRANCH  12  23
ATOM     23  O   UNL     1       3.767   3.053  18.868  0.00  0.00    +0.000 OA
ATOM     24  C   UNL     1       3.131   1.993  18.255  0.00  0.00    +0.000 C 
ENDBRANCH  12  23
BRANCH  13  25
ATOM     25  O   UNL     1       2.535   4.624  20.904  0.00  0.00    +0.000 OA
ATOM     26  C   UNL     1       1.529   3.723  21.186  0.00  0.00    +0.000 C 
ENDBRANCH  13  25
TORSDOF 4
ENDMDL
MODEL 2
REMARK VINA RESULT:      -5.9      1.073      1.132
REMARK  Name = 
REMARK  8 active torsions:
REMARK  status: ('A' for Active; 'I' for Inactive)
REMARK    1  A    between atoms: C_1  and  O_2
REMARK    2  A    between atoms: O_2  and  C_3
REMARK    3  A    between atoms: C_8  and  O_9
REMARK    4  A    between atoms: O_9  and  C_10
REMARK    5  A    between atoms: C_16  and  O_17
REMARK    6  A    between atoms: O_17  and  C_18
REMARK    7  A    between atoms: C_19  and  O_20
REMARK    8  A    between atoms: O_20  and  C_21
REMARK                            x       y       z     vdW  Elec       q    Type
REMARK                         _______ _______ _______ _____ _____    ______ ____
ROOT
ATOM      1  C   UNL     1       0.901  12.551  19.277  0.00  0.00    +0.000 A 
ATOM      2  C   UNL     1       0.063  11.661  19.975  0.00  0.00    +0.000 A 
ATOM      3  C   UNL     1       0.301  10.293  19.935  0.00  0.00    +0.000 A 
ATOM      4  C   UNL     1       1.290   9.761  19.107  0.00  0.00    +0.000 A 
ATOM      5  C   UNL     1       2.159  10.635  18.430  0.00  0.00    +0.000 A 
ATOM      6  C   UNL     1       2.011  12.025  18.556  0.00  0.00    +0.000 A 
ATOM      7  C   UNL     1       1.395   8.246  19.166  0.00  0.00    +0.000 C 
ATOM      8  C   UNL     1       2.350   7.618  18.169  0.00  0.00    +0.000 C 
ATOM      9  C   UNL     1       2.384   6.132  18.377  0.00  0.00    +0.000 A 
ATOM     10  C   UNL     1       2.539   5.295  17.271  0.00  0.00    +0.000 A 
ATOM     11  C   UNL     1       2.637   3.921  17.438  0.00  0.00    +0.000 A 
ATOM     12  C   UNL     1       2.611   3.348  18.719  0.00  0.00    +0.000 A 
ATOM     13  C   UNL     1       2.436   4.186  19.857  0.00  0.00    +0.000 A 
ATOM     14  C   UNL     1       2.289   5.585  19.678  0.00  0.00    +0.000 A 
ATOM     15  C   UNL     1       1.975   6.469  20.874  0.00  0.00    +0.000 C 
ATOM     16  N   UNL     1       1.725   7.902  20.570  0.00  0.00    +0.000 NA
ATOM     17  C   UNL     1       0.808   8.574  21.563  0.00  0.00    +0.000 C 
ATOM     18  C   UNL     1      -0.376   9.335  20.877  0.00  0.00    +0.000 C 
ENDROOT
BRANCH   1  20
ATOM     19  C   UNL     1      -0.358  14.552  18.691  0.00  0.00    +0.000 C 
ATOM     20  O   UNL     1       0.679  13.891  19.321  0.00  0.00    +0.000 OA
ENDBRANCH   1  20
BRANCH   6  21
ATOM     21  O   UNL     1       2.991  12.808  18.022  0.00  0.00    +0.000 OA
ATOM     22  C   UNL     1       3.561  13.928  18.598  0.00  0.00    +0.000 C 
ENDBRANCH   6  21
BRANCH  12  23
ATOM     23  O   UNL     1       2.735   2.002  18.879  0.00  0.00    +0.000 OA
ATOM     24  C   UNL     1       3.896   1.269  18.739  0.00  0.00    +0.000 C 
ENDBRANCH  12  23
BRANCH  13  25
ATOM     25  O   UNL     1       2.399   3.712  21.136  0.00  0.00    +0.000 OA
ATOM     26  C   UNL     1       1.486   2.839  21.692  0.00  0.00    +0.000 C 
ENDBRANCH  13  25
TORSDOF 4
ENDMDL
MODEL 3
REMARK VINA RESULT:      -5.9      2.717      3.521
REMARK  Name = 
REMARK  8 active torsions:
REMARK  status: ('A' for Active; 'I' for Inactive)
REMARK    1  A    between atoms: C_1  and  O_2
REMARK    2  A    between atoms: O_2  and  C_3
REMARK    3  A    between atoms: C_8  and  O_9
REMARK    4  A    between atoms: O_9  and  C_10
REMARK    5  A    between atoms: C_16  and  O_17
REMARK    6  A    between atoms: O_17  and  C_18
REMARK    7  A    between atoms: C_19  and  O_20
REMARK    8  A    between atoms: O_20  and  C_21
REMARK                            x       y       z     vdW  Elec       q    Type
REMARK                         _______ _______ _______ _____ _____    ______ ____
ROOT
ATOM      1  C   UNL     1      -1.018  14.390  23.022  0.00  0.00    +0.000 A 
ATOM      2  C   UNL     1      -1.599  13.129  23.251  0.00  0.00    +0.000 A 
ATOM      3  C   UNL     1      -1.115  12.002  22.597  0.00  0.00    +0.000 A 
ATOM      4  C   UNL     1      -0.135  12.112  21.611  0.00  0.00    +0.000 A 
ATOM      5  C   UNL     1       0.482  13.356  21.393  0.00  0.00    +0.000 A 
ATOM      6  C   UNL     1       0.091  14.483  22.133  0.00  0.00    +0.000 A 
ATOM      7  C   UNL     1       0.256  10.785  20.980  0.00  0.00    +0.000 C 
ATOM      8  C   UNL     1       1.204  10.876  19.800  0.00  0.00    +0.000 C 
ATOM      9  C   UNL     1       1.535   9.496  19.316  0.00  0.00    +0.000 A 
ATOM     10  C   UNL     1       1.730   9.282  17.950  0.00  0.00    +0.000 A 
ATOM     11  C   UNL     1       2.098   8.030  17.480  0.00  0.00    +0.000 A 
ATOM     12  C   UNL     1       2.311   6.962  18.366  0.00  0.00    +0.000 A 
ATOM     13  C   UNL     1       2.101   7.158  19.761  0.00  0.00    +0.000 A 
ATOM     14  C   UNL     1       1.678   8.427  20.232  0.00  0.00    +0.000 A 
ATOM     15  C   UNL     1       1.330   8.608  21.701  0.00  0.00    +0.000 C 
ATOM     16  N   UNL     1       0.787   9.940  22.077  0.00  0.00    +0.000 NA
ATOM     17  C   UNL     1      -0.132   9.896  23.273  0.00  0.00    +0.000 C 
ATOM     18  C   UNL     1      -1.501  10.609  23.012  0.00  0.00    +0.000 C 
ENDROOT
BRANCH   1  20
ATOM     19  C   UNL     1      -2.776  15.970  23.611  0.00  0.00    +0.000 C 
ATOM     20  O   UNL     1      -1.480  15.494  23.666  0.00  0.00    +0.000 OA
ENDBRANCH   1  20
BRANCH   6  21
ATOM     21  O   UNL     1       0.848  15.610  22.000  0.00  0.00    +0.000 OA
ATOM     22  C   UNL     1       2.224  15.699  22.102  0.00  0.00    +0.000 C 
ENDBRANCH   6  21
BRANCH  12  23
ATOM     23  O   UNL     1       2.700   5.744  17.902  0.00  0.00    +0.000 OA
ATOM     24  C   UNL     1       3.998   5.334  17.679  0.00  0.00    +0.000 C 
ENDBRANCH  12  23
BRANCH  13  25
ATOM     25  O   UNL     1       2.285   6.176  20.690  0.00  0.00    +0.000 OA
ATOM     26  C   UNL     1       1.702   4.926  20.730  0.00  0.00    +0.000 C 
ENDBRANCH  13  25
TORSDOF 4
ENDMDL
MODEL 4
REMARK VINA RESULT:      -5.8      3.120      8.659
REMARK  Name = 
REMARK  8 active torsions:
REMARK  status: ('A' for Active; 'I' for Inactive)
REMARK    1  A    between atoms: C_1  and  O_2
REMARK    2  A    between atoms: O_2  and  C_3
REMARK    3  A    between atoms: C_8  and  O_9
REMARK    4  A    between atoms: O_9  and  C_10
REMARK    5  A    between atoms: C_16  and  O_17
REMARK    6  A    between atoms: O_17  and  C_18
REMARK    7  A    between atoms: C_19  and  O_20
REMARK    8  A    between atoms: O_20  and  C_21
REMARK                            x       y       z     vdW  Elec       q    Type
REMARK                         _______ _______ _______ _____ _____    ______ ____
ROOT
ATOM      1  C   UNL     1       2.324   7.627  18.577  0.00  0.00    +0.000 A 
ATOM      2  C   UNL     1       2.010   8.852  17.958  0.00  0.00    +0.000 A 
ATOM      3  C   UNL     1       1.358   9.852  18.669  0.00  0.00    +0.000 A 
ATOM      4  C   UNL     1       0.890   9.623  19.963  0.00  0.00    +0.000 A 
ATOM      5  C   UNL     1       1.225   8.421  20.611  0.00  0.00    +0.000 A 
ATOM      6  C   UNL     1       1.990   7.446  19.950  0.00  0.00    +0.000 A 
ATOM      7  C   UNL     1       0.177  10.815  20.581  0.00  0.00    +0.000 C 
ATOM      8  C   UNL     1      -0.481  10.560  21.923  0.00  0.00    +0.000 C 
ATOM      9  C   UNL     1      -1.100  11.830  22.427  0.00  0.00    +0.000 A 
ATOM     10  C   UNL     1      -2.289  11.764  23.156  0.00  0.00    +0.000 A 
ATOM     11  C   UNL     1      -2.851  12.916  23.688  0.00  0.00    +0.000 A 
ATOM     12  C   UNL     1      -2.224  14.162  23.530  0.00  0.00    +0.000 A 
ATOM     13  C   UNL     1      -1.020  14.249  22.776  0.00  0.00    +0.000 A 
ATOM     14  C   UNL     1      -0.474  13.077  22.193  0.00  0.00    +0.000 A 
ATOM     15  C   UNL     1       0.738  13.183  21.282  0.00  0.00    +0.000 C 
ATOM     16  N   UNL     1       1.166  11.918  20.628  0.00  0.00    +0.000 NA
ATOM     17  C   UNL     1       1.860  12.133  19.305  0.00  0.00    +0.000 C 
ATOM     18  C   UNL     1       1.255  11.261  18.154  0.00  0.00    +0.000 C 
ENDROOT
BRANCH   1  20
ATOM     19  C   UNL     1       4.266   6.727  17.414  0.00  0.00    +0.000 C 
ATOM     20  O   UNL     1       2.971   6.649  17.890  0.00  0.00    +0.000 OA
ENDBRANCH   1  20
BRANCH   6  21
ATOM     21  O   UNL     1       2.429   6.390  20.691  0.00  0.00    +0.000 OA
ATOM     22  C   UNL     1       1.906   5.110  20.697  0.00  0.00    +0.000 C 
ENDBRANCH   6  21
BRANCH  12  23
ATOM     23  O   UNL     1      -2.765  15.284  24.079  0.00  0.00    +0.000 OA
ATOM     24  C   UNL     1      -2.993  15.506  25.421  0.00  0.00    +0.000 C 
ENDBRANCH  12  23
BRANCH  13  25
ATOM     25  O   UNL     1      -0.347  15.419  22.574  0.00  0.00    +0.000 OA
ATOM     26  C   UNL     1      -0.677  16.452  21.720  0.00  0.00    +0.000 C 
ENDBRANCH  13  25
TORSDOF 4
ENDMDL
MODEL 5
REMARK VINA RESULT:      -5.6      2.625      8.488
REMARK  Name = 
REMARK  8 active torsions:
REMARK  status: ('A' for Active; 'I' for Inactive)
REMARK    1  A    between atoms: C_1  and  O_2
REMARK    2  A    between atoms: O_2  and  C_3
REMARK    3  A    between atoms: C_8  and  O_9
REMARK    4  A    between atoms: O_9  and  C_10
REMARK    5  A    between atoms: C_16  and  O_17
REMARK    6  A    between atoms: O_17  and  C_18
REMARK    7  A    between atoms: C_19  and  O_20
REMARK    8  A    between atoms: O_20  and  C_21
REMARK                            x       y       z     vdW  Elec       q    Type
REMARK                         _______ _______ _______ _____ _____    ______ ____
ROOT
ATOM      1  C   UNL     1       2.485   6.701  18.565  0.00  0.00    +0.000 A 
ATOM      2  C   UNL     1       2.088   7.846  17.850  0.00  0.00    +0.000 A 
ATOM      3  C   UNL     1       1.479   8.909  18.506  0.00  0.00    +0.000 A 
ATOM      4  C   UNL     1       1.133   8.816  19.854  0.00  0.00    +0.000 A 
ATOM      5  C   UNL     1       1.552   7.695  20.593  0.00  0.00    +0.000 A 
ATOM      6  C   UNL     1       2.278   6.665  19.973  0.00  0.00    +0.000 A 
ATOM      7  C   UNL     1       0.450  10.057  20.403  0.00  0.00    +0.000 C 
ATOM      8  C   UNL     1      -0.080   9.940  21.819  0.00  0.00    +0.000 C 
ATOM      9  C   UNL     1      -0.681  11.249  22.238  0.00  0.00    +0.000 A 
ATOM     10  C   UNL     1      -1.799  11.247  23.075  0.00  0.00    +0.000 A 
ATOM     11  C   UNL     1      -2.338  12.441  23.529  0.00  0.00    +0.000 A 
ATOM     12  C   UNL     1      -1.757  13.672  23.184  0.00  0.00    +0.000 A 
ATOM     13  C   UNL     1      -0.627  13.693  22.318  0.00  0.00    +0.000 A 
ATOM     14  C   UNL     1      -0.108  12.472  21.817  0.00  0.00    +0.000 A 
ATOM     15  C   UNL     1       1.016  12.495  20.794  0.00  0.00    +0.000 C 
ATOM     16  N   UNL     1       1.414  11.172  20.243  0.00  0.00    +0.000 NA
ATOM     17  C   UNL     1       1.983  11.252  18.847  0.00  0.00    +0.000 C 
ATOM     18  C   UNL     1       1.298  10.253  17.855  0.00  0.00    +0.000 C 
ENDROOT
BRANCH   1  20
ATOM     19  C   UNL     1       2.483   4.470  17.585  0.00  0.00    +0.000 C 
ATOM     20  O   UNL     1       3.091   5.663  17.930  0.00  0.00    +0.000 OA
ENDBRANCH   1  20
BRANCH   6  21
ATOM     21  O   UNL     1       2.805   5.701  20.780  0.00  0.00    +0.000 OA
ATOM     22  C   UNL     1       2.180   4.542  21.201  0.00  0.00    +0.000 C 
ENDBRANCH   6  21
BRANCH  12  23
ATOM     23  O   UNL     1      -2.274  14.839  23.656  0.00  0.00    +0.000 OA
ATOM     24  C   UNL     1      -3.436  15.447  23.229  0.00  0.00    +0.000 C 
ENDBRANCH  12  23
BRANCH  13  25
ATOM     25  O   UNL     1      -0.002  14.843  21.933  0.00  0.00    +0.000 OA
ATOM     26  C   UNL     1      -0.383  15.725  20.942  0.00  0.00    +0.000 C 
ENDBRANCH  13  25
TORSDOF 4
ENDMDL
MODEL 6
REMARK VINA RESULT:      -5.6      1.425      8.031
REMARK  Name = 
REMARK  8 active torsions:
REMARK  status: ('A' for Active; 'I' for Inactive)
REMARK    1  A    between atoms: C_1  and  O_2
REMARK    2  A    between atoms: O_2  and  C_3
REMARK    3  A    between atoms: C_8  and  O_9
REMARK    4  A    between atoms: O_9  and  C_10
REMARK    5  A    between atoms: C_16  and  O_17
REMARK    6  A    between atoms: O_17  and  C_18
REMARK    7  A    between atoms: C_19  and  O_20
REMARK    8  A    between atoms: O_20  and  C_21
REMARK                            x       y       z     vdW  Elec       q    Type
REMARK                         _______ _______ _______ _____ _____    ______ ____
ROOT
ATOM      1  C   UNL     1       2.207   5.217  19.921  0.00  0.00    +0.000 A 
ATOM      2  C   UNL     1       1.686   5.985  20.980  0.00  0.00    +0.000 A 
ATOM      3  C   UNL     1       1.459   7.346  20.816  0.00  0.00    +0.000 A 
ATOM      4  C   UNL     1       1.856   8.004  19.652  0.00  0.00    +0.000 A 
ATOM      5  C   UNL     1       2.345   7.249  18.571  0.00  0.00    +0.000 A 
ATOM      6  C   UNL     1       2.467   5.854  18.674  0.00  0.00    +0.000 A 
ATOM      7  C   UNL     1       1.557   9.494  19.653  0.00  0.00    +0.000 C 
ATOM      8  C   UNL     1       2.110  10.273  18.476  0.00  0.00    +0.000 C 
ATOM      9  C   UNL     1       1.698  11.711  18.588  0.00  0.00    +0.000 A 
ATOM     10  C   UNL     1       2.572  12.706  18.148  0.00  0.00    +0.000 A 
ATOM     11  C   UNL     1       2.193  14.040  18.182  0.00  0.00    +0.000 A 
ATOM     12  C   UNL     1       0.916  14.414  18.629  0.00  0.00    +0.000 A 
ATOM     13  C   UNL     1       0.017  13.414  19.097  0.00  0.00    +0.000 A 
ATOM     14  C   UNL     1       0.427  12.056  19.106  0.00  0.00    +0.000 A 
ATOM     15  C   UNL     1      -0.478  11.001  19.721  0.00  0.00    +0.000 C 
ATOM     16  N   UNL     1       0.087   9.626  19.787  0.00  0.00    +0.000 NA
ATOM     17  C   UNL     1      -0.469   8.805  20.926  0.00  0.00    +0.000 C 
ATOM     18  C   UNL     1       0.650   8.146  21.800  0.00  0.00    +0.000 C 
ENDROOT
BRANCH   1  20
ATOM     19  C   UNL     1       1.857   3.087  21.051  0.00  0.00    +0.000 C 
ATOM     20  O   UNL     1       2.421   3.884  20.072  0.00  0.00    +0.000 OA
ENDBRANCH   1  20
BRANCH   6  21
ATOM     21  O   UNL     1       2.774   5.169  17.537  0.00  0.00    +0.000 OA
ATOM     22  C   UNL     1       4.040   4.857  17.076  0.00  0.00    +0.000 C 
ENDBRANCH   6  21
BRANCH  12  23
ATOM     23  O   UNL     1       0.540  15.722  18.633  0.00  0.00    +0.000 OA
ATOM     24  C   UNL     1       0.932  16.680  19.545  0.00  0.00    +0.000 C 
ENDBRANCH  12  23
BRANCH  13  25
ATOM     25  O   UNL     1      -1.240  13.691  19.548  0.00  0.00    +0.000 OA
ATOM     26  C   UNL     1      -1.609  14.177  20.786  0.00  0.00    +0.000 C 
ENDBRANCH  13  25
TORSDOF 4
ENDMDL
MODEL 7
REMARK VINA RESULT:      -5.5      1.891      3.611
REMARK  Name = 
REMARK  8 active torsions:
REMARK  status: ('A' for Active; 'I' for Inactive)
REMARK    1  A    between atoms: C_1  and  O_2
REMARK    2  A    between atoms: O_2  and  C_3
REMARK    3  A    between atoms: C_8  and  O_9
REMARK    4  A    between atoms: O_9  and  C_10
REMARK    5  A    between atoms: C_16  and  O_17
REMARK    6  A    between atoms: O_17  and  C_18
REMARK    7  A    between atoms: C_19  and  O_20
REMARK    8  A    between atoms: O_20  and  C_21
REMARK                            x       y       z     vdW  Elec       q    Type
REMARK                         _______ _______ _______ _____ _____    ______ ____
ROOT
ATOM      1  C   UNL     1      -1.158  13.963  20.140  0.00  0.00    +0.000 A 
ATOM      2  C   UNL     1       0.213  13.929  19.820  0.00  0.00    +0.000 A 
ATOM      3  C   UNL     1       0.872  12.714  19.681  0.00  0.00    +0.000 A 
ATOM      4  C   UNL     1       0.228  11.511  19.976  0.00  0.00    +0.000 A 
ATOM      5  C   UNL     1      -1.148  11.523  20.261  0.00  0.00    +0.000 A 
ATOM      6  C   UNL     1      -1.860  12.733  20.286  0.00  0.00    +0.000 A 
ATOM      7  C   UNL     1       1.105  10.283  19.797  0.00  0.00    +0.000 C 
ATOM      8  C   UNL     1       0.495   8.972  20.253  0.00  0.00    +0.000 C 
ATOM      9  C   UNL     1       1.450   7.850  19.971  0.00  0.00    +0.000 A 
ATOM     10  C   UNL     1       1.514   6.773  20.857  0.00  0.00    +0.000 A 
ATOM     11  C   UNL     1       2.342   5.692  20.591  0.00  0.00    +0.000 A 
ATOM     12  C   UNL     1       3.108   5.645  19.415  0.00  0.00    +0.000 A 
ATOM     13  C   UNL     1       3.067   6.742  18.508  0.00  0.00    +0.000 A 
ATOM     14  C   UNL     1       2.256   7.866  18.809  0.00  0.00    +0.000 A 
ATOM     15  C   UNL     1       2.305   9.091  17.911  0.00  0.00    +0.000 C 
ATOM     16  N   UNL     1       1.509  10.260  18.370  0.00  0.00    +0.000 NA
ATOM     17  C   UNL     1       2.064  11.584  17.903  0.00  0.00    +0.000 C 
ATOM     18  C   UNL     1       2.242  12.612  19.070  0.00  0.00    +0.000 C 
ENDROOT
BRANCH   1  20
ATOM     19  C   UNL     1      -1.653  16.042  21.310  0.00  0.00    +0.000 C 
ATOM     20  O   UNL     1      -1.810  15.149  20.267  0.00  0.00    +0.000 OA
ENDBRANCH   1  20
BRANCH   6  21
ATOM     21  O   UNL     1      -3.217  12.657  20.391  0.00  0.00    +0.000 OA
ATOM     22  C   UNL     1      -4.102  12.263  19.404  0.00  0.00    +0.000 C 
ENDBRANCH   6  21
BRANCH  12  23
ATOM     23  O   UNL     1       3.896   4.569  19.145  0.00  0.00    +0.000 OA
ATOM     24  C   UNL     1       3.508   3.418  18.491  0.00  0.00    +0.000 C 
ENDBRANCH  12  23
BRANCH  13  25
ATOM     25  O   UNL     1       3.778   6.777  17.345  0.00  0.00    +0.000 OA
ATOM     26  C   UNL     1       5.146   6.878  17.189  0.00  0.00    +0.000 C 
ENDBRANCH  13  25
TORSDOF 4
ENDMDL
MODEL 8
REMARK VINA RESULT:      -5.4      5.723      8.495
REMARK  Name = 
REMARK  8 active torsions:
REMARK  status: ('A' for Active; 'I' for Inactive)
REMARK    1  A    between atoms: C_1  and  O_2
REMARK    2  A    between atoms: O_2  and  C_3
REMARK    3  A    between atoms: C_8  and  O_9
REMARK    4  A    between atoms: O_9  and  C_10
REMARK    5  A    between atoms: C_16  and  O_17
REMARK    6  A    between atoms: O_17  and  C_18
REMARK    7  A    between atoms: C_19  and  O_20
REMARK    8  A    between atoms: O_20  and  C_21
REMARK                            x       y       z     vdW  Elec       q    Type
REMARK                         _______ _______ _______ _____ _____    ______ ____
ROOT
ATOM      1  C   UNL     1       2.610  14.719  18.252  0.00  0.00    +0.000 A 
ATOM      2  C   UNL     1       2.110  13.403  18.296  0.00  0.00    +0.000 A 
ATOM      3  C   UNL     1       0.979  13.105  19.045  0.00  0.00    +0.000 A 
ATOM      4  C   UNL     1       0.390  14.067  19.867  0.00  0.00    +0.000 A 
ATOM      5  C   UNL     1       0.852  15.393  19.809  0.00  0.00    +0.000 A 
ATOM      6  C   UNL     1       1.917  15.740  18.963  0.00  0.00    +0.000 A 
ATOM      7  C   UNL     1      -0.820  13.563  20.636  0.00  0.00    +0.000 C 
ATOM      8  C   UNL     1      -1.396  14.528  21.655  0.00  0.00    +0.000 C 
ATOM      9  C   UNL     1      -2.605  13.915  22.297  0.00  0.00    +0.000 A 
ATOM     10  C   UNL     1      -2.869  14.180  23.642  0.00  0.00    +0.000 A 
ATOM     11  C   UNL     1      -4.013  13.679  24.246  0.00  0.00    +0.000 A 
ATOM     12  C   UNL     1      -4.941  12.922  23.513  0.00  0.00    +0.000 A 
ATOM     13  C   UNL     1      -4.680  12.629  22.144  0.00  0.00    +0.000 A 
ATOM     14  C   UNL     1      -3.486  13.103  21.544  0.00  0.00    +0.000 A 
ATOM     15  C   UNL     1      -3.141  12.688  20.123  0.00  0.00    +0.000 C 
ATOM     16  N   UNL     1      -1.816  13.139  19.622  0.00  0.00    +0.000 NA
ATOM     17  C   UNL     1      -1.226  12.224  18.577  0.00  0.00    +0.000 C 
ATOM     18  C   UNL     1       0.245  11.800  18.902  0.00  0.00    +0.000 C 
ENDROOT
BRANCH   1  20
ATOM     19  C   UNL     1       5.016  14.964  17.961  0.00  0.00    +0.000 C 
ATOM     20  O   UNL     1       3.710  15.018  17.512  0.00  0.00    +0.000 OA
ENDBRANCH   1  20
BRANCH   6  21
ATOM     21  O   UNL     1       2.196  17.067  18.822  0.00  0.00    +0.000 OA
ATOM     22  C   UNL     1       1.333  18.050  18.377  0.00  0.00    +0.000 C 
ENDBRANCH   6  21
BRANCH  12  23
ATOM     23  O   UNL     1      -6.076  12.458  24.104  0.00  0.00    +0.000 OA
ATOM     24  C   UNL     1      -7.267  13.142  24.231  0.00  0.00    +0.000 C 
ENDBRANCH  12  23
BRANCH  13  25
ATOM     25  O   UNL     1      -5.528  11.902  21.361  0.00  0.00    +0.000 OA
ATOM     26  C   UNL     1      -6.651  12.342  20.690  0.00  0.00    +0.000 C 
ENDBRANCH  13  25
TORSDOF 4
ENDMDL
MODEL 9
REMARK VINA RESULT:      -5.3      2.376      3.929
REMARK  Name = 
REMARK  8 active torsions:
REMARK  status: ('A' for Active; 'I' for Inactive)
REMARK    1  A    between atoms: C_1  and  O_2
REMARK    2  A    between atoms: O_2  and  C_3
REMARK    3  A    between atoms: C_8  and  O_9
REMARK    4  A    between atoms: O_9  and  C_10
REMARK    5  A    between atoms: C_16  and  O_17
REMARK    6  A    between atoms: O_17  and  C_18
REMARK    7  A    between atoms: C_19  and  O_20
REMARK    8  A    between atoms: O_20  and  C_21
REMARK                            x       y       z     vdW  Elec       q    Type
REMARK                         _______ _______ _______ _____ _____    ______ ____
ROOT
ATOM      1  C   UNL     1      -1.178  13.893  21.325  0.00  0.00    +0.000 A 
ATOM      2  C   UNL     1       0.153  13.930  20.868  0.00  0.00    +0.000 A 
ATOM      3  C   UNL     1       0.805  12.758  20.507  0.00  0.00    +0.000 A 
ATOM      4  C   UNL     1       0.206  11.513  20.705  0.00  0.00    +0.000 A 
ATOM      5  C   UNL     1      -1.134  11.457  21.127  0.00  0.00    +0.000 A 
ATOM      6  C   UNL     1      -1.850  12.638  21.380  0.00  0.00    +0.000 A 
ATOM      7  C   UNL     1       1.071  10.338  20.281  0.00  0.00    +0.000 C 
ATOM      8  C   UNL     1       0.523   8.966  20.622  0.00  0.00    +0.000 C 
ATOM      9  C   UNL     1       1.455   7.911  20.102  0.00  0.00    +0.000 A 
ATOM     10  C   UNL     1       1.619   6.731  20.830  0.00  0.00    +0.000 A 
ATOM     11  C   UNL     1       2.426   5.713  20.343  0.00  0.00    +0.000 A 
ATOM     12  C   UNL     1       3.068   5.833  19.100  0.00  0.00    +0.000 A 
ATOM     13  C   UNL     1       2.924   7.037  18.353  0.00  0.00    +0.000 A 
ATOM     14  C   UNL     1       2.137   8.095  18.876  0.00  0.00    +0.000 A 
ATOM     15  C   UNL     1       2.083   9.426  18.145  0.00  0.00    +0.000 C 
ATOM     16  N   UNL     1       1.327  10.508  18.830  0.00  0.00    +0.000 NA
ATOM     17  C   UNL     1       1.819  11.893  18.486  0.00  0.00    +0.000 C 
ATOM     18  C   UNL     1       2.107  12.767  19.753  0.00  0.00    +0.000 C 
ENDROOT
BRANCH   1  20
ATOM     19  C   UNL     1      -1.604  15.765  22.824  0.00  0.00    +0.000 C 
ATOM     20  O   UNL     1      -1.825  15.037  21.670  0.00  0.00    +0.000 OA
ENDBRANCH   1  20
BRANCH   6  21
ATOM     21  O   UNL     1      -3.189  12.519  21.609  0.00  0.00    +0.000 OA
ATOM     22  C   UNL     1      -3.837  12.668  22.821  0.00  0.00    +0.000 C 
ENDBRANCH   6  21
BRANCH  12  23
ATOM     23  O   UNL     1       3.834   4.819  18.615  0.00  0.00    +0.000 OA
ATOM     24  C   UNL     1       4.462   3.844  19.361  0.00  0.00    +0.000 C 
ENDBRANCH  12  23
BRANCH  13  25
ATOM     25  O   UNL     1       3.512   7.237  17.138  0.00  0.00    +0.000 OA
ATOM     26  C   UNL     1       4.824   6.999  16.781  0.00  0.00    +0.000 C 
ENDBRANCH  13  25
TORSDOF 4
ENDMDL
