MODEL 1
REMARK VINA RESULT:      -7.8      0.000      0.000
REMARK  Name = 
REMARK  6 active torsions:
REMARK  status: ('A' for Active; 'I' for Inactive)
REMARK    1  A    between atoms: C_1  and  C_2
REMARK    2  A    between atoms: C_2  and  C_3
REMARK    3  A    between atoms: C_2  and  C_4
REMARK    4  A    between atoms: C_2  and  S_7
REMARK    5  A    between atoms: S_7  and  C_10
REMARK    6  A    between atoms: C_13  and  C_14
REMARK                            x       y       z     vdW  Elec       q    Type
REMARK                         _______ _______ _______ _____ _____    ______ ____
ROOT
ATOM      1  C   UNL     1       3.823   6.434  17.932  0.00  0.00    +0.000 A 
ATOM      2  C   UNL     1       3.417   7.692  17.489  0.00  0.00    +0.000 A 
ATOM      3  C   UNL     1       2.512   8.434  18.252  0.00  0.00    +0.000 A 
ATOM      4  C   UNL     1       1.985   7.948  19.465  0.00  0.00    +0.000 A 
ATOM      5  C   UNL     1       2.397   6.670  19.873  0.00  0.00    +0.000 A 
ATOM      6  C   UNL     1       3.296   5.910  19.113  0.00  0.00    +0.000 A 
ENDROOT
BRANCH   4   7
ATOM      7  C   UNL     1       1.057   8.778  20.259  0.00  0.00    +0.000 A 
ATOM      8  C   UNL     1       0.649  10.047  19.803  0.00  0.00    +0.000 A 
ATOM      9  C   UNL     1      -0.159  10.886  20.577  0.00  0.00    +0.000 A 
ATOM     10  C   UNL     1      -0.604  10.458  21.820  0.00  0.00    +0.000 A 
ATOM     11  C   UNL     1      -0.253   9.194  22.282  0.00  0.00    +0.000 A 
ATOM     12  C   UNL     1       0.569   8.363  21.512  0.00  0.00    +0.000 A 
ENDBRANCH   4   7
BRANCH   1  13
ATOM     13  S   UNL     1       4.991   5.519  16.943  0.00  0.00    +0.000 S 
ATOM     14  O   UNL     1       5.036   6.164  15.644  0.00  0.00    +0.000 OA
ATOM     15  O   UNL     1       4.548   4.124  16.989  0.00  0.00    +0.000 OA
BRANCH  13  17
ATOM     16  C   UNL     1       6.524   5.512  19.204  0.00  0.00    +0.000 C 
ATOM     17  C   UNL     1       6.613   5.705  17.687  0.00  0.00    +0.000 C 
ATOM     18  C   UNL     1       7.171   7.106  17.392  0.00  0.00    +0.000 C 
BRANCH  17  19
ATOM     19  C   UNL     1       7.532   4.722  16.980  0.00  0.00    +0.000 C 
ATOM     20  O   UNL     1       8.309   4.037  17.724  0.00  0.00    +0.000 OA
ATOM     21  O   UNL     1       7.500   4.702  15.727  0.00  0.00    +0.000 OA
ENDBRANCH  17  19
ENDBRANCH  13  17
ENDBRANCH   1  13
TORSDOF 4
ENDMDL
MODEL 2
REMARK VINA RESULT:      -7.6      0.180      1.065
REMARK  Name = 
REMARK  6 active torsions:
REMARK  status: ('A' for Active; 'I' for Inactive)
REMARK    1  A    between atoms: C_1  and  C_2
REMARK    2  A    between atoms: C_2  and  C_3
REMARK    3  A    between atoms: C_2  and  C_4
REMARK    4  A    between atoms: C_2  and  S_7
REMARK    5  A    between atoms: S_7  and  C_10
REMARK    6  A    between atoms: C_13  and  C_14
REMARK                            x       y       z     vdW  Elec       q    Type
REMARK                         _______ _______ _______ _____ _____    ______ ____
ROOT
ATOM      1  C   UNL     1       3.843   6.507  17.878  0.00  0.00    +0.000 A 
ATOM      2  C   UNL     1       3.349   6.011  19.084  0.00  0.00    +0.000 A 
ATOM      3  C   UNL     1       2.448   6.776  19.828  0.00  0.00    +0.000 A 
ATOM      4  C   UNL     1       2.020   8.049  19.402  0.00  0.00    +0.000 A 
ATOM      5  C   UNL     1       2.551   8.529  18.195  0.00  0.00    +0.000 A 
ATOM      6  C   UNL     1       3.463   7.777  17.443  0.00  0.00    +0.000 A 
ENDROOT
BRANCH   4   7
ATOM      7  C   UNL     1       1.040   8.812  20.202  0.00  0.00    +0.000 A 
ATOM      8  C   UNL     1       0.319   9.881  19.636  0.00  0.00    +0.000 A 
ATOM      9  C   UNL     1      -0.548  10.672  20.396  0.00  0.00    +0.000 A 
ATOM     10  C   UNL     1      -0.737  10.388  21.742  0.00  0.00    +0.000 A 
ATOM     11  C   UNL     1      -0.071   9.314  22.322  0.00  0.00    +0.000 A 
ATOM     12  C   UNL     1       0.809   8.535  21.562  0.00  0.00    +0.000 A 
ENDBRANCH   4   7
BRANCH   1  13
ATOM     13  S   UNL     1       4.979   5.499  16.944  0.00  0.00    +0.000 S 
ATOM     14  O   UNL     1       5.040   6.065  15.609  0.00  0.00    +0.000 OA
ATOM     15  O   UNL     1       4.493   4.124  17.072  0.00  0.00    +0.000 OA
BRANCH  13  17
ATOM     16  C   UNL     1       6.531   5.476  19.192  0.00  0.00    +0.000 C 
ATOM     17  C   UNL     1       6.607   5.677  17.674  0.00  0.00    +0.000 C 
ATOM     18  C   UNL     1       7.167   7.078  17.382  0.00  0.00    +0.000 C 
BRANCH  17  19
ATOM     19  C   UNL     1       7.518   4.695  16.954  0.00  0.00    +0.000 C 
ATOM     20  O   UNL     1       8.319   4.024  17.686  0.00  0.00    +0.000 OA
ATOM     21  O   UNL     1       7.455   4.663  15.702  0.00  0.00    +0.000 OA
ENDBRANCH  17  19
ENDBRANCH  13  17
ENDBRANCH   1  13
TORSDOF 4
ENDMDL
MODEL 3
REMARK VINA RESULT:      -7.5      2.766      3.992
REMARK  Name = 
REMARK  6 active torsions:
REMARK  status: ('A' for Active; 'I' for Inactive)
REMARK    1  A    between atoms: C_1  and  C_2
REMARK    2  A    between atoms: C_2  and  C_3
REMARK    3  A    between atoms: C_2  and  C_4
REMARK    4  A    between atoms: C_2  and  S_7
REMARK    5  A    between atoms: S_7  and  C_10
REMARK    6  A    between atoms: C_13  and  C_14
REMARK                            x       y       z     vdW  Elec       q    Type
REMARK                         _______ _______ _______ _____ _____    ______ ____
ROOT
ATOM      1  C   UNL     1       2.689   6.696  19.244  0.00  0.00    +0.000 A 
ATOM      2  C   UNL     1       1.915   7.269  20.253  0.00  0.00    +0.000 A 
ATOM      3  C   UNL     1       1.305   8.507  20.038  0.00  0.00    +0.000 A 
ATOM      4  C   UNL     1       1.449   9.208  18.825  0.00  0.00    +0.000 A 
ATOM      5  C   UNL     1       2.251   8.616  17.837  0.00  0.00    +0.000 A 
ATOM      6  C   UNL     1       2.877   7.380  18.042  0.00  0.00    +0.000 A 
ENDROOT
BRANCH   4   7
ATOM      7  C   UNL     1       0.760  10.499  18.624  0.00  0.00    +0.000 A 
ATOM      8  C   UNL     1       1.462  11.717  18.715  0.00  0.00    +0.000 A 
ATOM      9  C   UNL     1       0.814  12.952  18.616  0.00  0.00    +0.000 A 
ATOM     10  C   UNL     1      -0.556  12.996  18.392  0.00  0.00    +0.000 A 
ATOM     11  C   UNL     1      -1.271  11.811  18.257  0.00  0.00    +0.000 A 
ATOM     12  C   UNL     1      -0.622  10.576  18.373  0.00  0.00    +0.000 A 
ENDBRANCH   4   7
BRANCH   1  13
ATOM     13  S   UNL     1       3.441   5.108  19.544  0.00  0.00    +0.000 S 
ATOM     14  O   UNL     1       2.865   4.598  20.775  0.00  0.00    +0.000 OA
ATOM     15  O   UNL     1       4.887   5.339  19.521  0.00  0.00    +0.000 OA
BRANCH  13  17
ATOM     16  C   UNL     1       3.906   4.128  17.037  0.00  0.00    +0.000 C 
ATOM     17  C   UNL     1       2.944   4.001  18.224  0.00  0.00    +0.000 C 
ATOM     18  C   UNL     1       1.522   4.343  17.755  0.00  0.00    +0.000 C 
BRANCH  17  19
ATOM     19  C   UNL     1       2.871   2.607  18.827  0.00  0.00    +0.000 C 
ATOM     20  O   UNL     1       3.984   2.052  19.108  0.00  0.00    +0.000 OA
ATOM     21  O   UNL     1       1.735   2.091  18.948  0.00  0.00    +0.000 OA
ENDBRANCH  17  19
ENDBRANCH  13  17
ENDBRANCH   1  13
TORSDOF 4
ENDMDL
MODEL 4
REMARK VINA RESULT:      -7.5      2.758      4.030
REMARK  Name = 
REMARK  6 active torsions:
REMARK  status: ('A' for Active; 'I' for Inactive)
REMARK    1  A    between atoms: C_1  and  C_2
REMARK    2  A    between atoms: C_2  and  C_3
REMARK    3  A    between atoms: C_2  and  C_4
REMARK    4  A    between atoms: C_2  and  S_7
REMARK    5  A    between atoms: S_7  and  C_10
REMARK    6  A    between atoms: C_13  and  C_14
REMARK                            x       y       z     vdW  Elec       q    Type
REMARK                         _______ _______ _______ _____ _____    ______ ____
ROOT
ATOM      1  C   UNL     1       2.666   6.701  19.261  0.00  0.00    +0.000 A 
ATOM      2  C   UNL     1       1.913   7.257  20.294  0.00  0.00    +0.000 A 
ATOM      3  C   UNL     1       1.296   8.497  20.109  0.00  0.00    +0.000 A 
ATOM      4  C   UNL     1       1.413   9.215  18.903  0.00  0.00    +0.000 A 
ATOM      5  C   UNL     1       2.194   8.639  17.890  0.00  0.00    +0.000 A 
ATOM      6  C   UNL     1       2.828   7.402  18.065  0.00  0.00    +0.000 A 
ENDROOT
BRANCH   4   7
ATOM      7  C   UNL     1       0.716  10.507  18.735  0.00  0.00    +0.000 A 
ATOM      8  C   UNL     1      -0.661  10.554  18.446  0.00  0.00    +0.000 A 
ATOM      9  C   UNL     1      -1.323  11.761  18.197  0.00  0.00    +0.000 A 
ATOM     10  C   UNL     1      -0.621  12.958  18.263  0.00  0.00    +0.000 A 
ATOM     11  C   UNL     1       0.732  12.948  18.587  0.00  0.00    +0.000 A 
ATOM     12  C   UNL     1       1.394  11.737  18.819  0.00  0.00    +0.000 A 
ENDBRANCH   4   7
BRANCH   1  13
ATOM     13  S   UNL     1       3.428   5.111  19.523  0.00  0.00    +0.000 S 
ATOM     14  O   UNL     1       2.869   4.575  20.751  0.00  0.00    +0.000 OA
ATOM     15  O   UNL     1       4.873   5.348  19.487  0.00  0.00    +0.000 OA
BRANCH  13  17
ATOM     16  C   UNL     1       3.877   4.166  17.000  0.00  0.00    +0.000 C 
ATOM     17  C   UNL     1       2.920   4.025  18.189  0.00  0.00    +0.000 C 
ATOM     18  C   UNL     1       1.498   4.382  17.732  0.00  0.00    +0.000 C 
BRANCH  17  19
ATOM     19  C   UNL     1       2.843   2.623  18.772  0.00  0.00    +0.000 C 
ATOM     20  O   UNL     1       3.955   2.061  19.045  0.00  0.00    +0.000 OA
ATOM     21  O   UNL     1       1.705   2.108  18.883  0.00  0.00    +0.000 OA
ENDBRANCH  17  19
ENDBRANCH  13  17
ENDBRANCH   1  13
TORSDOF 4
ENDMDL
MODEL 5
REMARK VINA RESULT:      -7.4      1.024      1.912
REMARK  Name = 
REMARK  6 active torsions:
REMARK  status: ('A' for Active; 'I' for Inactive)
REMARK    1  A    between atoms: C_1  and  C_2
REMARK    2  A    between atoms: C_2  and  C_3
REMARK    3  A    between atoms: C_2  and  C_4
REMARK    4  A    between atoms: C_2  and  S_7
REMARK    5  A    between atoms: S_7  and  C_10
REMARK    6  A    between atoms: C_13  and  C_14
REMARK                            x       y       z     vdW  Elec       q    Type
REMARK                         _______ _______ _______ _____ _____    ______ ____
ROOT
ATOM      1  C   UNL     1       3.579   5.898  18.421  0.00  0.00    +0.000 A 
ATOM      2  C   UNL     1       3.152   5.658  19.726  0.00  0.00    +0.000 A 
ATOM      3  C   UNL     1       2.361   6.607  20.379  0.00  0.00    +0.000 A 
ATOM      4  C   UNL     1       1.981   7.815  19.761  0.00  0.00    +0.000 A 
ATOM      5  C   UNL     1       2.445   8.036  18.456  0.00  0.00    +0.000 A 
ATOM      6  C   UNL     1       3.246   7.099  17.791  0.00  0.00    +0.000 A 
ENDROOT
BRANCH   4   7
ATOM      7  C   UNL     1       1.117   8.777  20.475  0.00  0.00    +0.000 A 
ATOM      8  C   UNL     1       0.978   8.724  21.875  0.00  0.00    +0.000 A 
ATOM      9  C   UNL     1       0.099   9.567  22.562  0.00  0.00    +0.000 A 
ATOM     10  C   UNL     1      -0.642  10.509  21.861  0.00  0.00    +0.000 A 
ATOM     11  C   UNL     1      -0.497  10.614  20.482  0.00  0.00    +0.000 A 
ATOM     12  C   UNL     1       0.371   9.757  19.795  0.00  0.00    +0.000 A 
ENDBRANCH   4   7
BRANCH   1  13
ATOM     13  S   UNL     1       4.573   4.661  17.609  0.00  0.00    +0.000 S 
ATOM     14  O   UNL     1       3.717   4.011  16.633  0.00  0.00    +0.000 OA
ATOM     15  O   UNL     1       5.130   3.830  18.677  0.00  0.00    +0.000 OA
BRANCH  13  17
ATOM     16  C   UNL     1       6.488   6.609  17.565  0.00  0.00    +0.000 C 
ATOM     17  C   UNL     1       5.873   5.501  16.702  0.00  0.00    +0.000 C 
ATOM     18  C   UNL     1       5.303   6.125  15.419  0.00  0.00    +0.000 C 
BRANCH  17  19
ATOM     19  C   UNL     1       6.856   4.431  16.256  0.00  0.00    +0.000 C 
ATOM     20  O   UNL     1       7.943   4.348  16.920  0.00  0.00    +0.000 OA
ATOM     21  O   UNL     1       6.554   3.757  15.243  0.00  0.00    +0.000 OA
ENDBRANCH  17  19
ENDBRANCH  13  17
ENDBRANCH   1  13
TORSDOF 4
ENDMDL
MODEL 6
REMARK VINA RESULT:      -7.4      1.017      1.739
REMARK  Name = 
REMARK  6 active torsions:
REMARK  status: ('A' for Active; 'I' for Inactive)
REMARK    1  A    between atoms: C_1  and  C_2
REMARK    2  A    between atoms: C_2  and  C_3
REMARK    3  A    between atoms: C_2  and  C_4
REMARK    4  A    between atoms: C_2  and  S_7
REMARK    5  A    between atoms: S_7  and  C_10
REMARK    6  A    between atoms: C_13  and  C_14
REMARK                            x       y       z     vdW  Elec       q    Type
REMARK                         _______ _______ _______ _____ _____    ______ ____
ROOT
ATOM      1  C   UNL     1       3.593   5.899  18.418  0.00  0.00    +0.000 A 
ATOM      2  C   UNL     1       3.183   5.655  19.728  0.00  0.00    +0.000 A 
ATOM      3  C   UNL     1       2.376   6.589  20.384  0.00  0.00    +0.000 A 
ATOM      4  C   UNL     1       1.961   7.783  19.763  0.00  0.00    +0.000 A 
ATOM      5  C   UNL     1       2.407   8.009  18.452  0.00  0.00    +0.000 A 
ATOM      6  C   UNL     1       3.225   7.088  17.785  0.00  0.00    +0.000 A 
ENDROOT
BRANCH   4   7
ATOM      7  C   UNL     1       1.080   8.728  20.480  0.00  0.00    +0.000 A 
ATOM      8  C   UNL     1       0.402   9.751  19.790  0.00  0.00    +0.000 A 
ATOM      9  C   UNL     1      -0.367  10.708  20.459  0.00  0.00    +0.000 A 
ATOM     10  C   UNL     1      -0.500  10.644  21.839  0.00  0.00    +0.000 A 
ATOM     11  C   UNL     1       0.124   9.621  22.546  0.00  0.00    +0.000 A 
ATOM     12  C   UNL     1       0.907   8.674  21.875  0.00  0.00    +0.000 A 
ENDBRANCH   4   7
BRANCH   1  13
ATOM     13  S   UNL     1       4.609   4.682  17.603  0.00  0.00    +0.000 S 
ATOM     14  O   UNL     1       3.766   4.020  16.625  0.00  0.00    +0.000 OA
ATOM     15  O   UNL     1       5.181   3.859  18.670  0.00  0.00    +0.000 OA
BRANCH  13  17
ATOM     16  C   UNL     1       6.484   6.668  17.562  0.00  0.00    +0.000 C 
ATOM     17  C   UNL     1       5.894   5.548  16.699  0.00  0.00    +0.000 C 
ATOM     18  C   UNL     1       5.315   6.159  15.414  0.00  0.00    +0.000 C 
BRANCH  17  19
ATOM     19  C   UNL     1       6.900   4.497  16.257  0.00  0.00    +0.000 C 
ATOM     20  O   UNL     1       6.579   3.798  15.239  0.00  0.00    +0.000 OA
ATOM     21  O   UNL     1       7.932   4.358  16.955  0.00  0.00    +0.000 OA
ENDBRANCH  17  19
ENDBRANCH  13  17
ENDBRANCH   1  13
TORSDOF 4
ENDMDL
MODEL 7
REMARK VINA RESULT:      -7.3      1.024      1.252
REMARK  Name = 
REMARK  6 active torsions:
REMARK  status: ('A' for Active; 'I' for Inactive)
REMARK    1  A    between atoms: C_1  and  C_2
REMARK    2  A    between atoms: C_2  and  C_3
REMARK    3  A    between atoms: C_2  and  C_4
REMARK    4  A    between atoms: C_2  and  S_7
REMARK    5  A    between atoms: S_7  and  C_10
REMARK    6  A    between atoms: C_13  and  C_14
REMARK                            x       y       z     vdW  Elec       q    Type
REMARK                         _______ _______ _______ _____ _____    ______ ____
ROOT
ATOM      1  C   UNL     1       3.602   5.771  18.498  0.00  0.00    +0.000 A 
ATOM      2  C   UNL     1       3.259   6.953  17.844  0.00  0.00    +0.000 A 
ATOM      3  C   UNL     1       2.444   7.888  18.488  0.00  0.00    +0.000 A 
ATOM      4  C   UNL     1       1.947   7.674  19.789  0.00  0.00    +0.000 A 
ATOM      5  C   UNL     1       2.294   6.465  20.412  0.00  0.00    +0.000 A 
ATOM      6  C   UNL     1       3.101   5.514  19.775  0.00  0.00    +0.000 A 
ENDROOT
BRANCH   4   7
ATOM      7  C   UNL     1       1.116   8.702  20.447  0.00  0.00    +0.000 A 
ATOM      8  C   UNL     1       0.539   9.750  19.705  0.00  0.00    +0.000 A 
ATOM      9  C   UNL     1      -0.178  10.782  20.319  0.00  0.00    +0.000 A 
ATOM     10  C   UNL     1      -0.359  10.771  21.696  0.00  0.00    +0.000 A 
ATOM     11  C   UNL     1       0.164   9.729  22.453  0.00  0.00    +0.000 A 
ATOM     12  C   UNL     1       0.896   8.706  21.837  0.00  0.00    +0.000 A 
ENDBRANCH   4   7
BRANCH   1  13
ATOM     13  S   UNL     1       4.656   4.606  17.656  0.00  0.00    +0.000 S 
ATOM     14  O   UNL     1       3.832   3.934  16.668  0.00  0.00    +0.000 OA
ATOM     15  O   UNL     1       5.260   3.782  18.704  0.00  0.00    +0.000 OA
BRANCH  13  17
ATOM     16  C   UNL     1       6.500   6.621  17.666  0.00  0.00    +0.000 C 
ATOM     17  C   UNL     1       5.907   5.533  16.765  0.00  0.00    +0.000 C 
ATOM     18  C   UNL     1       5.289   6.194  15.523  0.00  0.00    +0.000 C 
BRANCH  17  19
ATOM     19  C   UNL     1       6.918   4.520  16.252  0.00  0.00    +0.000 C 
ATOM     20  O   UNL     1       7.974   4.370  16.951  0.00  0.00    +0.000 OA
ATOM     21  O   UNL     1       6.667   3.959  15.159  0.00  0.00    +0.000 OA
ENDBRANCH  17  19
ENDBRANCH  13  17
ENDBRANCH   1  13
TORSDOF 4
ENDMDL
MODEL 8
REMARK VINA RESULT:      -7.3      0.836      1.185
REMARK  Name = 
REMARK  6 active torsions:
REMARK  status: ('A' for Active; 'I' for Inactive)
REMARK    1  A    between atoms: C_1  and  C_2
REMARK    2  A    between atoms: C_2  and  C_3
REMARK    3  A    between atoms: C_2  and  C_4
REMARK    4  A    between atoms: C_2  and  S_7
REMARK    5  A    between atoms: S_7  and  C_10
REMARK    6  A    between atoms: C_13  and  C_14
REMARK                            x       y       z     vdW  Elec       q    Type
REMARK                         _______ _______ _______ _____ _____    ______ ____
ROOT
ATOM      1  C   UNL     1       3.809   6.220  18.271  0.00  0.00    +0.000 A 
ATOM      2  C   UNL     1       3.492   7.304  17.453  0.00  0.00    +0.000 A 
ATOM      3  C   UNL     1       2.562   8.251  17.891  0.00  0.00    +0.000 A 
ATOM      4  C   UNL     1       1.922   8.146  19.141  0.00  0.00    +0.000 A 
ATOM      5  C   UNL     1       2.247   7.033  19.932  0.00  0.00    +0.000 A 
ATOM      6  C   UNL     1       3.170   6.070  19.502  0.00  0.00    +0.000 A 
ENDROOT
BRANCH   4   7
ATOM      7  C   UNL     1       0.971   9.186  19.581  0.00  0.00    +0.000 A 
ATOM      8  C   UNL     1       0.405  10.086  18.657  0.00  0.00    +0.000 A 
ATOM      9  C   UNL     1      -0.429  11.133  19.063  0.00  0.00    +0.000 A 
ATOM     10  C   UNL     1      -0.742  11.284  20.407  0.00  0.00    +0.000 A 
ATOM     11  C   UNL     1      -0.232  10.387  21.340  0.00  0.00    +0.000 A 
ATOM     12  C   UNL     1       0.617   9.351  20.932  0.00  0.00    +0.000 A 
ENDBRANCH   4   7
BRANCH   1  13
ATOM     13  S   UNL     1       5.010   5.038  17.690  0.00  0.00    +0.000 S 
ATOM     14  O   UNL     1       4.715   4.794  16.290  0.00  0.00    +0.000 OA
ATOM     15  O   UNL     1       4.927   3.900  18.607  0.00  0.00    +0.000 OA
BRANCH  13  17
ATOM     16  C   UNL     1       7.197   5.705  19.186  0.00  0.00    +0.000 C 
ATOM     17  C   UNL     1       6.628   5.809  17.767  0.00  0.00    +0.000 C 
ATOM     18  C   UNL     1       6.526   7.291  17.375  0.00  0.00    +0.000 C 
BRANCH  17  19
ATOM     19  C   UNL     1       7.480   5.143  16.697  0.00  0.00    +0.000 C 
ATOM     20  O   UNL     1       7.486   5.700  15.550  0.00  0.00    +0.000 OA
ATOM     21  O   UNL     1       8.058   4.074  17.005  0.00  0.00    +0.000 OA
ENDBRANCH  17  19
ENDBRANCH  13  17
ENDBRANCH   1  13
TORSDOF 4
ENDMDL
MODEL 9
REMARK VINA RESULT:      -7.3      2.743      3.907
REMARK  Name = 
REMARK  6 active torsions:
REMARK  status: ('A' for Active; 'I' for Inactive)
REMARK    1  A    between atoms: C_1  and  C_2
REMARK    2  A    between atoms: C_2  and  C_3
REMARK    3  A    between atoms: C_2  and  C_4
REMARK    4  A    between atoms: C_2  and  S_7
REMARK    5  A    between atoms: S_7  and  C_10
REMARK    6  A    between atoms: C_13  and  C_14
REMARK                            x       y       z     vdW  Elec       q    Type
REMARK                         _______ _______ _______ _____ _____    ______ ____
ROOT
ATOM      1  C   UNL     1       2.660   6.715  19.315  0.00  0.00    +0.000 A 
ATOM      2  C   UNL     1       2.842   7.395  18.111  0.00  0.00    +0.000 A 
ATOM      3  C   UNL     1       2.228   8.636  17.919  0.00  0.00    +0.000 A 
ATOM      4  C   UNL     1       1.418   9.228  18.908  0.00  0.00    +0.000 A 
ATOM      5  C   UNL     1       1.237   8.510  20.099  0.00  0.00    +0.000 A 
ATOM      6  C   UNL     1       1.837   7.260  20.302  0.00  0.00    +0.000 A 
ENDROOT
BRANCH   4   7
ATOM      7  C   UNL     1       0.815  10.557  18.678  0.00  0.00    +0.000 A 
ATOM      8  C   UNL     1       1.607  11.721  18.676  0.00  0.00    +0.000 A 
ATOM      9  C   UNL     1       1.046  12.996  18.548  0.00  0.00    +0.000 A 
ATOM     10  C   UNL     1      -0.326  13.132  18.387  0.00  0.00    +0.000 A 
ATOM     11  C   UNL     1      -1.132  11.999  18.343  0.00  0.00    +0.000 A 
ATOM     12  C   UNL     1      -0.569  10.725  18.488  0.00  0.00    +0.000 A 
ENDBRANCH   4   7
BRANCH   1  13
ATOM     13  S   UNL     1       3.469   5.142  19.536  0.00  0.00    +0.000 S 
ATOM     14  O   UNL     1       2.962   4.580  20.774  0.00  0.00    +0.000 OA
ATOM     15  O   UNL     1       4.905   5.416  19.456  0.00  0.00    +0.000 OA
BRANCH  13  17
ATOM     16  C   UNL     1       3.906   4.177  17.018  0.00  0.00    +0.000 C 
ATOM     17  C   UNL     1       2.945   4.058  18.206  0.00  0.00    +0.000 C 
ATOM     18  C   UNL     1       1.529   4.435  17.744  0.00  0.00    +0.000 C 
BRANCH  17  19
ATOM     19  C   UNL     1       2.844   2.661  18.796  0.00  0.00    +0.000 C 
ATOM     20  O   UNL     1       3.946   2.057  19.015  0.00  0.00    +0.000 OA
ATOM     21  O   UNL     1       1.695   2.189  18.966  0.00  0.00    +0.000 OA
ENDBRANCH  17  19
ENDBRANCH  13  17
ENDBRANCH   1  13
TORSDOF 4
ENDMDL
