MODEL 1
REMARK VINA RESULT:      -9.0      0.000      0.000
REMARK  Name = 
REMARK  8 active torsions:
REMARK  status: ('A' for Active; 'I' for Inactive)
REMARK    1  A    between atoms: C_2  and  C_3
REMARK    2  A    between atoms: C_3  and  C_4
REMARK    3  A    between atoms: C_4  and  C_5
REMARK    4  A    between atoms: C_10  and  O_11
REMARK    5  A    between atoms: N_16  and  C_17
REMARK    6  A    between atoms: C_18  and  C_19
REMARK    7  A    between atoms: C_19  and  O_21
REMARK    8  A    between atoms: C_23  and  C_24
REMARK                            x       y       z     vdW  Elec       q    Type
REMARK                         _______ _______ _______ _____ _____    ______ ____
ROOT
ATOM      1  O   UNL     1       2.510   7.552  19.265  0.00  0.00    +0.000 OA
ATOM      2  C   UNL     1       1.734   7.095  20.099  0.00  0.00    +0.000 C 
ATOM      3  N   UNL     1       1.367   5.752  20.220  0.00  0.00    +0.000 N 
ATOM      4  H   UNL     1       0.723   5.518  20.983  0.00  0.00    +0.000 HD
ENDROOT
BRANCH   3   5
ATOM      5  C   UNL     1       1.806   4.684  19.443  0.00  0.00    +0.000 C 
ATOM      6  C   UNL     1       2.280   3.529  19.984  0.00  0.00    +0.000 C 
ATOM      7  C   UNL     1       2.849   2.424  19.111  0.00  0.00    +0.000 C 
ATOM      8  C   UNL     1       3.301   2.894  17.716  0.00  0.00    +0.000 C 
ATOM      9  C   UNL     1       2.132   3.669  17.100  0.00  0.00    +0.000 C 
ATOM     10  C   UNL     1       1.769   4.889  17.935  0.00  0.00    +0.000 C 
BRANCH   8  11
ATOM     11  C   UNL     1       4.612   3.674  17.705  0.00  0.00    +0.000 A 
ATOM     12  C   UNL     1       5.215   4.186  18.870  0.00  0.00    +0.000 A 
ATOM     13  C   UNL     1       6.410   4.902  18.810  0.00  0.00    +0.000 A 
ATOM     14  F   UNL     1       6.939   5.374  19.948  0.00  0.00    +0.000 F 
ATOM     15  C   UNL     1       7.045   5.127  17.609  0.00  0.00    +0.000 A 
ATOM     16  C   UNL     1       6.474   4.621  16.458  0.00  0.00    +0.000 A 
ATOM     17  F   UNL     1       7.078   4.825  15.276  0.00  0.00    +0.000 F 
ATOM     18  C   UNL     1       5.280   3.900  16.492  0.00  0.00    +0.000 A 
ENDBRANCH   8  11
BRANCH   6  19
ATOM     19  C   UNL     1       2.361   3.342  21.461  0.00  0.00    +0.000 C 
ATOM     20  O   UNL     1       2.060   2.296  22.021  0.00  0.00    +0.000 OA
BRANCH  19  21
ATOM     21  O   UNL     1       2.788   4.414  22.164  0.00  0.00    +0.000 OA
ATOM     22  H   UNL     1       3.239   4.268  23.014  0.00  0.00    +0.000 HD
ENDBRANCH  19  21
ENDBRANCH   6  19
ENDBRANCH   3   5
BRANCH   2  23
ATOM     23  C   UNL     1       1.116   7.980  21.155  0.00  0.00    +0.000 C 
BRANCH  23  24
ATOM     24  C   UNL     1       1.395   9.458  20.873  0.00  0.00    +0.000 C 
BRANCH  24  25
ATOM     25  C   UNL     1       0.189  10.139  20.272  0.00  0.00    +0.000 A 
ATOM     26  C   UNL     1      -0.473  11.162  20.955  0.00  0.00    +0.000 A 
ATOM     27  C   UNL     1      -1.583  11.791  20.382  0.00  0.00    +0.000 A 
ATOM     28  C   UNL     1      -2.056  11.401  19.119  0.00  0.00    +0.000 A 
ATOM     29  C   UNL     1      -3.186  12.001  18.533  0.00  0.00    +0.000 A 
ATOM     30  C   UNL     1      -3.636  11.571  17.287  0.00  0.00    +0.000 A 
ATOM     31  C   UNL     1      -2.978  10.561  16.599  0.00  0.00    +0.000 A 
ATOM     32  C   UNL     1      -1.849   9.969  17.161  0.00  0.00    +0.000 A 
ATOM     33  C   UNL     1      -1.381  10.373  18.419  0.00  0.00    +0.000 A 
ATOM     34  C   UNL     1      -0.260   9.764  19.000  0.00  0.00    +0.000 A 
BRANCH  30  35
ATOM     35  O   UNL     1      -4.736  12.122  16.697  0.00  0.00    +0.000 OA
ATOM     36  H   UNL     1      -4.517  12.339  15.777  0.00  0.00    +0.000 HD
ENDBRANCH  30  35
ENDBRANCH  24  25
ENDBRANCH  23  24
ENDBRANCH   2  23
TORSDOF 8
ENDMDL
MODEL 2
REMARK VINA RESULT:      -8.9      1.628      2.372
REMARK  Name = 
REMARK  8 active torsions:
REMARK  status: ('A' for Active; 'I' for Inactive)
REMARK    1  A    between atoms: C_2  and  C_3
REMARK    2  A    between atoms: C_3  and  C_4
REMARK    3  A    between atoms: C_4  and  C_5
REMARK    4  A    between atoms: C_10  and  O_11
REMARK    5  A    between atoms: N_16  and  C_17
REMARK    6  A    between atoms: C_18  and  C_19
REMARK    7  A    between atoms: C_19  and  O_21
REMARK    8  A    between atoms: C_23  and  C_24
REMARK                            x       y       z     vdW  Elec       q    Type
REMARK                         _______ _______ _______ _____ _____    ______ ____
ROOT
ATOM      1  O   UNL     1       2.650   6.980  19.739  0.00  0.00    +0.000 OA
ATOM      2  C   UNL     1       1.726   6.436  20.335  0.00  0.00    +0.000 C 
ATOM      3  N   UNL     1       1.318   5.109  20.167  0.00  0.00    +0.000 N 
ATOM      4  H   UNL     1       0.540   4.789  20.754  0.00  0.00    +0.000 HD
ENDROOT
BRANCH   3   5
ATOM      5  C   UNL     1       1.872   4.158  19.315  0.00  0.00    +0.000 C 
ATOM      6  C   UNL     1       2.479   3.029  19.773  0.00  0.00    +0.000 C 
ATOM      7  C   UNL     1       3.166   2.062  18.824  0.00  0.00    +0.000 C 
ATOM      8  C   UNL     1       3.553   2.681  17.467  0.00  0.00    +0.000 C 
ATOM      9  C   UNL     1       2.300   3.359  16.906  0.00  0.00    +0.000 C 
ATOM     10  C   UNL     1       1.804   4.466  17.827  0.00  0.00    +0.000 C 
BRANCH   8  11
ATOM     11  C   UNL     1       4.767   3.605  17.517  0.00  0.00    +0.000 A 
ATOM     12  C   UNL     1       5.290   4.127  18.715  0.00  0.00    +0.000 A 
ATOM     13  C   UNL     1       6.396   4.977  18.711  0.00  0.00    +0.000 A 
ATOM     14  F   UNL     1       6.851   5.452  19.878  0.00  0.00    +0.000 F 
ATOM     15  C   UNL     1       7.018   5.329  17.533  0.00  0.00    +0.000 A 
ATOM     16  C   UNL     1       6.525   4.815  16.350  0.00  0.00    +0.000 A 
ATOM     17  F   UNL     1       7.117   5.142  15.190  0.00  0.00    +0.000 F 
ATOM     18  C   UNL     1       5.420   3.963  16.329  0.00  0.00    +0.000 A 
ENDBRANCH   8  11
BRANCH   6  19
ATOM     19  C   UNL     1       2.589   2.746  21.233  0.00  0.00    +0.000 C 
ATOM     20  O   UNL     1       3.615   2.338  21.761  0.00  0.00    +0.000 OA
BRANCH  19  21
ATOM     21  O   UNL     1       1.470   2.966  21.957  0.00  0.00    +0.000 OA
ATOM     22  H   UNL     1       0.833   2.239  22.067  0.00  0.00    +0.000 HD
ENDBRANCH  19  21
ENDBRANCH   6  19
ENDBRANCH   3   5
BRANCH   2  23
ATOM     23  C   UNL     1       0.941   7.171  21.395  0.00  0.00    +0.000 C 
BRANCH  23  24
ATOM     24  C   UNL     1       1.519   8.566  21.646  0.00  0.00    +0.000 C 
BRANCH  24  25
ATOM     25  C   UNL     1       0.512   9.643  21.325  0.00  0.00    +0.000 A 
ATOM     26  C   UNL     1       0.255  10.017  20.003  0.00  0.00    +0.000 A 
ATOM     27  C   UNL     1      -0.688  11.010  19.721  0.00  0.00    +0.000 A 
ATOM     28  C   UNL     1      -1.386  11.653  20.756  0.00  0.00    +0.000 A 
ATOM     29  C   UNL     1      -2.320  12.672  20.497  0.00  0.00    +0.000 A 
ATOM     30  C   UNL     1      -2.976  13.300  21.554  0.00  0.00    +0.000 A 
ATOM     31  C   UNL     1      -2.733  12.928  22.869  0.00  0.00    +0.000 A 
ATOM     32  C   UNL     1      -1.821  11.910  23.137  0.00  0.00    +0.000 A 
ATOM     33  C   UNL     1      -1.137  11.269  22.094  0.00  0.00    +0.000 A 
ATOM     34  C   UNL     1      -0.200  10.261  22.360  0.00  0.00    +0.000 A 
BRANCH  30  35
ATOM     35  O   UNL     1      -3.879  14.301  21.339  0.00  0.00    +0.000 OA
ATOM     36  H   UNL     1      -4.671  13.920  20.928  0.00  0.00    +0.000 HD
ENDBRANCH  30  35
ENDBRANCH  24  25
ENDBRANCH  23  24
ENDBRANCH   2  23
TORSDOF 8
ENDMDL
MODEL 3
REMARK VINA RESULT:      -8.8      1.728      1.984
REMARK  Name = 
REMARK  8 active torsions:
REMARK  status: ('A' for Active; 'I' for Inactive)
REMARK    1  A    between atoms: C_2  and  C_3
REMARK    2  A    between atoms: C_3  and  C_4
REMARK    3  A    between atoms: C_4  and  C_5
REMARK    4  A    between atoms: C_10  and  O_11
REMARK    5  A    between atoms: N_16  and  C_17
REMARK    6  A    between atoms: C_18  and  C_19
REMARK    7  A    between atoms: C_19  and  O_21
REMARK    8  A    between atoms: C_23  and  C_24
REMARK                            x       y       z     vdW  Elec       q    Type
REMARK                         _______ _______ _______ _____ _____    ______ ____
ROOT
ATOM      1  O   UNL     1       2.388   7.535  19.326  0.00  0.00    +0.000 OA
ATOM      2  C   UNL     1       1.894   6.962  20.292  0.00  0.00    +0.000 C 
ATOM      3  N   UNL     1       1.711   5.582  20.414  0.00  0.00    +0.000 N 
ATOM      4  H   UNL     1       1.304   5.248  21.294  0.00  0.00    +0.000 HD
ENDROOT
BRANCH   3   5
ATOM      5  C   UNL     1       2.053   4.600  19.488  0.00  0.00    +0.000 C 
ATOM      6  C   UNL     1       2.506   3.371  19.855  0.00  0.00    +0.000 C 
ATOM      7  C   UNL     1       2.970   2.359  18.822  0.00  0.00    +0.000 C 
ATOM      8  C   UNL     1       3.357   2.979  17.465  0.00  0.00    +0.000 C 
ATOM      9  C   UNL     1       2.189   3.866  17.024  0.00  0.00    +0.000 C 
ATOM     10  C   UNL     1       1.933   4.988  18.021  0.00  0.00    +0.000 C 
BRANCH   8  11
ATOM     11  C   UNL     1       4.699   3.704  17.461  0.00  0.00    +0.000 A 
ATOM     12  C   UNL     1       5.286   4.248  18.619  0.00  0.00    +0.000 A 
ATOM     13  C   UNL     1       6.511   4.912  18.565  0.00  0.00    +0.000 A 
ATOM     14  F   UNL     1       7.023   5.417  19.696  0.00  0.00    +0.000 F 
ATOM     15  C   UNL     1       7.192   5.052  17.376  0.00  0.00    +0.000 A 
ATOM     16  C   UNL     1       6.637   4.513  16.232  0.00  0.00    +0.000 A 
ATOM     17  F   UNL     1       7.285   4.635  15.062  0.00  0.00    +0.000 F 
ATOM     18  C   UNL     1       5.413   3.844  16.261  0.00  0.00    +0.000 A 
ENDBRANCH   8  11
BRANCH   6  19
ATOM     19  C   UNL     1       2.668   3.003  21.292  0.00  0.00    +0.000 C 
ATOM     20  O   UNL     1       1.895   3.369  22.167  0.00  0.00    +0.000 OA
BRANCH  19  21
ATOM     21  O   UNL     1       3.739   2.234  21.581  0.00  0.00    +0.000 OA
ATOM     22  H   UNL     1       3.595   1.366  21.997  0.00  0.00    +0.000 HD
ENDBRANCH  19  21
ENDBRANCH   6  19
ENDBRANCH   3   5
BRANCH   2  23
ATOM     23  C   UNL     1       1.469   7.731  21.520  0.00  0.00    +0.000 C 
BRANCH  23  24
ATOM     24  C   UNL     1      -0.023   8.071  21.473  0.00  0.00    +0.000 C 
BRANCH  24  25
ATOM     25  C   UNL     1      -0.243   9.557  21.328  0.00  0.00    +0.000 A 
ATOM     26  C   UNL     1      -0.525  10.354  22.441  0.00  0.00    +0.000 A 
ATOM     27  C   UNL     1      -0.717  11.731  22.293  0.00  0.00    +0.000 A 
ATOM     28  C   UNL     1      -0.638  12.335  21.028  0.00  0.00    +0.000 A 
ATOM     29  C   UNL     1      -0.853  13.714  20.852  0.00  0.00    +0.000 A 
ATOM     30  C   UNL     1      -0.788  14.272  19.577  0.00  0.00    +0.000 A 
ATOM     31  C   UNL     1      -0.499  13.488  18.468  0.00  0.00    +0.000 A 
ATOM     32  C   UNL     1      -0.270  12.124  18.631  0.00  0.00    +0.000 A 
ATOM     33  C   UNL     1      -0.342  11.534  19.901  0.00  0.00    +0.000 A 
ATOM     34  C   UNL     1      -0.136  10.157  20.068  0.00  0.00    +0.000 A 
BRANCH  30  35
ATOM     35  O   UNL     1      -1.003  15.603  19.368  0.00  0.00    +0.000 OA
ATOM     36  H   UNL     1      -1.482  15.962  20.132  0.00  0.00    +0.000 HD
ENDBRANCH  30  35
ENDBRANCH  24  25
ENDBRANCH  23  24
ENDBRANCH   2  23
TORSDOF 8
ENDMDL
MODEL 4
REMARK VINA RESULT:      -8.8      4.879      7.906
REMARK  Name = 
REMARK  8 active torsions:
REMARK  status: ('A' for Active; 'I' for Inactive)
REMARK    1  A    between atoms: C_2  and  C_3
REMARK    2  A    between atoms: C_3  and  C_4
REMARK    3  A    between atoms: C_4  and  C_5
REMARK    4  A    between atoms: C_10  and  O_11
REMARK    5  A    between atoms: N_16  and  C_17
REMARK    6  A    between atoms: C_18  and  C_19
REMARK    7  A    between atoms: C_19  and  O_21
REMARK    8  A    between atoms: C_23  and  C_24
REMARK                            x       y       z     vdW  Elec       q    Type
REMARK                         _______ _______ _______ _____ _____    ______ ____
ROOT
ATOM      1  O   UNL     1       6.898   4.575  18.608  0.00  0.00    +0.000 OA
ATOM      2  C   UNL     1       6.699   5.725  18.228  0.00  0.00    +0.000 C 
ATOM      3  N   UNL     1       5.498   6.212  17.706  0.00  0.00    +0.000 N 
ATOM      4  H   UNL     1       5.477   7.205  17.450  0.00  0.00    +0.000 HD
ENDROOT
BRANCH   3   5
ATOM      5  C   UNL     1       4.310   5.510  17.523  0.00  0.00    +0.000 C 
ATOM      6  C   UNL     1       3.092   6.037  17.825  0.00  0.00    +0.000 C 
ATOM      7  C   UNL     1       1.824   5.209  17.714  0.00  0.00    +0.000 C 
ATOM      8  C   UNL     1       2.063   3.687  17.742  0.00  0.00    +0.000 C 
ATOM      9  C   UNL     1       3.132   3.378  16.690  0.00  0.00    +0.000 C 
ATOM     10  C   UNL     1       4.443   4.086  17.003  0.00  0.00    +0.000 C 
BRANCH   8  11
ATOM     11  C   UNL     1       2.394   3.124  19.121  0.00  0.00    +0.000 A 
ATOM     12  C   UNL     1       3.652   2.588  19.454  0.00  0.00    +0.000 A 
ATOM     13  C   UNL     1       3.906   2.075  20.726  0.00  0.00    +0.000 A 
ATOM     14  F   UNL     1       5.118   1.569  20.988  0.00  0.00    +0.000 F 
ATOM     15  C   UNL     1       2.935   2.083  21.702  0.00  0.00    +0.000 A 
ATOM     16  C   UNL     1       1.699   2.618  21.397  0.00  0.00    +0.000 A 
ATOM     17  F   UNL     1       0.738   2.640  22.335  0.00  0.00    +0.000 F 
ATOM     18  C   UNL     1       1.421   3.138  20.132  0.00  0.00    +0.000 A 
ENDBRANCH   8  11
BRANCH   6  19
ATOM     19  C   UNL     1       2.961   7.416  18.379  0.00  0.00    +0.000 C 
ATOM     20  O   UNL     1       2.467   7.653  19.474  0.00  0.00    +0.000 OA
BRANCH  19  21
ATOM     21  O   UNL     1       3.422   8.409  17.590  0.00  0.00    +0.000 OA
ATOM     22  H   UNL     1       3.826   9.190  18.006  0.00  0.00    +0.000 HD
ENDBRANCH  19  21
ENDBRANCH   6  19
ENDBRANCH   3   5
BRANCH   2  23
ATOM     23  C   UNL     1       7.770   6.782  18.348  0.00  0.00    +0.000 C 
BRANCH  23  24
ATOM     24  C   UNL     1       7.422   8.022  17.521  0.00  0.00    +0.000 C 
BRANCH  24  25
ATOM     25  C   UNL     1       8.118   9.250  18.054  0.00  0.00    +0.000 A 
ATOM     26  C   UNL     1       9.020   9.160  19.118  0.00  0.00    +0.000 A 
ATOM     27  C   UNL     1       9.666  10.305  19.595  0.00  0.00    +0.000 A 
ATOM     28  C   UNL     1       9.414  11.563  19.022  0.00  0.00    +0.000 A 
ATOM     29  C   UNL     1      10.032  12.732  19.502  0.00  0.00    +0.000 A 
ATOM     30  C   UNL     1       9.739  13.964  18.920  0.00  0.00    +0.000 A 
ATOM     31  C   UNL     1       8.851  14.059  17.858  0.00  0.00    +0.000 A 
ATOM     32  C   UNL     1       8.243  12.907  17.364  0.00  0.00    +0.000 A 
ATOM     33  C   UNL     1       8.510  11.656  17.938  0.00  0.00    +0.000 A 
ATOM     34  C   UNL     1       7.883  10.496  17.461  0.00  0.00    +0.000 A 
BRANCH  30  35
ATOM     35  O   UNL     1      10.311  15.118  19.369  0.00  0.00    +0.000 OA
ATOM     36  H   UNL     1       9.710  15.533  20.009  0.00  0.00    +0.000 HD
ENDBRANCH  30  35
ENDBRANCH  24  25
ENDBRANCH  23  24
ENDBRANCH   2  23
TORSDOF 8
ENDMDL
MODEL 5
REMARK VINA RESULT:      -8.8      2.800      4.121
REMARK  Name = 
REMARK  8 active torsions:
REMARK  status: ('A' for Active; 'I' for Inactive)
REMARK    1  A    between atoms: C_2  and  C_3
REMARK    2  A    between atoms: C_3  and  C_4
REMARK    3  A    between atoms: C_4  and  C_5
REMARK    4  A    between atoms: C_10  and  O_11
REMARK    5  A    between atoms: N_16  and  C_17
REMARK    6  A    between atoms: C_18  and  C_19
REMARK    7  A    between atoms: C_19  and  O_21
REMARK    8  A    between atoms: C_23  and  C_24
REMARK                            x       y       z     vdW  Elec       q    Type
REMARK                         _______ _______ _______ _____ _____    ______ ____
ROOT
ATOM      1  O   UNL     1       2.772   6.747  18.963  0.00  0.00    +0.000 OA
ATOM      2  C   UNL     1       3.113   7.460  18.024  0.00  0.00    +0.000 C 
ATOM      3  N   UNL     1       4.126   7.167  17.107  0.00  0.00    +0.000 N 
ATOM      4  H   UNL     1       4.283   7.854  16.361  0.00  0.00    +0.000 HD
ENDROOT
BRANCH   3   5
ATOM      5  C   UNL     1       4.927   6.030  17.068  0.00  0.00    +0.000 C 
ATOM      6  C   UNL     1       6.269   6.069  17.292  0.00  0.00    +0.000 C 
ATOM      7  C   UNL     1       7.132   4.829  17.139  0.00  0.00    +0.000 C 
ATOM      8  C   UNL     1       6.502   3.730  16.262  0.00  0.00    +0.000 C 
ATOM      9  C   UNL     1       5.092   3.475  16.801  0.00  0.00    +0.000 C 
ATOM     10  C   UNL     1       4.227   4.726  16.715  0.00  0.00    +0.000 C 
BRANCH   8  11
ATOM     11  C   UNL     1       6.532   4.022  14.764  0.00  0.00    +0.000 A 
ATOM     12  C   UNL     1       7.430   4.931  14.173  0.00  0.00    +0.000 A 
ATOM     13  C   UNL     1       7.413   5.173  12.800  0.00  0.00    +0.000 A 
ATOM     14  F   UNL     1       8.284   6.053  12.288  0.00  0.00    +0.000 F 
ATOM     15  C   UNL     1       6.521   4.525  11.974  0.00  0.00    +0.000 A 
ATOM     16  C   UNL     1       5.642   3.620  12.536  0.00  0.00    +0.000 A 
ATOM     17  F   UNL     1       4.767   2.974  11.750  0.00  0.00    +0.000 F 
ATOM     18  C   UNL     1       5.641   3.360  13.907  0.00  0.00    +0.000 A 
ENDBRANCH   8  11
BRANCH   6  19
ATOM     19  C   UNL     1       6.966   7.354  17.593  0.00  0.00    +0.000 C 
ATOM     20  O   UNL     1       6.643   8.424  17.092  0.00  0.00    +0.000 OA
BRANCH  19  21
ATOM     21  O   UNL     1       7.997   7.270  18.460  0.00  0.00    +0.000 OA
ATOM     22  H   UNL     1       8.903   7.391  18.126  0.00  0.00    +0.000 HD
ENDBRANCH  19  21
ENDBRANCH   6  19
ENDBRANCH   3   5
BRANCH   2  23
ATOM     23  C   UNL     1       2.398   8.757  17.731  0.00  0.00    +0.000 C 
BRANCH  23  24
ATOM     24  C   UNL     1       1.855   9.393  19.012  0.00  0.00    +0.000 C 
BRANCH  24  25
ATOM     25  C   UNL     1       0.471   9.957  18.801  0.00  0.00    +0.000 A 
ATOM     26  C   UNL     1      -0.107  10.814  19.742  0.00  0.00    +0.000 A 
ATOM     27  C   UNL     1      -1.387  11.336  19.528  0.00  0.00    +0.000 A 
ATOM     28  C   UNL     1      -2.115  11.005  18.374  0.00  0.00    +0.000 A 
ATOM     29  C   UNL     1      -3.413  11.498  18.150  0.00  0.00    +0.000 A 
ATOM     30  C   UNL     1      -4.110  11.127  17.002  0.00  0.00    +0.000 A 
ATOM     31  C   UNL     1      -3.539  10.284  16.059  0.00  0.00    +0.000 A 
ATOM     32  C   UNL     1      -2.248   9.800  16.262  0.00  0.00    +0.000 A 
ATOM     33  C   UNL     1      -1.528  10.147  17.414  0.00  0.00    +0.000 A 
ATOM     34  C   UNL     1      -0.238   9.644  17.635  0.00  0.00    +0.000 A 
BRANCH  30  35
ATOM     35  O   UNL     1      -5.376  11.577  16.760  0.00  0.00    +0.000 OA
ATOM     36  H   UNL     1      -5.320  12.462  16.367  0.00  0.00    +0.000 HD
ENDBRANCH  30  35
ENDBRANCH  24  25
ENDBRANCH  23  24
ENDBRANCH   2  23
TORSDOF 8
ENDMDL
MODEL 6
REMARK VINA RESULT:      -8.8      5.398      8.324
REMARK  Name = 
REMARK  8 active torsions:
REMARK  status: ('A' for Active; 'I' for Inactive)
REMARK    1  A    between atoms: C_2  and  C_3
REMARK    2  A    between atoms: C_3  and  C_4
REMARK    3  A    between atoms: C_4  and  C_5
REMARK    4  A    between atoms: C_10  and  O_11
REMARK    5  A    between atoms: N_16  and  C_17
REMARK    6  A    between atoms: C_18  and  C_19
REMARK    7  A    between atoms: C_19  and  O_21
REMARK    8  A    between atoms: C_23  and  C_24
REMARK                            x       y       z     vdW  Elec       q    Type
REMARK                         _______ _______ _______ _____ _____    ______ ____
ROOT
ATOM      1  O   UNL     1       7.218   6.317  16.278  0.00  0.00    +0.000 OA
ATOM      2  C   UNL     1       6.893   6.810  17.354  0.00  0.00    +0.000 C 
ATOM      3  N   UNL     1       5.708   6.543  18.045  0.00  0.00    +0.000 N 
ATOM      4  H   UNL     1       5.585   7.017  18.947  0.00  0.00    +0.000 HD
ENDROOT
BRANCH   3   5
ATOM      5  C   UNL     1       4.687   5.677  17.667  0.00  0.00    +0.000 C 
ATOM      6  C   UNL     1       3.372   6.026  17.717  0.00  0.00    +0.000 C 
ATOM      7  C   UNL     1       2.276   5.024  17.398  0.00  0.00    +0.000 C 
ATOM      8  C   UNL     1       2.715   3.553  17.521  0.00  0.00    +0.000 C 
ATOM      9  C   UNL     1       3.997   3.393  16.700  0.00  0.00    +0.000 C 
ATOM     10  C   UNL     1       5.113   4.283  17.229  0.00  0.00    +0.000 C 
BRANCH   8  11
ATOM     11  C   UNL     1       2.852   3.052  18.957  0.00  0.00    +0.000 A 
ATOM     12  C   UNL     1       4.029   2.466  19.460  0.00  0.00    +0.000 A 
ATOM     13  C   UNL     1       4.105   2.014  20.777  0.00  0.00    +0.000 A 
ATOM     14  F   UNL     1       5.246   1.456  21.204  0.00  0.00    +0.000 F 
ATOM     15  C   UNL     1       3.032   2.132  21.632  0.00  0.00    +0.000 A 
ATOM     16  C   UNL     1       1.874   2.717  21.158  0.00  0.00    +0.000 A 
ATOM     17  F   UNL     1       0.816   2.846  21.976  0.00  0.00    +0.000 F 
ATOM     18  C   UNL     1       1.774   3.178  19.845  0.00  0.00    +0.000 A 
ENDBRANCH   8  11
BRANCH   6  19
ATOM     19  C   UNL     1       2.948   7.376  18.190  0.00  0.00    +0.000 C 
ATOM     20  O   UNL     1       2.478   7.578  19.302  0.00  0.00    +0.000 OA
BRANCH  19  21
ATOM     21  O   UNL     1       3.107   8.382  17.305  0.00  0.00    +0.000 OA
ATOM     22  H   UNL     1       3.767   8.284  16.596  0.00  0.00    +0.000 HD
ENDBRANCH  19  21
ENDBRANCH   6  19
ENDBRANCH   3   5
BRANCH   2  23
ATOM     23  C   UNL     1       7.813   7.755  18.087  0.00  0.00    +0.000 C 
BRANCH  23  24
ATOM     24  C   UNL     1       7.883   9.116  17.390  0.00  0.00    +0.000 C 
BRANCH  24  25
ATOM     25  C   UNL     1       8.586  10.138  18.249  0.00  0.00    +0.000 A 
ATOM     26  C   UNL     1       9.106   9.791  19.499  0.00  0.00    +0.000 A 
ATOM     27  C   UNL     1       9.763  10.746  20.280  0.00  0.00    +0.000 A 
ATOM     28  C   UNL     1       9.907  12.068  19.829  0.00  0.00    +0.000 A 
ATOM     29  C   UNL     1      10.542  13.052  20.608  0.00  0.00    +0.000 A 
ATOM     30  C   UNL     1      10.645  14.357  20.133  0.00  0.00    +0.000 A 
ATOM     31  C   UNL     1      10.139  14.707  18.889  0.00  0.00    +0.000 A 
ATOM     32  C   UNL     1       9.520  13.739  18.101  0.00  0.00    +0.000 A 
ATOM     33  C   UNL     1       9.392  12.420  18.559  0.00  0.00    +0.000 A 
ATOM     34  C   UNL     1       8.749  11.447  17.781  0.00  0.00    +0.000 A 
BRANCH  30  35
ATOM     35  O   UNL     1      11.243  15.339  20.869  0.00  0.00    +0.000 OA
ATOM     36  H   UNL     1      10.875  15.321  21.766  0.00  0.00    +0.000 HD
ENDBRANCH  30  35
ENDBRANCH  24  25
ENDBRANCH  23  24
ENDBRANCH   2  23
TORSDOF 8
ENDMDL
MODEL 7
REMARK VINA RESULT:      -8.8      4.855     10.189
REMARK  Name = 
REMARK  8 active torsions:
REMARK  status: ('A' for Active; 'I' for Inactive)
REMARK    1  A    between atoms: C_2  and  C_3
REMARK    2  A    between atoms: C_3  and  C_4
REMARK    3  A    between atoms: C_4  and  C_5
REMARK    4  A    between atoms: C_10  and  O_11
REMARK    5  A    between atoms: N_16  and  C_17
REMARK    6  A    between atoms: C_18  and  C_19
REMARK    7  A    between atoms: C_19  and  O_21
REMARK    8  A    between atoms: C_23  and  C_24
REMARK                            x       y       z     vdW  Elec       q    Type
REMARK                         _______ _______ _______ _____ _____    ______ ____
ROOT
ATOM      1  O   UNL     1       0.162   9.534  19.830  0.00  0.00    +0.000 OA
ATOM      2  C   UNL     1       0.688  10.012  18.830  0.00  0.00    +0.000 C 
ATOM      3  N   UNL     1       0.906  11.373  18.598  0.00  0.00    +0.000 N 
ATOM      4  H   UNL     1       1.379  11.620  17.722  0.00  0.00    +0.000 HD
ENDROOT
BRANCH   3   5
ATOM      5  C   UNL     1       0.587  12.435  19.439  0.00  0.00    +0.000 C 
ATOM      6  C   UNL     1      -0.670  12.951  19.524  0.00  0.00    +0.000 C 
ATOM      7  C   UNL     1      -0.965  14.176  20.371  0.00  0.00    +0.000 C 
ATOM      8  C   UNL     1       0.274  15.039  20.681  0.00  0.00    +0.000 C 
ATOM      9  C   UNL     1       1.346  14.102  21.247  0.00  0.00    +0.000 C 
ATOM     10  C   UNL     1       1.736  13.028  20.241  0.00  0.00    +0.000 C 
BRANCH   8  11
ATOM     11  C   UNL     1       0.768  15.881  19.509  0.00  0.00    +0.000 A 
ATOM     12  C   UNL     1       2.127  16.004  19.165  0.00  0.00    +0.000 A 
ATOM     13  C   UNL     1       2.533  16.794  18.090  0.00  0.00    +0.000 A 
ATOM     14  F   UNL     1       3.840  16.883  17.810  0.00  0.00    +0.000 F 
ATOM     15  C   UNL     1       1.614  17.476  17.323  0.00  0.00    +0.000 A 
ATOM     16  C   UNL     1       0.275  17.356  17.638  0.00  0.00    +0.000 A 
ATOM     17  F   UNL     1      -0.638  18.009  16.902  0.00  0.00    +0.000 F 
ATOM     18  C   UNL     1      -0.155  16.571  18.708  0.00  0.00    +0.000 A 
ENDBRANCH   8  11
BRANCH   6  19
ATOM     19  C   UNL     1      -1.789  12.402  18.705  0.00  0.00    +0.000 C 
ATOM     20  O   UNL     1      -2.815  11.947  19.193  0.00  0.00    +0.000 OA
BRANCH  19  21
ATOM     21  O   UNL     1      -1.603  12.429  17.368  0.00  0.00    +0.000 OA
ATOM     22  H   UNL     1      -1.285  13.250  16.954  0.00  0.00    +0.000 HD
ENDBRANCH  19  21
ENDBRANCH   6  19
ENDBRANCH   3   5
BRANCH   2  23
ATOM     23  C   UNL     1       1.222   9.126  17.731  0.00  0.00    +0.000 C 
BRANCH  23  24
ATOM     24  C   UNL     1       2.740   8.964  17.836  0.00  0.00    +0.000 C 
BRANCH  24  25
ATOM     25  C   UNL     1       3.143   7.511  17.767  0.00  0.00    +0.000 A 
ATOM     26  C   UNL     1       4.368   7.130  17.214  0.00  0.00    +0.000 A 
ATOM     27  C   UNL     1       4.732   5.781  17.166  0.00  0.00    +0.000 A 
ATOM     28  C   UNL     1       3.874   4.787  17.663  0.00  0.00    +0.000 A 
ATOM     29  C   UNL     1       4.207   3.422  17.602  0.00  0.00    +0.000 A 
ATOM     30  C   UNL     1       3.318   2.465  18.086  0.00  0.00    +0.000 A 
ATOM     31  C   UNL     1       2.103   2.836  18.645  0.00  0.00    +0.000 A 
ATOM     32  C   UNL     1       1.767   4.186  18.724  0.00  0.00    +0.000 A 
ATOM     33  C   UNL     1       2.637   5.169  18.233  0.00  0.00    +0.000 A 
ATOM     34  C   UNL     1       2.293   6.527  18.289  0.00  0.00    +0.000 A 
BRANCH  30  35
ATOM     35  O   UNL     1       3.605   1.132  18.031  0.00  0.00    +0.000 OA
ATOM     36  H   UNL     1       4.344   0.999  17.417  0.00  0.00    +0.000 HD
ENDBRANCH  30  35
ENDBRANCH  24  25
ENDBRANCH  23  24
ENDBRANCH   2  23
TORSDOF 8
ENDMDL
MODEL 8
REMARK VINA RESULT:      -8.7      4.237      9.730
REMARK  Name = 
REMARK  8 active torsions:
REMARK  status: ('A' for Active; 'I' for Inactive)
REMARK    1  A    between atoms: C_2  and  C_3
REMARK    2  A    between atoms: C_3  and  C_4
REMARK    3  A    between atoms: C_4  and  C_5
REMARK    4  A    between atoms: C_10  and  O_11
REMARK    5  A    between atoms: N_16  and  C_17
REMARK    6  A    between atoms: C_18  and  C_19
REMARK    7  A    between atoms: C_19  and  O_21
REMARK    8  A    between atoms: C_23  and  C_24
REMARK                            x       y       z     vdW  Elec       q    Type
REMARK                         _______ _______ _______ _____ _____    ______ ____
ROOT
ATOM      1  O   UNL     1      -0.903  10.339  18.033  0.00  0.00    +0.000 OA
ATOM      2  C   UNL     1       0.197   9.925  18.386  0.00  0.00    +0.000 C 
ATOM      3  N   UNL     1       0.817  10.203  19.608  0.00  0.00    +0.000 N 
ATOM      4  H   UNL     1       1.730   9.765  19.770  0.00  0.00    +0.000 HD
ENDROOT
BRANCH   3   5
ATOM      5  C   UNL     1       0.319  10.980  20.650  0.00  0.00    +0.000 C 
ATOM      6  C   UNL     1      -0.146  10.441  21.810  0.00  0.00    +0.000 C 
ATOM      7  C   UNL     1      -0.779  11.307  22.885  0.00  0.00    +0.000 C 
ATOM      8  C   UNL     1      -1.297  12.665  22.373  0.00  0.00    +0.000 C 
ATOM      9  C   UNL     1      -0.149  13.325  21.603  0.00  0.00    +0.000 C 
ATOM     10  C   UNL     1       0.278  12.481  20.409  0.00  0.00    +0.000 C 
BRANCH   8  11
ATOM     11  C   UNL     1      -2.594  12.586  21.572  0.00  0.00    +0.000 A 
ATOM     12  C   UNL     1      -2.629  12.388  20.179  0.00  0.00    +0.000 A 
ATOM     13  C   UNL     1      -3.839  12.333  19.488  0.00  0.00    +0.000 A 
ATOM     14  F   UNL     1      -3.818  12.150  18.161  0.00  0.00    +0.000 F 
ATOM     15  C   UNL     1      -5.042  12.464  20.147  0.00  0.00    +0.000 A 
ATOM     16  C   UNL     1      -5.025  12.645  21.516  0.00  0.00    +0.000 A 
ATOM     17  F   UNL     1      -6.185  12.772  22.180  0.00  0.00    +0.000 F 
ATOM     18  C   UNL     1      -3.827  12.703  22.230  0.00  0.00    +0.000 A 
ENDBRANCH   8  11
BRANCH   6  19
ATOM     19  C   UNL     1      -0.150   8.966  22.031  0.00  0.00    +0.000 C 
ATOM     20  O   UNL     1       0.551   8.191  21.392  0.00  0.00    +0.000 OA
BRANCH  19  21
ATOM     21  O   UNL     1      -0.990   8.520  22.989  0.00  0.00    +0.000 OA
ATOM     22  H   UNL     1      -1.762   7.989  22.727  0.00  0.00    +0.000 HD
ENDBRANCH  19  21
ENDBRANCH   6  19
ENDBRANCH   3   5
BRANCH   2  23
ATOM     23  C   UNL     1       0.994   8.988  17.511  0.00  0.00    +0.000 C 
BRANCH  23  24
ATOM     24  C   UNL     1       2.436   8.856  18.008  0.00  0.00    +0.000 C 
BRANCH  24  25
ATOM     25  C   UNL     1       2.922   7.430  17.909  0.00  0.00    +0.000 A 
ATOM     26  C   UNL     1       4.188   7.137  17.395  0.00  0.00    +0.000 A 
ATOM     27  C   UNL     1       4.629   5.813  17.317  0.00  0.00    +0.000 A 
ATOM     28  C   UNL     1       3.809   4.756  17.744  0.00  0.00    +0.000 A 
ATOM     29  C   UNL     1       4.221   3.415  17.652  0.00  0.00    +0.000 A 
ATOM     30  C   UNL     1       3.369   2.394  18.066  0.00  0.00    +0.000 A 
ATOM     31  C   UNL     1       2.113   2.678  18.586  0.00  0.00    +0.000 A 
ATOM     32  C   UNL     1       1.699   4.003  18.696  0.00  0.00    +0.000 A 
ATOM     33  C   UNL     1       2.531   5.050  18.275  0.00  0.00    +0.000 A 
ATOM     34  C   UNL     1       2.109   6.384  18.361  0.00  0.00    +0.000 A 
BRANCH  30  35
ATOM     35  O   UNL     1       3.732   1.081  17.979  0.00  0.00    +0.000 OA
ATOM     36  H   UNL     1       3.304   0.593  18.700  0.00  0.00    +0.000 HD
ENDBRANCH  30  35
ENDBRANCH  24  25
ENDBRANCH  23  24
ENDBRANCH   2  23
TORSDOF 8
ENDMDL
MODEL 9
REMARK VINA RESULT:      -8.7      5.331      8.300
REMARK  Name = 
REMARK  8 active torsions:
REMARK  status: ('A' for Active; 'I' for Inactive)
REMARK    1  A    between atoms: C_2  and  C_3
REMARK    2  A    between atoms: C_3  and  C_4
REMARK    3  A    between atoms: C_4  and  C_5
REMARK    4  A    between atoms: C_10  and  O_11
REMARK    5  A    between atoms: N_16  and  C_17
REMARK    6  A    between atoms: C_18  and  C_19
REMARK    7  A    between atoms: C_19  and  O_21
REMARK    8  A    between atoms: C_23  and  C_24
REMARK                            x       y       z     vdW  Elec       q    Type
REMARK                         _______ _______ _______ _____ _____    ______ ____
ROOT
ATOM      1  O   UNL     1       7.410   5.861  16.622  0.00  0.00    +0.000 OA
ATOM      2  C   UNL     1       6.981   6.566  17.530  0.00  0.00    +0.000 C 
ATOM      3  N   UNL     1       5.688   6.514  18.058  0.00  0.00    +0.000 N 
ATOM      4  H   UNL     1       5.481   7.154  18.833  0.00  0.00    +0.000 HD
ENDROOT
BRANCH   3   5
ATOM      5  C   UNL     1       4.653   5.665  17.675  0.00  0.00    +0.000 C 
ATOM      6  C   UNL     1       3.346   6.043  17.704  0.00  0.00    +0.000 C 
ATOM      7  C   UNL     1       2.233   5.061  17.381  0.00  0.00    +0.000 C 
ATOM      8  C   UNL     1       2.639   3.582  17.524  0.00  0.00    +0.000 C 
ATOM      9  C   UNL     1       3.929   3.387  16.721  0.00  0.00    +0.000 C 
ATOM     10  C   UNL     1       5.056   4.260  17.256  0.00  0.00    +0.000 C 
BRANCH   8  11
ATOM     11  C   UNL     1       2.748   3.093  18.966  0.00  0.00    +0.000 A 
ATOM     12  C   UNL     1       1.692   3.180  19.892  0.00  0.00    +0.000 A 
ATOM     13  C   UNL     1       1.841   2.728  21.203  0.00  0.00    +0.000 A 
ATOM     14  F   UNL     1       0.807   2.841  22.047  0.00  0.00    +0.000 F 
ATOM     15  C   UNL     1       3.027   2.175  21.634  0.00  0.00    +0.000 A 
ATOM     16  C   UNL     1       4.069   2.071  20.735  0.00  0.00    +0.000 A 
ATOM     17  F   UNL     1       5.233   1.532  21.132  0.00  0.00    +0.000 F 
ATOM     18  C   UNL     1       3.944   2.514  19.418  0.00  0.00    +0.000 A 
ENDBRANCH   8  11
BRANCH   6  19
ATOM     19  C   UNL     1       2.944   7.405  18.159  0.00  0.00    +0.000 C 
ATOM     20  O   UNL     1       3.043   8.402  17.455  0.00  0.00    +0.000 OA
BRANCH  19  21
ATOM     21  O   UNL     1       2.459   7.483  19.417  0.00  0.00    +0.000 OA
ATOM     22  H   UNL     1       1.632   7.018  19.631  0.00  0.00    +0.000 HD
ENDBRANCH  19  21
ENDBRANCH   6  19
ENDBRANCH   3   5
BRANCH   2  23
ATOM     23  C   UNL     1       7.872   7.565  18.229  0.00  0.00    +0.000 C 
BRANCH  23  24
ATOM     24  C   UNL     1       7.909   8.897  17.476  0.00  0.00    +0.000 C 
BRANCH  24  25
ATOM     25  C   UNL     1       8.608   9.964  18.283  0.00  0.00    +0.000 A 
ATOM     26  C   UNL     1       9.087   9.695  19.568  0.00  0.00    +0.000 A 
ATOM     27  C   UNL     1       9.742  10.690  20.300  0.00  0.00    +0.000 A 
ATOM     28  C   UNL     1       9.922  11.975  19.764  0.00  0.00    +0.000 A 
ATOM     29  C   UNL     1      10.554  13.000  20.491  0.00  0.00    +0.000 A 
ATOM     30  C   UNL     1      10.694  14.268  19.932  0.00  0.00    +0.000 A 
ATOM     31  C   UNL     1      10.228  14.540  18.653  0.00  0.00    +0.000 A 
ATOM     32  C   UNL     1       9.613  13.530  17.916  0.00  0.00    +0.000 A 
ATOM     33  C   UNL     1       9.448  12.248  18.459  0.00  0.00    +0.000 A 
ATOM     34  C   UNL     1       8.808  11.235  17.731  0.00  0.00    +0.000 A 
BRANCH  30  35
ATOM     35  O   UNL     1      11.291  15.287  20.615  0.00  0.00    +0.000 OA
ATOM     36  H   UNL     1      12.126  15.509  20.173  0.00  0.00    +0.000 HD
ENDBRANCH  30  35
ENDBRANCH  24  25
ENDBRANCH  23  24
ENDBRANCH   2  23
TORSDOF 8
ENDMDL
