MODEL 1
REMARK VINA RESULT:      -7.7      0.000      0.000
REMARK  Name = 
REMARK  5 active torsions:
REMARK  status: ('A' for Active; 'I' for Inactive)
REMARK    1  A    between atoms: C_1  and  C_2
REMARK    2  A    between atoms: C_2  and  C_3
REMARK    3  A    between atoms: N_9  and  C_10
REMARK    4  A    between atoms: C_15  and  C_16
REMARK    5  A    between atoms: C_18  and  C_19
REMARK                            x       y       z     vdW  Elec       q    Type
REMARK                         _______ _______ _______ _____ _____    ______ ____
ROOT
ATOM      1  C   UNL     1       6.350   4.748  15.607  0.00  0.00    +0.000 C 
ATOM      2  O   UNL     1       7.262   5.570  15.576  0.00  0.00    +0.000 OA
ATOM      3  N   UNL     1       5.465   4.612  16.694  0.00  0.00    +0.000 N 
ATOM      4  C   UNL     1       4.224   3.839  16.556  0.00  0.00    +0.000 C 
ATOM      5  C   UNL     1       3.945   2.754  17.594  0.00  0.00    +0.000 C 
ATOM      6  C   UNL     1       4.123   3.058  19.076  0.00  0.00    +0.000 C 
ATOM      7  N   UNL     1       3.994   4.424  19.553  0.00  0.00    +0.000 NA
ATOM      8  C   UNL     1       5.146   5.251  19.187  0.00  0.00    +0.000 C 
ATOM      9  C   UNL     1       5.399   5.712  17.720  0.00  0.00    +0.000 C 
ENDROOT
BRANCH   9  10
ATOM     10  C   UNL     1       6.587   6.636  17.808  0.00  0.00    +0.000 A 
ATOM     11  N   UNL     1       6.718   7.856  17.328  0.00  0.00    +0.000 NA
ATOM     12  C   UNL     1       7.905   8.254  17.888  0.00  0.00    +0.000 A 
ATOM     13  C   UNL     1       8.464   9.602  17.683  0.00  0.00    +0.000 C 
ATOM     14  N   UNL     1       8.475   7.365  18.710  0.00  0.00    +0.000 NA
ATOM     15  O   UNL     1       7.601   6.279  18.659  0.00  0.00    +0.000 OA
ENDBRANCH   9  10
BRANCH   7  16
ATOM     16  C   UNL     1       2.683   5.042  19.351  0.00  0.00    +0.000 C 
ATOM     17  C   UNL     1       1.808   4.797  20.613  0.00  0.00    +0.000 C 
ATOM     18  C   UNL     1       1.420   6.284  20.571  0.00  0.00    +0.000 C 
ATOM     19  C   UNL     1       2.714   6.537  19.774  0.00  0.00    +0.000 C 
ENDBRANCH   7  16
BRANCH   1  21
ATOM     20  C   UNL     1       6.858   4.366  13.154  0.00  0.00    +0.000 C 
ATOM     21  C   UNL     1       6.169   3.824  14.403  0.00  0.00    +0.000 C 
ENDBRANCH   1  21
TORSDOF 3
ENDMDL
MODEL 2
REMARK VINA RESULT:      -6.6      2.592      5.288
REMARK  Name = 
REMARK  5 active torsions:
REMARK  status: ('A' for Active; 'I' for Inactive)
REMARK    1  A    between atoms: C_1  and  C_2
REMARK    2  A    between atoms: C_2  and  C_3
REMARK    3  A    between atoms: N_9  and  C_10
REMARK    4  A    between atoms: C_15  and  C_16
REMARK    5  A    between atoms: C_18  and  C_19
REMARK                            x       y       z     vdW  Elec       q    Type
REMARK                         _______ _______ _______ _____ _____    ______ ____
ROOT
ATOM      1  C   UNL     1       2.454   4.022  17.937  0.00  0.00    +0.000 C 
ATOM      2  O   UNL     1       1.626   4.645  18.595  0.00  0.00    +0.000 OA
ATOM      3  N   UNL     1       3.633   4.599  17.426  0.00  0.00    +0.000 N 
ATOM      4  C   UNL     1       4.721   3.754  16.918  0.00  0.00    +0.000 C 
ATOM      5  C   UNL     1       5.261   4.054  15.523  0.00  0.00    +0.000 C 
ATOM      6  C   UNL     1       5.584   5.489  15.126  0.00  0.00    +0.000 C 
ATOM      7  N   UNL     1       5.931   6.460  16.150  0.00  0.00    +0.000 NA
ATOM      8  C   UNL     1       4.768   6.878  16.935  0.00  0.00    +0.000 C 
ATOM      9  C   UNL     1       4.082   5.931  17.965  0.00  0.00    +0.000 C 
ENDROOT
BRANCH   9  10
ATOM     10  C   UNL     1       3.036   6.786  18.634  0.00  0.00    +0.000 A 
ATOM     11  N   UNL     1       2.701   6.830  19.908  0.00  0.00    +0.000 NA
ATOM     12  C   UNL     1       1.862   7.914  19.942  0.00  0.00    +0.000 A 
ATOM     13  C   UNL     1       1.256   8.407  21.192  0.00  0.00    +0.000 C 
ATOM     14  N   UNL     1       1.705   8.552  18.775  0.00  0.00    +0.000 NA
ATOM     15  O   UNL     1       2.485   7.801  17.896  0.00  0.00    +0.000 OA
ENDBRANCH   9  10
BRANCH   7  16
ATOM     16  C   UNL     1       7.138   6.160  16.919  0.00  0.00    +0.000 C 
ATOM     17  C   UNL     1       7.818   7.495  17.337  0.00  0.00    +0.000 C 
ATOM     18  C   UNL     1       7.958   6.922  18.757  0.00  0.00    +0.000 C 
ATOM     19  C   UNL     1       6.793   5.971  18.424  0.00  0.00    +0.000 C 
ENDBRANCH   7  16
BRANCH   1  21
ATOM     20  C   UNL     1       1.850   1.770  18.929  0.00  0.00    +0.000 C 
ATOM     21  C   UNL     1       2.191   2.542  17.658  0.00  0.00    +0.000 C 
ENDBRANCH   1  21
TORSDOF 3
ENDMDL
MODEL 3
REMARK VINA RESULT:      -6.3      1.655      4.339
REMARK  Name = 
REMARK  5 active torsions:
REMARK  status: ('A' for Active; 'I' for Inactive)
REMARK    1  A    between atoms: C_1  and  C_2
REMARK    2  A    between atoms: C_2  and  C_3
REMARK    3  A    between atoms: N_9  and  C_10
REMARK    4  A    between atoms: C_15  and  C_16
REMARK    5  A    between atoms: C_18  and  C_19
REMARK                            x       y       z     vdW  Elec       q    Type
REMARK                         _______ _______ _______ _____ _____    ______ ____
ROOT
ATOM      1  C   UNL     1       7.093   6.052  17.371  0.00  0.00    +0.000 C 
ATOM      2  O   UNL     1       7.546   5.924  16.237  0.00  0.00    +0.000 OA
ATOM      3  N   UNL     1       5.850   5.524  17.774  0.00  0.00    +0.000 N 
ATOM      4  C   UNL     1       5.500   5.439  19.198  0.00  0.00    +0.000 C 
ATOM      5  C   UNL     1       4.164   6.033  19.636  0.00  0.00    +0.000 C 
ATOM      6  C   UNL     1       2.900   5.725  18.843  0.00  0.00    +0.000 C 
ATOM      7  N   UNL     1       2.812   4.496  18.073  0.00  0.00    +0.000 NA
ATOM      8  C   UNL     1       3.631   4.543  16.860  0.00  0.00    +0.000 C 
ATOM      9  C   UNL     1       5.188   4.485  16.910  0.00  0.00    +0.000 C 
ENDROOT
BRANCH   9  10
ATOM     10  C   UNL     1       5.616   4.422  15.466  0.00  0.00    +0.000 A 
ATOM     11  N   UNL     1       6.160   3.416  14.811  0.00  0.00    +0.000 NA
ATOM     12  C   UNL     1       6.133   3.872  13.518  0.00  0.00    +0.000 A 
ATOM     13  C   UNL     1       6.599   3.058  12.383  0.00  0.00    +0.000 C 
ATOM     14  N   UNL     1       5.566   5.073  13.348  0.00  0.00    +0.000 NA
ATOM     15  O   UNL     1       5.221   5.448  14.647  0.00  0.00    +0.000 OA
ENDBRANCH   9  10
BRANCH   7  16
ATOM     16  C   UNL     1       2.901   3.259  18.848  0.00  0.00    +0.000 C 
ATOM     17  C   UNL     1       1.703   3.195  19.838  0.00  0.00    +0.000 C 
ATOM     18  C   UNL     1       1.478   1.740  19.394  0.00  0.00    +0.000 C 
ATOM     19  C   UNL     1       2.217   2.089  18.087  0.00  0.00    +0.000 C 
ENDBRANCH   7  16
BRANCH   1  21
ATOM     20  C   UNL     1       8.101   8.289  18.002  0.00  0.00    +0.000 C 
ATOM     21  C   UNL     1       7.920   6.826  18.397  0.00  0.00    +0.000 C 
ENDBRANCH   1  21
TORSDOF 3
ENDMDL
MODEL 4
REMARK VINA RESULT:      -6.2      2.721      6.480
REMARK  Name = 
REMARK  5 active torsions:
REMARK  status: ('A' for Active; 'I' for Inactive)
REMARK    1  A    between atoms: C_1  and  C_2
REMARK    2  A    between atoms: C_2  and  C_3
REMARK    3  A    between atoms: N_9  and  C_10
REMARK    4  A    between atoms: C_15  and  C_16
REMARK    5  A    between atoms: C_18  and  C_19
REMARK                            x       y       z     vdW  Elec       q    Type
REMARK                         _______ _______ _______ _____ _____    ______ ____
ROOT
ATOM      1  C   UNL     1       2.782   6.778  18.497  0.00  0.00    +0.000 C 
ATOM      2  O   UNL     1       1.971   6.036  19.045  0.00  0.00    +0.000 OA
ATOM      3  N   UNL     1       3.819   6.315  17.664  0.00  0.00    +0.000 N 
ATOM      4  C   UNL     1       4.558   7.245  16.801  0.00  0.00    +0.000 C 
ATOM      5  C   UNL     1       6.082   7.226  16.880  0.00  0.00    +0.000 C 
ATOM      6  C   UNL     1       6.828   5.898  16.852  0.00  0.00    +0.000 C 
ATOM      7  N   UNL     1       6.224   4.745  16.205  0.00  0.00    +0.000 NA
ATOM      8  C   UNL     1       5.127   4.179  16.994  0.00  0.00    +0.000 C 
ATOM      9  C   UNL     1       3.756   4.904  17.143  0.00  0.00    +0.000 C 
ENDROOT
BRANCH   9  10
ATOM     10  C   UNL     1       2.889   3.933  17.903  0.00  0.00    +0.000 A 
ATOM     11  N   UNL     1       3.032   3.494  19.138  0.00  0.00    +0.000 NA
ATOM     12  C   UNL     1       1.857   2.815  19.335  0.00  0.00    +0.000 A 
ATOM     13  C   UNL     1       1.519   2.175  20.617  0.00  0.00    +0.000 C 
ATOM     14  N   UNL     1       0.996   2.855  18.310  0.00  0.00    +0.000 NA
ATOM     15  O   UNL     1       1.681   3.598  17.348  0.00  0.00    +0.000 OA
ENDBRANCH   9  10
BRANCH   7  16
ATOM     16  C   UNL     1       5.963   4.891  14.773  0.00  0.00    +0.000 C 
ATOM     17  C   UNL     1       7.320   4.925  14.013  0.00  0.00    +0.000 C 
ATOM     18  C   UNL     1       6.729   3.914  13.016  0.00  0.00    +0.000 C 
ATOM     19  C   UNL     1       5.734   3.500  14.117  0.00  0.00    +0.000 C 
ENDBRANCH   7  16
BRANCH   1  21
ATOM     20  C   UNL     1       1.543   8.907  17.901  0.00  0.00    +0.000 C 
ATOM     21  C   UNL     1       2.659   8.283  18.734  0.00  0.00    +0.000 C 
ENDBRANCH   1  21
TORSDOF 3
ENDMDL
MODEL 5
REMARK VINA RESULT:      -6.0      2.606      6.435
REMARK  Name = 
REMARK  5 active torsions:
REMARK  status: ('A' for Active; 'I' for Inactive)
REMARK    1  A    between atoms: C_1  and  C_2
REMARK    2  A    between atoms: C_2  and  C_3
REMARK    3  A    between atoms: N_9  and  C_10
REMARK    4  A    between atoms: C_15  and  C_16
REMARK    5  A    between atoms: C_18  and  C_19
REMARK                            x       y       z     vdW  Elec       q    Type
REMARK                         _______ _______ _______ _____ _____    ______ ____
ROOT
ATOM      1  C   UNL     1       2.833   6.753  18.603  0.00  0.00    +0.000 C 
ATOM      2  O   UNL     1       2.061   5.973  19.155  0.00  0.00    +0.000 OA
ATOM      3  N   UNL     1       3.878   6.339  17.753  0.00  0.00    +0.000 N 
ATOM      4  C   UNL     1       4.568   7.306  16.890  0.00  0.00    +0.000 C 
ATOM      5  C   UNL     1       6.092   7.350  16.950  0.00  0.00    +0.000 C 
ATOM      6  C   UNL     1       6.892   6.054  16.901  0.00  0.00    +0.000 C 
ATOM      7  N   UNL     1       6.327   4.882  16.253  0.00  0.00    +0.000 NA
ATOM      8  C   UNL     1       5.265   4.264  17.050  0.00  0.00    +0.000 C 
ATOM      9  C   UNL     1       3.867   4.931  17.222  0.00  0.00    +0.000 C 
ENDROOT
BRANCH   9  10
ATOM     10  C   UNL     1       3.051   3.918  17.984  0.00  0.00    +0.000 A 
ATOM     11  N   UNL     1       1.842   3.466  17.718  0.00  0.00    +0.000 NA
ATOM     12  C   UNL     1       1.719   2.441  18.621  0.00  0.00    +0.000 A 
ATOM     13  C   UNL     1       0.527   1.576  18.678  0.00  0.00    +0.000 C 
ATOM     14  N   UNL     1       2.796   2.219  19.384  0.00  0.00    +0.000 NA
ATOM     15  O   UNL     1       3.690   3.206  18.966  0.00  0.00    +0.000 OA
ENDBRANCH   9  10
BRANCH   7  16
ATOM     16  C   UNL     1       6.043   5.028  14.825  0.00  0.00    +0.000 C 
ATOM     17  C   UNL     1       7.370   4.880  14.027  0.00  0.00    +0.000 C 
ATOM     18  C   UNL     1       6.631   3.928  13.072  0.00  0.00    +0.000 C 
ATOM     19  C   UNL     1       5.628   3.661  14.210  0.00  0.00    +0.000 C 
ENDBRANCH   7  16
BRANCH   1  21
ATOM     20  C   UNL     1       1.649   8.876  17.889  0.00  0.00    +0.000 C 
ATOM     21  C   UNL     1       2.652   8.249  18.854  0.00  0.00    +0.000 C 
ENDBRANCH   1  21
TORSDOF 3
ENDMDL
MODEL 6
REMARK VINA RESULT:      -6.0      2.765      5.694
REMARK  Name = 
REMARK  5 active torsions:
REMARK  status: ('A' for Active; 'I' for Inactive)
REMARK    1  A    between atoms: C_1  and  C_2
REMARK    2  A    between atoms: C_2  and  C_3
REMARK    3  A    between atoms: N_9  and  C_10
REMARK    4  A    between atoms: C_15  and  C_16
REMARK    5  A    between atoms: C_18  and  C_19
REMARK                            x       y       z     vdW  Elec       q    Type
REMARK                         _______ _______ _______ _____ _____    ______ ____
ROOT
ATOM      1  C   UNL     1       1.545   4.154  19.968  0.00  0.00    +0.000 C 
ATOM      2  O   UNL     1       0.876   5.119  20.326  0.00  0.00    +0.000 OA
ATOM      3  N   UNL     1       2.701   4.265  19.170  0.00  0.00    +0.000 N 
ATOM      4  C   UNL     1       3.624   3.131  19.029  0.00  0.00    +0.000 C 
ATOM      5  C   UNL     1       4.007   2.701  17.615  0.00  0.00    +0.000 C 
ATOM      6  C   UNL     1       4.421   3.748  16.588  0.00  0.00    +0.000 C 
ATOM      7  N   UNL     1       4.993   5.007  17.033  0.00  0.00    +0.000 NA
ATOM      8  C   UNL     1       3.989   5.897  17.621  0.00  0.00    +0.000 C 
ATOM      9  C   UNL     1       3.348   5.615  19.013  0.00  0.00    +0.000 C 
ENDROOT
BRANCH   9  10
ATOM     10  C   UNL     1       2.489   6.821  19.291  0.00  0.00    +0.000 A 
ATOM     11  N   UNL     1       2.183   7.364  20.453  0.00  0.00    +0.000 NA
ATOM     12  C   UNL     1       1.562   8.525  20.068  0.00  0.00    +0.000 A 
ATOM     13  C   UNL     1       1.074   9.519  21.038  0.00  0.00    +0.000 C 
ATOM     14  N   UNL     1       1.516   8.736  18.747  0.00  0.00    +0.000 NA
ATOM     15  O   UNL     1       2.131   7.600  18.221  0.00  0.00    +0.000 OA
ENDBRANCH   9  10
BRANCH   7  16
ATOM     16  C   UNL     1       6.252   4.902  17.769  0.00  0.00    +0.000 C 
ATOM     17  C   UNL     1       7.310   5.825  17.099  0.00  0.00    +0.000 C 
ATOM     18  C   UNL     1       7.673   6.344  18.500  0.00  0.00    +0.000 C 
ATOM     19  C   UNL     1       6.271   5.900  18.962  0.00  0.00    +0.000 C 
ENDBRANCH   7  16
BRANCH   1  21
ATOM     20  C   UNL     1       1.509   2.457  21.849  0.00  0.00    +0.000 C 
ATOM     21  C   UNL     1       1.100   2.761  20.411  0.00  0.00    +0.000 C 
ENDBRANCH   1  21
TORSDOF 3
ENDMDL
MODEL 7
REMARK VINA RESULT:      -5.6      2.782      5.255
REMARK  Name = 
REMARK  5 active torsions:
REMARK  status: ('A' for Active; 'I' for Inactive)
REMARK    1  A    between atoms: C_1  and  C_2
REMARK    2  A    between atoms: C_2  and  C_3
REMARK    3  A    between atoms: N_9  and  C_10
REMARK    4  A    between atoms: C_15  and  C_16
REMARK    5  A    between atoms: C_18  and  C_19
REMARK                            x       y       z     vdW  Elec       q    Type
REMARK                         _______ _______ _______ _____ _____    ______ ____
ROOT
ATOM      1  C   UNL     1       2.325   4.480  17.882  0.00  0.00    +0.000 C 
ATOM      2  O   UNL     1       1.544   5.253  18.430  0.00  0.00    +0.000 OA
ATOM      3  N   UNL     1       3.578   4.876  17.373  0.00  0.00    +0.000 N 
ATOM      4  C   UNL     1       4.588   3.873  17.009  0.00  0.00    +0.000 C 
ATOM      5  C   UNL     1       5.209   3.965  15.618  0.00  0.00    +0.000 C 
ATOM      6  C   UNL     1       5.700   5.308  15.092  0.00  0.00    +0.000 C 
ATOM      7  N   UNL     1       6.110   6.342  16.027  0.00  0.00    +0.000 NA
ATOM      8  C   UNL     1       4.969   6.960  16.707  0.00  0.00    +0.000 C 
ATOM      9  C   UNL     1       4.147   6.204  17.794  0.00  0.00    +0.000 C 
ENDROOT
BRANCH   9  10
ATOM     10  C   UNL     1       3.174   7.228  18.319  0.00  0.00    +0.000 A 
ATOM     11  N   UNL     1       2.462   8.109  17.645  0.00  0.00    +0.000 NA
ATOM     12  C   UNL     1       1.633   8.606  18.618  0.00  0.00    +0.000 A 
ATOM     13  C   UNL     1       0.592   9.610  18.334  0.00  0.00    +0.000 C 
ATOM     14  N   UNL     1       1.772   8.048  19.827  0.00  0.00    +0.000 NA
ATOM     15  O   UNL     1       2.803   7.128  19.635  0.00  0.00    +0.000 OA
ENDBRANCH   9  10
BRANCH   7  16
ATOM     16  C   UNL     1       7.247   6.003  16.882  0.00  0.00    +0.000 C 
ATOM     17  C   UNL     1       7.904   7.317  17.396  0.00  0.00    +0.000 C 
ATOM     18  C   UNL     1       7.923   6.698  18.803  0.00  0.00    +0.000 C 
ATOM     19  C   UNL     1       6.779   5.773  18.347  0.00  0.00    +0.000 C 
ENDBRANCH   7  16
BRANCH   1  21
ATOM     20  C   UNL     1       0.925   2.591  18.824  0.00  0.00    +0.000 C 
ATOM     21  C   UNL     1       1.915   3.015  17.743  0.00  0.00    +0.000 C 
ENDBRANCH   1  21
TORSDOF 3
ENDMDL
MODEL 8
REMARK VINA RESULT:      -5.5      2.293      4.301
REMARK  Name = 
REMARK  5 active torsions:
REMARK  status: ('A' for Active; 'I' for Inactive)
REMARK    1  A    between atoms: C_1  and  C_2
REMARK    2  A    between atoms: C_2  and  C_3
REMARK    3  A    between atoms: N_9  and  C_10
REMARK    4  A    between atoms: C_15  and  C_16
REMARK    5  A    between atoms: C_18  and  C_19
REMARK                            x       y       z     vdW  Elec       q    Type
REMARK                         _______ _______ _______ _____ _____    ______ ____
ROOT
ATOM      1  C   UNL     1       3.068   2.902  18.082  0.00  0.00    +0.000 C 
ATOM      2  O   UNL     1       4.052   2.602  17.411  0.00  0.00    +0.000 OA
ATOM      3  N   UNL     1       2.767   4.222  18.472  0.00  0.00    +0.000 N 
ATOM      4  C   UNL     1       1.440   4.561  19.001  0.00  0.00    +0.000 C 
ATOM      5  C   UNL     1       1.377   5.308  20.331  0.00  0.00    +0.000 C 
ATOM      6  C   UNL     1       2.277   6.514  20.568  0.00  0.00    +0.000 C 
ATOM      7  N   UNL     1       2.751   7.294  19.437  0.00  0.00    +0.000 NA
ATOM      8  C   UNL     1       3.790   6.595  18.677  0.00  0.00    +0.000 C 
ATOM      9  C   UNL     1       3.469   5.360  17.782  0.00  0.00    +0.000 C 
ENDROOT
BRANCH   9  10
ATOM     10  C   UNL     1       4.769   5.043  17.089  0.00  0.00    +0.000 A 
ATOM     11  N   UNL     1       5.020   4.986  15.796  0.00  0.00    +0.000 NA
ATOM     12  C   UNL     1       6.386   4.862  15.779  0.00  0.00    +0.000 A 
ATOM     13  C   UNL     1       7.160   4.812  14.526  0.00  0.00    +0.000 C 
ATOM     14  N   UNL     1       6.977   4.884  16.980  0.00  0.00    +0.000 NA
ATOM     15  O   UNL     1       5.901   5.001  17.860  0.00  0.00    +0.000 OA
ENDBRANCH   9  10
BRANCH   7  16
ATOM     16  C   UNL     1       1.711   7.941  18.639  0.00  0.00    +0.000 C 
ATOM     17  C   UNL     1       1.119   9.131  19.447  0.00  0.00    +0.000 C 
ATOM     18  C   UNL     1       1.248   9.992  18.179  0.00  0.00    +0.000 C 
ATOM     19  C   UNL     1       2.333   9.010  17.696  0.00  0.00    +0.000 C 
ENDBRANCH   7  16
BRANCH   1  21
ATOM     20  C   UNL     1       2.060   1.643  20.036  0.00  0.00    +0.000 C 
ATOM     21  C   UNL     1       2.122   1.783  18.518  0.00  0.00    +0.000 C 
ENDBRANCH   1  21
TORSDOF 3
ENDMDL
MODEL 9
REMARK VINA RESULT:      -5.5      6.822      8.482
REMARK  Name = 
REMARK  5 active torsions:
REMARK  status: ('A' for Active; 'I' for Inactive)
REMARK    1  A    between atoms: C_1  and  C_2
REMARK    2  A    between atoms: C_2  and  C_3
REMARK    3  A    between atoms: N_9  and  C_10
REMARK    4  A    between atoms: C_15  and  C_16
REMARK    5  A    between atoms: C_18  and  C_19
REMARK                            x       y       z     vdW  Elec       q    Type
REMARK                         _______ _______ _______ _____ _____    ______ ____
ROOT
ATOM      1  C   UNL     1       1.593  10.497  18.376  0.00  0.00    +0.000 C 
ATOM      2  O   UNL     1       2.376  11.288  17.859  0.00  0.00    +0.000 OA
ATOM      3  N   UNL     1       0.811  10.807  19.507  0.00  0.00    +0.000 N 
ATOM      4  C   UNL     1      -0.316   9.949  19.895  0.00  0.00    +0.000 C 
ATOM      5  C   UNL     1      -0.369   9.458  21.339  0.00  0.00    +0.000 C 
ATOM      6  C   UNL     1      -0.135  10.437  22.483  0.00  0.00    +0.000 C 
ATOM      7  N   UNL     1      -0.421  11.849  22.294  0.00  0.00    +0.000 NA
ATOM      8  C   UNL     1       0.576  12.509  21.449  0.00  0.00    +0.000 C 
ATOM      9  C   UNL     1       0.663  12.248  19.915  0.00  0.00    +0.000 C 
ENDROOT
BRANCH   9  10
ATOM     10  C   UNL     1       1.713  13.210  19.421  0.00  0.00    +0.000 A 
ATOM     11  N   UNL     1       1.626  14.096  18.449  0.00  0.00    +0.000 NA
ATOM     12  C   UNL     1       2.793  14.798  18.602  0.00  0.00    +0.000 A 
ATOM     13  C   UNL     1       3.136  15.956  17.757  0.00  0.00    +0.000 C 
ATOM     14  N   UNL     1       3.558  14.419  19.633  0.00  0.00    +0.000 NA
ATOM     15  O   UNL     1       2.843  13.355  20.183  0.00  0.00    +0.000 OA
ENDBRANCH   9  10
BRANCH   7  16
ATOM     16  C   UNL     1      -1.816  12.175  21.998  0.00  0.00    +0.000 C 
ATOM     17  C   UNL     1      -2.664  11.990  23.289  0.00  0.00    +0.000 C 
ATOM     18  C   UNL     1      -3.312  13.354  22.998  0.00  0.00    +0.000 C 
ATOM     19  C   UNL     1      -2.065  13.701  22.162  0.00  0.00    +0.000 C 
ENDBRANCH   7  16
BRANCH   1  21
ATOM     20  C   UNL     1       2.700   8.248  18.010  0.00  0.00    +0.000 C 
ATOM     21  C   UNL     1       1.461   9.104  17.762  0.00  0.00    +0.000 C 
ENDBRANCH   1  21
TORSDOF 3
ENDMDL
