MODEL 1
REMARK VINA RESULT:      -8.3      0.000      0.000
REMARK  Name = 
REMARK  5 active torsions:
REMARK  status: ('A' for Active; 'I' for Inactive)
REMARK    1  A    between atoms: C_1  and  O_2
REMARK    2  A    between atoms: O_2  and  C_3
REMARK    3  A    between atoms: C_6  and  C_7
REMARK    4  A    between atoms: C_15  and  C_16
REMARK    5  A    between atoms: C_19  and  O_20
REMARK                            x       y       z     vdW  Elec       q    Type
REMARK                         _______ _______ _______ _____ _____    ______ ____
ROOT
ATOM      1  C   UNL     1      -0.211  11.035  21.071  0.00  0.00    +0.000 C 
ATOM      2  O   UNL     1       0.843  11.629  20.869  0.00  0.00    +0.000 OA
ATOM      3  N   UNL     1      -0.392   9.682  20.806  0.00  0.00    +0.000 N 
ATOM      4  C   UNL     1       0.668   8.781  20.619  0.00  0.00    +0.000 A 
ATOM      5  N   UNL     1       0.726   7.827  21.562  0.00  0.00    +0.000 NA
ATOM      6  N   UNL     1       1.736   7.046  21.187  0.00  0.00    +0.000 N 
ATOM      7  C   UNL     1       2.214   7.296  19.936  0.00  0.00    +0.000 A 
ATOM      8  C   UNL     1       3.105   6.534  19.146  0.00  0.00    +0.000 A 
ATOM      9  C   UNL     1       3.468   6.944  17.849  0.00  0.00    +0.000 A 
ATOM     10  C   UNL     1       2.923   8.181  17.443  0.00  0.00    +0.000 A 
ATOM     11  C   UNL     1       2.009   8.953  18.258  0.00  0.00    +0.000 A 
ATOM     12  C   UNL     1       1.613   8.488  19.542  0.00  0.00    +0.000 A 
ATOM     13  H   UNL     1      -1.031   9.254  21.465  0.00  0.00    +0.000 HD
ATOM     14  H   UNL     1       2.031   6.298  21.807  0.00  0.00    +0.000 HD
ENDROOT
BRANCH   1  18
ATOM     15  C   UNL     1      -3.719  13.204  22.622  0.00  0.00    +0.000 A 
ATOM     16  C   UNL     1      -3.243  13.386  21.327  0.00  0.00    +0.000 A 
ATOM     17  C   UNL     1      -2.103  12.695  20.874  0.00  0.00    +0.000 A 
ATOM     18  C   UNL     1      -1.389  11.805  21.700  0.00  0.00    +0.000 A 
ATOM     19  C   UNL     1      -1.842  11.690  23.028  0.00  0.00    +0.000 A 
ATOM     20  C   UNL     1      -2.999  12.377  23.485  0.00  0.00    +0.000 A 
BRANCH  15  22
ATOM     21  C   UNL     1      -6.082  13.193  23.014  0.00  0.00    +0.000 C 
ATOM     22  O   UNL     1      -4.849  13.909  22.930  0.00  0.00    +0.000 OA
ENDBRANCH  15  22
ENDBRANCH   1  18
BRANCH   9  23
ATOM     23  C   UNL     1       4.338   6.030  16.997  0.00  0.00    +0.000 A 
ATOM     24  C   UNL     1       5.122   6.474  15.912  0.00  0.00    +0.000 A 
ATOM     25  C   UNL     1       5.791   5.574  15.041  0.00  0.00    +0.000 A 
ATOM     26  C   UNL     1       5.686   4.206  15.245  0.00  0.00    +0.000 A 
ATOM     27  C   UNL     1       4.981   3.723  16.327  0.00  0.00    +0.000 A 
ATOM     28  C   UNL     1       4.334   4.624  17.191  0.00  0.00    +0.000 A 
BRANCH  26  29
ATOM     29  O   UNL     1       6.262   3.293  14.403  0.00  0.00    +0.000 OA
ATOM     30  H   UNL     1       5.829   2.431  14.517  0.00  0.00    +0.000 HD
ENDBRANCH  26  29
ENDBRANCH   9  23
TORSDOF 4
ENDMDL
MODEL 2
REMARK VINA RESULT:      -8.1      1.119      1.765
REMARK  Name = 
REMARK  5 active torsions:
REMARK  status: ('A' for Active; 'I' for Inactive)
REMARK    1  A    between atoms: C_1  and  O_2
REMARK    2  A    between atoms: O_2  and  C_3
REMARK    3  A    between atoms: C_6  and  C_7
REMARK    4  A    between atoms: C_15  and  C_16
REMARK    5  A    between atoms: C_19  and  O_20
REMARK                            x       y       z     vdW  Elec       q    Type
REMARK                         _______ _______ _______ _____ _____    ______ ____
ROOT
ATOM      1  C   UNL     1      -0.415  11.825  20.964  0.00  0.00    +0.000 C 
ATOM      2  O   UNL     1       0.652  12.335  20.634  0.00  0.00    +0.000 OA
ATOM      3  N   UNL     1      -0.665  10.459  20.895  0.00  0.00    +0.000 N 
ATOM      4  C   UNL     1       0.345   9.491  20.786  0.00  0.00    +0.000 A 
ATOM      5  N   UNL     1       0.412   8.671  21.846  0.00  0.00    +0.000 NA
ATOM      6  N   UNL     1       1.367   7.799  21.536  0.00  0.00    +0.000 N 
ATOM      7  C   UNL     1       1.791   7.855  20.243  0.00  0.00    +0.000 A 
ATOM      8  C   UNL     1       2.607   6.951  19.524  0.00  0.00    +0.000 A 
ATOM      9  C   UNL     1       2.920   7.165  18.168  0.00  0.00    +0.000 A 
ATOM     10  C   UNL     1       2.406   8.360  17.621  0.00  0.00    +0.000 A 
ATOM     11  C   UNL     1       1.568   9.278  18.364  0.00  0.00    +0.000 A 
ATOM     12  C   UNL     1       1.221   9.010  19.716  0.00  0.00    +0.000 A 
ATOM     13  H   UNL     1      -1.286  10.156  21.634  0.00  0.00    +0.000 HD
ATOM     14  H   UNL     1       1.662   7.128  22.239  0.00  0.00    +0.000 HD
ENDROOT
BRANCH   1  18
ATOM     15  C   UNL     1      -3.430  14.437  22.833  0.00  0.00    +0.000 A 
ATOM     16  C   UNL     1      -2.770  13.437  23.540  0.00  0.00    +0.000 A 
ATOM     17  C   UNL     1      -1.832  12.603  22.903  0.00  0.00    +0.000 A 
ATOM     18  C   UNL     1      -1.525  12.730  21.535  0.00  0.00    +0.000 A 
ATOM     19  C   UNL     1      -2.256  13.698  20.820  0.00  0.00    +0.000 A 
ATOM     20  C   UNL     1      -3.196  14.549  21.462  0.00  0.00    +0.000 A 
BRANCH  15  22
ATOM     21  C   UNL     1      -3.752  16.266  24.347  0.00  0.00    +0.000 C 
ATOM     22  O   UNL     1      -4.295  15.197  23.571  0.00  0.00    +0.000 OA
ENDBRANCH  15  22
ENDBRANCH   1  18
BRANCH   9  23
ATOM     23  C   UNL     1       3.705   6.103  17.410  0.00  0.00    +0.000 A 
ATOM     24  C   UNL     1       3.473   4.717  17.528  0.00  0.00    +0.000 A 
ATOM     25  C   UNL     1       4.328   3.752  16.934  0.00  0.00    +0.000 A 
ATOM     26  C   UNL     1       5.436   4.162  16.206  0.00  0.00    +0.000 A 
ATOM     27  C   UNL     1       5.673   5.506  16.012  0.00  0.00    +0.000 A 
ATOM     28  C   UNL     1       4.811   6.453  16.593  0.00  0.00    +0.000 A 
BRANCH  26  29
ATOM     29  O   UNL     1       6.325   3.274  15.662  0.00  0.00    +0.000 OA
ATOM     30  H   UNL     1       7.227   3.516  15.931  0.00  0.00    +0.000 HD
ENDBRANCH  26  29
ENDBRANCH   9  23
TORSDOF 4
ENDMDL
MODEL 3
REMARK VINA RESULT:      -8.0      0.921      1.308
REMARK  Name = 
REMARK  5 active torsions:
REMARK  status: ('A' for Active; 'I' for Inactive)
REMARK    1  A    between atoms: C_1  and  O_2
REMARK    2  A    between atoms: O_2  and  C_3
REMARK    3  A    between atoms: C_6  and  C_7
REMARK    4  A    between atoms: C_15  and  C_16
REMARK    5  A    between atoms: C_19  and  O_20
REMARK                            x       y       z     vdW  Elec       q    Type
REMARK                         _______ _______ _______ _____ _____    ______ ____
ROOT
ATOM      1  C   UNL     1      -0.437  11.829  20.933  0.00  0.00    +0.000 C 
ATOM      2  O   UNL     1       0.612  12.349  20.564  0.00  0.00    +0.000 OA
ATOM      3  N   UNL     1      -0.662  10.457  20.908  0.00  0.00    +0.000 N 
ATOM      4  C   UNL     1       0.364   9.505  20.802  0.00  0.00    +0.000 A 
ATOM      5  N   UNL     1       0.471   8.717  21.883  0.00  0.00    +0.000 NA
ATOM      6  N   UNL     1       1.436   7.854  21.575  0.00  0.00    +0.000 N 
ATOM      7  C   UNL     1       1.828   7.882  20.271  0.00  0.00    +0.000 A 
ATOM      8  C   UNL     1       2.645   6.973  19.559  0.00  0.00    +0.000 A 
ATOM      9  C   UNL     1       2.922   7.155  18.190  0.00  0.00    +0.000 A 
ATOM     10  C   UNL     1       2.373   8.324  17.623  0.00  0.00    +0.000 A 
ATOM     11  C   UNL     1       1.535   9.247  18.359  0.00  0.00    +0.000 A 
ATOM     12  C   UNL     1       1.224   9.011  19.726  0.00  0.00    +0.000 A 
ATOM     13  H   UNL     1      -1.260  10.163  21.670  0.00  0.00    +0.000 HD
ATOM     14  H   UNL     1       1.760   7.210  22.289  0.00  0.00    +0.000 HD
ENDROOT
BRANCH   1  18
ATOM     15  C   UNL     1      -3.808  14.257  22.399  0.00  0.00    +0.000 A 
ATOM     16  C   UNL     1      -3.673  13.902  21.061  0.00  0.00    +0.000 A 
ATOM     17  C   UNL     1      -2.567  13.147  20.623  0.00  0.00    +0.000 A 
ATOM     18  C   UNL     1      -1.551  12.728  21.504  0.00  0.00    +0.000 A 
ATOM     19  C   UNL     1      -1.667  13.160  22.839  0.00  0.00    +0.000 A 
ATOM     20  C   UNL     1      -2.787  13.912  23.286  0.00  0.00    +0.000 A 
BRANCH  15  22
ATOM     21  C   UNL     1      -6.108  14.232  23.070  0.00  0.00    +0.000 C 
ATOM     22  O   UNL     1      -4.938  14.964  22.702  0.00  0.00    +0.000 OA
ENDBRANCH  15  22
ENDBRANCH   1  18
BRANCH   9  23
ATOM     23  C   UNL     1       3.711   6.087  17.445  0.00  0.00    +0.000 A 
ATOM     24  C   UNL     1       3.494   4.701  17.590  0.00  0.00    +0.000 A 
ATOM     25  C   UNL     1       4.352   3.733  17.005  0.00  0.00    +0.000 A 
ATOM     26  C   UNL     1       5.449   4.141  16.259  0.00  0.00    +0.000 A 
ATOM     27  C   UNL     1       5.670   5.483  16.038  0.00  0.00    +0.000 A 
ATOM     28  C   UNL     1       4.805   6.432  16.610  0.00  0.00    +0.000 A 
BRANCH  26  29
ATOM     29  O   UNL     1       6.341   3.252  15.722  0.00  0.00    +0.000 OA
ATOM     30  H   UNL     1       6.497   2.531  16.355  0.00  0.00    +0.000 HD
ENDBRANCH  26  29
ENDBRANCH   9  23
TORSDOF 4
ENDMDL
MODEL 4
REMARK VINA RESULT:      -8.0      2.962      3.593
REMARK  Name = 
REMARK  5 active torsions:
REMARK  status: ('A' for Active; 'I' for Inactive)
REMARK    1  A    between atoms: C_1  and  O_2
REMARK    2  A    between atoms: O_2  and  C_3
REMARK    3  A    between atoms: C_6  and  C_7
REMARK    4  A    between atoms: C_15  and  C_16
REMARK    5  A    between atoms: C_19  and  O_20
REMARK                            x       y       z     vdW  Elec       q    Type
REMARK                         _______ _______ _______ _____ _____    ______ ____
ROOT
ATOM      1  C   UNL     1       0.895  12.488  19.606  0.00  0.00    +0.000 C 
ATOM      2  O   UNL     1       2.086  12.496  19.312  0.00  0.00    +0.000 OA
ATOM      3  N   UNL     1       0.185  11.328  19.897  0.00  0.00    +0.000 N 
ATOM      4  C   UNL     1       0.796  10.109  20.231  0.00  0.00    +0.000 A 
ATOM      5  N   UNL     1       0.522   9.703  21.481  0.00  0.00    +0.000 NA
ATOM      6  N   UNL     1       1.124   8.521  21.589  0.00  0.00    +0.000 N 
ATOM      7  C   UNL     1       1.599   8.016  20.416  0.00  0.00    +0.000 A 
ATOM      8  C   UNL     1       2.079   6.718  20.125  0.00  0.00    +0.000 A 
ATOM      9  C   UNL     1       2.509   6.368  18.831  0.00  0.00    +0.000 A 
ATOM     10  C   UNL     1       2.472   7.419  17.889  0.00  0.00    +0.000 A 
ATOM     11  C   UNL     1       1.976   8.744  18.195  0.00  0.00    +0.000 A 
ATOM     12  C   UNL     1       1.495   9.055  19.496  0.00  0.00    +0.000 A 
ATOM     13  H   UNL     1      -0.536  11.496  20.588  0.00  0.00    +0.000 HD
ATOM     14  H   UNL     1       1.133   8.059  22.492  0.00  0.00    +0.000 HD
ENDROOT
BRANCH   1  18
ATOM     15  C   UNL     1      -1.212  16.357  19.622  0.00  0.00    +0.000 A 
ATOM     16  C   UNL     1      -0.075  16.131  18.852  0.00  0.00    +0.000 A 
ATOM     17  C   UNL     1       0.588  14.890  18.893  0.00  0.00    +0.000 A 
ATOM     18  C   UNL     1       0.147  13.832  19.711  0.00  0.00    +0.000 A 
ATOM     19  C   UNL     1      -0.960  14.104  20.537  0.00  0.00    +0.000 A 
ATOM     20  C   UNL     1      -1.639  15.351  20.490  0.00  0.00    +0.000 A 
BRANCH  15  22
ATOM     21  C   UNL     1      -1.586  18.271  18.230  0.00  0.00    +0.000 C 
ATOM     22  O   UNL     1      -1.779  17.592  19.472  0.00  0.00    +0.000 OA
ENDBRANCH  15  22
ENDBRANCH   1  18
BRANCH   9  23
ATOM     23  C   UNL     1       2.906   4.927  18.544  0.00  0.00    +0.000 A 
ATOM     24  C   UNL     1       2.161   4.051  17.727  0.00  0.00    +0.000 A 
ATOM     25  C   UNL     1       2.473   2.671  17.613  0.00  0.00    +0.000 A 
ATOM     26  C   UNL     1       3.543   2.141  18.319  0.00  0.00    +0.000 A 
ATOM     27  C   UNL     1       4.338   2.967  19.085  0.00  0.00    +0.000 A 
ATOM     28  C   UNL     1       4.029   4.336  19.179  0.00  0.00    +0.000 A 
BRANCH  26  29
ATOM     29  O   UNL     1       3.852   0.808  18.292  0.00  0.00    +0.000 OA
ATOM     30  H   UNL     1       3.200   0.316  18.817  0.00  0.00    +0.000 HD
ENDBRANCH  26  29
ENDBRANCH   9  23
TORSDOF 4
ENDMDL
MODEL 5
REMARK VINA RESULT:      -8.0      2.059      2.897
REMARK  Name = 
REMARK  5 active torsions:
REMARK  status: ('A' for Active; 'I' for Inactive)
REMARK    1  A    between atoms: C_1  and  O_2
REMARK    2  A    between atoms: O_2  and  C_3
REMARK    3  A    between atoms: C_6  and  C_7
REMARK    4  A    between atoms: C_15  and  C_16
REMARK    5  A    between atoms: C_19  and  O_20
REMARK                            x       y       z     vdW  Elec       q    Type
REMARK                         _______ _______ _______ _____ _____    ______ ____
ROOT
ATOM      1  C   UNL     1      -0.926  11.602  21.936  0.00  0.00    +0.000 C 
ATOM      2  O   UNL     1      -1.544  10.545  22.024  0.00  0.00    +0.000 OA
ATOM      3  N   UNL     1       0.153  11.789  21.079  0.00  0.00    +0.000 N 
ATOM      4  C   UNL     1       0.433  10.947  19.991  0.00  0.00    +0.000 A 
ATOM      5  N   UNL     1       0.337  11.563  18.803  0.00  0.00    +0.000 NA
ATOM      6  N   UNL     1       0.695  10.639  17.915  0.00  0.00    +0.000 N 
ATOM      7  C   UNL     1       1.234   9.511  18.456  0.00  0.00    +0.000 A 
ATOM      8  C   UNL     1       1.915   8.447  17.820  0.00  0.00    +0.000 A 
ATOM      9  C   UNL     1       2.432   7.364  18.557  0.00  0.00    +0.000 A 
ATOM     10  C   UNL     1       2.166   7.407  19.942  0.00  0.00    +0.000 A 
ATOM     11  C   UNL     1       1.471   8.502  20.584  0.00  0.00    +0.000 A 
ATOM     12  C   UNL     1       1.008   9.611  19.826  0.00  0.00    +0.000 A 
ATOM     13  H   UNL     1       0.194  12.740  20.734  0.00  0.00    +0.000 HD
ATOM     14  H   UNL     1       0.608  10.852  16.927  0.00  0.00    +0.000 HD
ENDROOT
BRANCH   1  18
ATOM     15  C   UNL     1      -2.368  14.860  24.527  0.00  0.00    +0.000 A 
ATOM     16  C   UNL     1      -3.129  13.724  24.266  0.00  0.00    +0.000 A 
ATOM     17  C   UNL     1      -2.646  12.715  23.410  0.00  0.00    +0.000 A 
ATOM     18  C   UNL     1      -1.392  12.807  22.776  0.00  0.00    +0.000 A 
ATOM     19  C   UNL     1      -0.670  13.996  22.994  0.00  0.00    +0.000 A 
ATOM     20  C   UNL     1      -1.149  15.011  23.866  0.00  0.00    +0.000 A 
BRANCH  15  22
ATOM     21  C   UNL     1      -2.470  17.102  25.365  0.00  0.00    +0.000 C 
ATOM     22  O   UNL     1      -2.935  15.751  25.395  0.00  0.00    +0.000 OA
ENDBRANCH  15  22
ENDBRANCH   1  18
BRANCH   9  23
ATOM     23  C   UNL     1       3.257   6.304  17.839  0.00  0.00    +0.000 A 
ATOM     24  C   UNL     1       2.940   4.930  17.830  0.00  0.00    +0.000 A 
ATOM     25  C   UNL     1       3.816   3.952  17.290  0.00  0.00    +0.000 A 
ATOM     26  C   UNL     1       5.032   4.338  16.745  0.00  0.00    +0.000 A 
ATOM     27  C   UNL     1       5.363   5.674  16.677  0.00  0.00    +0.000 A 
ATOM     28  C   UNL     1       4.481   6.635  17.201  0.00  0.00    +0.000 A 
BRANCH  26  29
ATOM     29  O   UNL     1       5.939   3.432  16.264  0.00  0.00    +0.000 OA
ATOM     30  H   UNL     1       5.522   2.896  15.570  0.00  0.00    +0.000 HD
ENDBRANCH  26  29
ENDBRANCH   9  23
TORSDOF 4
ENDMDL
MODEL 6
REMARK VINA RESULT:      -7.9      1.836      2.443
REMARK  Name = 
REMARK  5 active torsions:
REMARK  status: ('A' for Active; 'I' for Inactive)
REMARK    1  A    between atoms: C_1  and  O_2
REMARK    2  A    between atoms: O_2  and  C_3
REMARK    3  A    between atoms: C_6  and  C_7
REMARK    4  A    between atoms: C_15  and  C_16
REMARK    5  A    between atoms: C_19  and  O_20
REMARK                            x       y       z     vdW  Elec       q    Type
REMARK                         _______ _______ _______ _____ _____    ______ ____
ROOT
ATOM      1  C   UNL     1      -0.737  11.114  21.545  0.00  0.00    +0.000 C 
ATOM      2  O   UNL     1      -1.390  10.080  21.439  0.00  0.00    +0.000 OA
ATOM      3  N   UNL     1       0.466  11.331  20.882  0.00  0.00    +0.000 N 
ATOM      4  C   UNL     1       0.887  10.578  19.775  0.00  0.00    +0.000 A 
ATOM      5  N   UNL     1       0.991  11.301  18.649  0.00  0.00    +0.000 NA
ATOM      6  N   UNL     1       1.456  10.445  17.742  0.00  0.00    +0.000 N 
ATOM      7  C   UNL     1       1.874   9.252  18.249  0.00  0.00    +0.000 A 
ATOM      8  C   UNL     1       2.615   8.221  17.626  0.00  0.00    +0.000 A 
ATOM      9  C   UNL     1       2.982   7.056  18.327  0.00  0.00    +0.000 A 
ATOM     10  C   UNL     1       2.508   6.987  19.654  0.00  0.00    +0.000 A 
ATOM     11  C   UNL     1       1.752   8.049  20.285  0.00  0.00    +0.000 A 
ATOM     12  C   UNL     1       1.443   9.239  19.573  0.00  0.00    +0.000 A 
ATOM     13  H   UNL     1       0.586  12.306  20.638  0.00  0.00    +0.000 HD
ATOM     14  H   UNL     1       1.528  10.749  16.777  0.00  0.00    +0.000 HD
ENDROOT
BRANCH   1  18
ATOM     15  C   UNL     1      -2.415  14.186  24.221  0.00  0.00    +0.000 A 
ATOM     16  C   UNL     1      -3.073  12.988  23.957  0.00  0.00    +0.000 A 
ATOM     17  C   UNL     1      -2.519  12.041  23.075  0.00  0.00    +0.000 A 
ATOM     18  C   UNL     1      -1.293  12.258  22.415  0.00  0.00    +0.000 A 
ATOM     19  C   UNL     1      -0.679  13.506  22.638  0.00  0.00    +0.000 A 
ATOM     20  C   UNL     1      -1.230  14.459  23.536  0.00  0.00    +0.000 A 
BRANCH  15  22
ATOM     21  C   UNL     1      -2.269  16.042  25.729  0.00  0.00    +0.000 C 
ATOM     22  O   UNL     1      -3.041  15.008  25.116  0.00  0.00    +0.000 OA
ENDBRANCH  15  22
ENDBRANCH   1  18
BRANCH   9  23
ATOM     23  C   UNL     1       3.878   6.031  17.645  0.00  0.00    +0.000 A 
ATOM     24  C   UNL     1       4.823   6.348  16.649  0.00  0.00    +0.000 A 
ATOM     25  C   UNL     1       5.524   5.350  15.922  0.00  0.00    +0.000 A 
ATOM     26  C   UNL     1       5.289   4.008  16.184  0.00  0.00    +0.000 A 
ATOM     27  C   UNL     1       4.418   3.646  17.189  0.00  0.00    +0.000 A 
ATOM     28  C   UNL     1       3.740   4.644  17.913  0.00  0.00    +0.000 A 
BRANCH  26  29
ATOM     29  O   UNL     1       5.892   3.006  15.474  0.00  0.00    +0.000 OA
ATOM     30  H   UNL     1       6.751   3.318  15.143  0.00  0.00    +0.000 HD
ENDBRANCH  26  29
ENDBRANCH   9  23
TORSDOF 4
ENDMDL
MODEL 7
REMARK VINA RESULT:      -7.8      2.210      2.916
REMARK  Name = 
REMARK  5 active torsions:
REMARK  status: ('A' for Active; 'I' for Inactive)
REMARK    1  A    between atoms: C_1  and  O_2
REMARK    2  A    between atoms: O_2  and  C_3
REMARK    3  A    between atoms: C_6  and  C_7
REMARK    4  A    between atoms: C_15  and  C_16
REMARK    5  A    between atoms: C_19  and  O_20
REMARK                            x       y       z     vdW  Elec       q    Type
REMARK                         _______ _______ _______ _____ _____    ______ ____
ROOT
ATOM      1  C   UNL     1      -0.715  11.790  21.902  0.00  0.00    +0.000 C 
ATOM      2  O   UNL     1      -1.403  10.778  21.986  0.00  0.00    +0.000 OA
ATOM      3  N   UNL     1       0.386  11.901  21.060  0.00  0.00    +0.000 N 
ATOM      4  C   UNL     1       0.626  11.035  19.982  0.00  0.00    +0.000 A 
ATOM      5  N   UNL     1       0.588  11.650  18.789  0.00  0.00    +0.000 NA
ATOM      6  N   UNL     1       0.897  10.698  17.912  0.00  0.00    +0.000 N 
ATOM      7  C   UNL     1       1.352   9.540  18.466  0.00  0.00    +0.000 A 
ATOM      8  C   UNL     1       1.971   8.430  17.846  0.00  0.00    +0.000 A 
ATOM      9  C   UNL     1       2.404   7.319  18.595  0.00  0.00    +0.000 A 
ATOM     10  C   UNL     1       2.121   7.388  19.976  0.00  0.00    +0.000 A 
ATOM     11  C   UNL     1       1.491   8.531  20.602  0.00  0.00    +0.000 A 
ATOM     12  C   UNL     1       1.113   9.663  19.831  0.00  0.00    +0.000 A 
ATOM     13  H   UNL     1       0.496  12.844  20.712  0.00  0.00    +0.000 HD
ATOM     14  H   UNL     1       0.839  10.911  16.921  0.00  0.00    +0.000 HD
ENDROOT
BRANCH   1  18
ATOM     15  C   UNL     1      -1.777  15.492  24.042  0.00  0.00    +0.000 A 
ATOM     16  C   UNL     1      -0.639  15.392  23.247  0.00  0.00    +0.000 A 
ATOM     17  C   UNL     1      -0.317  14.184  22.600  0.00  0.00    +0.000 A 
ATOM     18  C   UNL     1      -1.112  13.029  22.730  0.00  0.00    +0.000 A 
ATOM     19  C   UNL     1      -2.218  13.129  23.596  0.00  0.00    +0.000 A 
ATOM     20  C   UNL     1      -2.552  14.349  24.242  0.00  0.00    +0.000 A 
BRANCH  15  22
ATOM     21  C   UNL     1      -3.284  16.993  25.146  0.00  0.00    +0.000 C 
ATOM     22  O   UNL     1      -1.994  16.725  24.592  0.00  0.00    +0.000 OA
ENDBRANCH  15  22
ENDBRANCH   1  18
BRANCH   9  23
ATOM     23  C   UNL     1       3.167   6.203  17.896  0.00  0.00    +0.000 A 
ATOM     24  C   UNL     1       2.818   4.839  17.976  0.00  0.00    +0.000 A 
ATOM     25  C   UNL     1       3.643   3.812  17.446  0.00  0.00    +0.000 A 
ATOM     26  C   UNL     1       4.839   4.137  16.821  0.00  0.00    +0.000 A 
ATOM     27  C   UNL     1       5.196   5.460  16.665  0.00  0.00    +0.000 A 
ATOM     28  C   UNL     1       4.364   6.469  17.181  0.00  0.00    +0.000 A 
BRANCH  26  29
ATOM     29  O   UNL     1       5.700   3.185  16.345  0.00  0.00    +0.000 OA
ATOM     30  H   UNL     1       6.417   3.050  16.987  0.00  0.00    +0.000 HD
ENDBRANCH  26  29
ENDBRANCH   9  23
TORSDOF 4
ENDMDL
MODEL 8
REMARK VINA RESULT:      -7.8      1.337      1.523
REMARK  Name = 
REMARK  5 active torsions:
REMARK  status: ('A' for Active; 'I' for Inactive)
REMARK    1  A    between atoms: C_1  and  O_2
REMARK    2  A    between atoms: O_2  and  C_3
REMARK    3  A    between atoms: C_6  and  C_7
REMARK    4  A    between atoms: C_15  and  C_16
REMARK    5  A    between atoms: C_19  and  O_20
REMARK                            x       y       z     vdW  Elec       q    Type
REMARK                         _______ _______ _______ _____ _____    ______ ____
ROOT
ATOM      1  C   UNL     1      -0.907  12.163  20.344  0.00  0.00    +0.000 C 
ATOM      2  O   UNL     1       0.168  12.693  20.078  0.00  0.00    +0.000 OA
ATOM      3  N   UNL     1      -1.097  10.785  20.367  0.00  0.00    +0.000 N 
ATOM      4  C   UNL     1      -0.044   9.860  20.439  0.00  0.00    +0.000 A 
ATOM      5  N   UNL     1      -0.053   9.131  21.567  0.00  0.00    +0.000 NA
ATOM      6  N   UNL     1       0.961   8.282  21.426  0.00  0.00    +0.000 N 
ATOM      7  C   UNL     1       1.510   8.254  20.179  0.00  0.00    +0.000 A 
ATOM      8  C   UNL     1       2.428   7.334  19.623  0.00  0.00    +0.000 A 
ATOM      9  C   UNL     1       2.868   7.452  18.290  0.00  0.00    +0.000 A 
ATOM     10  C   UNL     1       2.367   8.575  17.597  0.00  0.00    +0.000 A 
ATOM     11  C   UNL     1       1.424   9.510  18.174  0.00  0.00    +0.000 A 
ATOM     12  C   UNL     1       0.953   9.336  19.504  0.00  0.00    +0.000 A 
ATOM     13  H   UNL     1      -1.777  10.514  21.065  0.00  0.00    +0.000 HD
ATOM     14  H   UNL     1       1.209   7.685  22.208  0.00  0.00    +0.000 HD
ENDROOT
BRANCH   1  18
ATOM     15  C   UNL     1      -4.484  14.483  21.451  0.00  0.00    +0.000 A 
ATOM     16  C   UNL     1      -4.536  13.413  20.563  0.00  0.00    +0.000 A 
ATOM     17  C   UNL     1      -3.367  12.712  20.211  0.00  0.00    +0.000 A 
ATOM     18  C   UNL     1      -2.103  13.058  20.725  0.00  0.00    +0.000 A 
ATOM     19  C   UNL     1      -2.060  14.188  21.564  0.00  0.00    +0.000 A 
ATOM     20  C   UNL     1      -3.239  14.892  21.930  0.00  0.00    +0.000 A 
BRANCH  15  22
ATOM     21  C   UNL     1      -6.803  14.204  21.988  0.00  0.00    +0.000 C 
ATOM     22  O   UNL     1      -5.690  15.063  21.734  0.00  0.00    +0.000 OA
ENDBRANCH  15  22
ENDBRANCH   1  18
BRANCH   9  23
ATOM     23  C   UNL     1       3.766   6.371  17.706  0.00  0.00    +0.000 A 
ATOM     24  C   UNL     1       4.797   6.619  16.776  0.00  0.00    +0.000 A 
ATOM     25  C   UNL     1       5.505   5.572  16.130  0.00  0.00    +0.000 A 
ATOM     26  C   UNL     1       5.192   4.249  16.408  0.00  0.00    +0.000 A 
ATOM     27  C   UNL     1       4.232   3.954  17.353  0.00  0.00    +0.000 A 
ATOM     28  C   UNL     1       3.547   4.999  17.997  0.00  0.00    +0.000 A 
BRANCH  26  29
ATOM     29  O   UNL     1       5.802   3.202  15.772  0.00  0.00    +0.000 OA
ATOM     30  H   UNL     1       6.393   3.546  15.081  0.00  0.00    +0.000 HD
ENDBRANCH  26  29
ENDBRANCH   9  23
TORSDOF 4
ENDMDL
MODEL 9
REMARK VINA RESULT:      -7.8      2.805      3.446
REMARK  Name = 
REMARK  5 active torsions:
REMARK  status: ('A' for Active; 'I' for Inactive)
REMARK    1  A    between atoms: C_1  and  O_2
REMARK    2  A    between atoms: O_2  and  C_3
REMARK    3  A    between atoms: C_6  and  C_7
REMARK    4  A    between atoms: C_15  and  C_16
REMARK    5  A    between atoms: C_19  and  O_20
REMARK                            x       y       z     vdW  Elec       q    Type
REMARK                         _______ _______ _______ _____ _____    ______ ____
ROOT
ATOM      1  C   UNL     1      -0.219  11.993  21.636  0.00  0.00    +0.000 C 
ATOM      2  O   UNL     1      -1.109  11.155  21.743  0.00  0.00    +0.000 OA
ATOM      3  N   UNL     1       0.949  11.782  20.912  0.00  0.00    +0.000 N 
ATOM      4  C   UNL     1       1.094  10.765  19.956  0.00  0.00    +0.000 A 
ATOM      5  N   UNL     1       1.289  11.230  18.711  0.00  0.00    +0.000 NA
ATOM      6  N   UNL     1       1.466  10.140  17.970  0.00  0.00    +0.000 N 
ATOM      7  C   UNL     1       1.618   8.987  18.681  0.00  0.00    +0.000 A 
ATOM      8  C   UNL     1       2.040   7.711  18.243  0.00  0.00    +0.000 A 
ATOM      9  C   UNL     1       2.164   6.632  19.139  0.00  0.00    +0.000 A 
ATOM     10  C   UNL     1       1.784   6.918  20.468  0.00  0.00    +0.000 A 
ATOM     11  C   UNL     1       1.356   8.229  20.908  0.00  0.00    +0.000 A 
ATOM     12  C   UNL     1       1.293   9.316  19.994  0.00  0.00    +0.000 A 
ATOM     13  H   UNL     1       1.284  12.637  20.487  0.00  0.00    +0.000 HD
ATOM     14  H   UNL     1       1.539  10.241  16.963  0.00  0.00    +0.000 HD
ENDROOT
BRANCH   1  18
ATOM     15  C   UNL     1      -0.812  15.807  23.760  0.00  0.00    +0.000 A 
ATOM     16  C   UNL     1      -1.558  14.669  24.051  0.00  0.00    +0.000 A 
ATOM     17  C   UNL     1      -1.359  13.475  23.333  0.00  0.00    +0.000 A 
ATOM     18  C   UNL     1      -0.417  13.375  22.291  0.00  0.00    +0.000 A 
ATOM     19  C   UNL     1       0.275  14.556  21.962  0.00  0.00    +0.000 A 
ATOM     20  C   UNL     1       0.085  15.761  22.692  0.00  0.00    +0.000 A 
BRANCH  15  22
ATOM     21  C   UNL     1      -1.355  16.666  25.930  0.00  0.00    +0.000 C 
ATOM     22  O   UNL     1      -1.078  16.893  24.547  0.00  0.00    +0.000 OA
ENDBRANCH  15  22
ENDBRANCH   1  18
BRANCH   9  23
ATOM     23  C   UNL     1       2.733   5.312  18.639  0.00  0.00    +0.000 A 
ATOM     24  C   UNL     1       2.076   4.468  17.720  0.00  0.00    +0.000 A 
ATOM     25  C   UNL     1       2.558   3.172  17.400  0.00  0.00    +0.000 A 
ATOM     26  C   UNL     1       3.717   2.697  17.999  0.00  0.00    +0.000 A 
ATOM     27  C   UNL     1       4.428   3.506  18.860  0.00  0.00    +0.000 A 
ATOM     28  C   UNL     1       3.948   4.793  19.157  0.00  0.00    +0.000 A 
BRANCH  26  29
ATOM     29  O   UNL     1       4.194   1.434  17.772  0.00  0.00    +0.000 OA
ATOM     30  H   UNL     1       4.282   0.966  18.619  0.00  0.00    +0.000 HD
ENDBRANCH  26  29
ENDBRANCH   9  23
TORSDOF 4
ENDMDL
