MODEL 1
REMARK VINA RESULT:      -7.0      0.000      0.000
REMARK  Name = 
REMARK  15 active torsions:
REMARK  status: ('A' for Active; 'I' for Inactive)
REMARK    1  A    between atoms: C_5  and  O_6
REMARK    2  A    between atoms: C_9  and  C_10
REMARK    3  A    between atoms: C_10  and  O_11
REMARK    4  A    between atoms: C_10  and  C_12
REMARK    5  A    between atoms: C_12  and  N_13
REMARK    6  A    between atoms: N_13  and  C_14
REMARK    7  A    between atoms: C_14  and  C_15
REMARK    8  A    between atoms: C_15  and  S_16
REMARK    9  A    between atoms: S_16  and  C_18
REMARK   10  A    between atoms: C_18  and  C_19
REMARK   11  A    between atoms: C_19  and  C_20
REMARK   12  A    between atoms: C_20  and  N_21
REMARK   13  A    between atoms: N_21  and  C_22
REMARK   14  A    between atoms: C_22  and  C_23
REMARK   15  A    between atoms: C_23  and  C_24
REMARK                            x       y       z     vdW  Elec       q    Type
REMARK                         _______ _______ _______ _____ _____    ______ ____
ROOT
ATOM      1  N   UNL     1       4.751   2.768  19.264  0.00  0.00    +0.000 NA
ATOM      2  H   UNL     1       4.757   3.781  19.417  0.00  0.00    +0.000 HD
ENDROOT
BRANCH   1   3
ATOM      3  C   UNL     1       4.017   2.502  18.004  0.00  0.00    +0.000 C 
BRANCH   3   4
ATOM      4  C   UNL     1       3.673   3.799  17.231  0.00  0.00    +0.000 C 
BRANCH   4  12
ATOM      5  O   UNL     1       8.185   7.351  18.592  0.00  0.00    +0.000 OA
ATOM      6  C   UNL     1       7.505   6.637  17.874  0.00  0.00    +0.000 A 
ATOM      7  N   UNL     1       7.760   6.355  16.556  0.00  0.00    +0.000 N 
ATOM      8  C   UNL     1       6.842   5.509  15.922  0.00  0.00    +0.000 A 
ATOM      9  C   UNL     1       6.895   5.083  14.608  0.00  0.00    +0.000 A 
ATOM     10  C   UNL     1       5.903   4.233  14.136  0.00  0.00    +0.000 A 
ATOM     11  C   UNL     1       4.859   3.828  14.980  0.00  0.00    +0.000 A 
ATOM     12  C   UNL     1       4.786   4.261  16.318  0.00  0.00    +0.000 A 
ATOM     13  C   UNL     1       5.804   5.101  16.770  0.00  0.00    +0.000 A 
ATOM     14  S   UNL     1       6.039   5.805  18.391  0.00  0.00    +0.000 S 
ATOM     15  H   UNL     1       8.573   6.761  16.127  0.00  0.00    +0.000 HD
BRANCH   9  16
ATOM     16  O   UNL     1       7.876   5.443  13.737  0.00  0.00    +0.000 OA
ATOM     17  H   UNL     1       8.670   4.920  13.922  0.00  0.00    +0.000 HD
ENDBRANCH   9  16
ENDBRANCH   4  12
BRANCH   4  18
ATOM     18  O   UNL     1       2.470   3.600  16.478  0.00  0.00    +0.000 OA
ATOM     19  H   UNL     1       2.718   3.772  15.550  0.00  0.00    +0.000 HD
ENDBRANCH   4  18
ENDBRANCH   3   4
ENDBRANCH   1   3
BRANCH   1  20
ATOM     20  C   UNL     1       4.063   2.164  20.424  0.00  0.00    +0.000 C 
BRANCH  20  21
ATOM     21  C   UNL     1       2.599   1.858  20.136  0.00  0.00    +0.000 C 
BRANCH  21  22
ATOM     22  S   UNL     1       1.502   2.679  21.332  0.00  0.00    +0.000 S 
ATOM     23  O   UNL     1       2.409   3.286  22.463  0.00  0.00    +0.000 OA
BRANCH  22  24
ATOM     24  C   UNL     1       1.023   4.060  20.241  0.00  0.00    +0.000 C 
BRANCH  24  25
ATOM     25  C   UNL     1       2.025   5.204  20.316  0.00  0.00    +0.000 C 
BRANCH  25  26
ATOM     26  C   UNL     1       1.348   6.497  20.740  0.00  0.00    +0.000 C 
BRANCH  26  27
ATOM     27  N   UNL     1       2.119   7.615  20.199  0.00  0.00    +0.000 NA
ATOM     28  H   UNL     1       2.522   7.346  19.300  0.00  0.00    +0.000 HD
BRANCH  27  29
ATOM     29  C   UNL     1       1.304   8.816  20.005  0.00  0.00    +0.000 C 
BRANCH  29  30
ATOM     30  C   UNL     1       1.611   9.549  18.691  0.00  0.00    +0.000 C 
BRANCH  30  31
ATOM     31  C   UNL     1       0.874  10.858  18.611  0.00  0.00    +0.000 A 
ATOM     32  C   UNL     1      -0.520  10.887  18.495  0.00  0.00    +0.000 A 
ATOM     33  C   UNL     1      -1.196  12.101  18.440  0.00  0.00    +0.000 A 
ATOM     34  C   UNL     1      -0.485  13.301  18.508  0.00  0.00    +0.000 A 
ATOM     35  C   UNL     1       0.904  13.279  18.627  0.00  0.00    +0.000 A 
ATOM     36 CL   UNL     1       1.783  14.755  18.707  0.00  0.00    +0.000 Cl
ATOM     37  C   UNL     1       1.585  12.066  18.684  0.00  0.00    +0.000 A 
ENDBRANCH  30  31
ENDBRANCH  29  30
ENDBRANCH  27  29
ENDBRANCH  26  27
ENDBRANCH  25  26
ENDBRANCH  24  25
ENDBRANCH  22  24
ENDBRANCH  21  22
ENDBRANCH  20  21
ENDBRANCH   1  20
TORSDOF 15
ENDMDL
MODEL 2
REMARK VINA RESULT:      -7.0      1.876      2.239
REMARK  Name = 
REMARK  15 active torsions:
REMARK  status: ('A' for Active; 'I' for Inactive)
REMARK    1  A    between atoms: C_5  and  O_6
REMARK    2  A    between atoms: C_9  and  C_10
REMARK    3  A    between atoms: C_10  and  O_11
REMARK    4  A    between atoms: C_10  and  C_12
REMARK    5  A    between atoms: C_12  and  N_13
REMARK    6  A    between atoms: N_13  and  C_14
REMARK    7  A    between atoms: C_14  and  C_15
REMARK    8  A    between atoms: C_15  and  S_16
REMARK    9  A    between atoms: S_16  and  C_18
REMARK   10  A    between atoms: C_18  and  C_19
REMARK   11  A    between atoms: C_19  and  C_20
REMARK   12  A    between atoms: C_20  and  N_21
REMARK   13  A    between atoms: N_21  and  C_22
REMARK   14  A    between atoms: C_22  and  C_23
REMARK   15  A    between atoms: C_23  and  C_24
REMARK                            x       y       z     vdW  Elec       q    Type
REMARK                         _______ _______ _______ _____ _____    ______ ____
ROOT
ATOM      1  N   UNL     1       2.743   1.596  18.192  0.00  0.00    +0.000 NA
ATOM      2  H   UNL     1       3.086   0.632  18.247  0.00  0.00    +0.000 HD
ENDROOT
BRANCH   1   3
ATOM      3  C   UNL     1       3.917   2.490  18.050  0.00  0.00    +0.000 C 
BRANCH   3   4
ATOM      4  C   UNL     1       3.600   3.760  17.222  0.00  0.00    +0.000 C 
BRANCH   4  12
ATOM      5  O   UNL     1       8.149   7.205  18.730  0.00  0.00    +0.000 OA
ATOM      6  C   UNL     1       7.474   6.508  17.990  0.00  0.00    +0.000 A 
ATOM      7  N   UNL     1       7.761   6.226  16.678  0.00  0.00    +0.000 N 
ATOM      8  C   UNL     1       6.843   5.403  16.014  0.00  0.00    +0.000 A 
ATOM      9  C   UNL     1       6.926   4.980  14.700  0.00  0.00    +0.000 A 
ATOM     10  C   UNL     1       5.928   4.155  14.195  0.00  0.00    +0.000 A 
ATOM     11  C   UNL     1       4.852   3.771  15.007  0.00  0.00    +0.000 A 
ATOM     12  C   UNL     1       4.750   4.200  16.345  0.00  0.00    +0.000 A 
ATOM     13  C   UNL     1       5.772   5.015  16.829  0.00  0.00    +0.000 A 
ATOM     14  S   UNL     1       5.975   5.707  18.460  0.00  0.00    +0.000 S 
ATOM     15  H   UNL     1       8.595   6.615  16.275  0.00  0.00    +0.000 HD
BRANCH   9  16
ATOM     16  O   UNL     1       7.939   5.322  13.860  0.00  0.00    +0.000 OA
ATOM     17  H   UNL     1       8.648   4.666  13.937  0.00  0.00    +0.000 HD
ENDBRANCH   9  16
ENDBRANCH   4  12
BRANCH   4  18
ATOM     18  O   UNL     1       2.432   3.530  16.425  0.00  0.00    +0.000 OA
ATOM     19  H   UNL     1       1.972   4.390  16.392  0.00  0.00    +0.000 HD
ENDBRANCH   4  18
ENDBRANCH   3   4
ENDBRANCH   1   3
BRANCH   1  20
ATOM     20  C   UNL     1       2.014   1.863  19.449  0.00  0.00    +0.000 C 
BRANCH  20  21
ATOM     21  C   UNL     1       1.049   3.035  19.322  0.00  0.00    +0.000 C 
BRANCH  21  22
ATOM     22  S   UNL     1       1.209   4.179  20.728  0.00  0.00    +0.000 S 
ATOM     23  O   UNL     1       2.207   3.529  21.753  0.00  0.00    +0.000 OA
BRANCH  22  24
ATOM     24  C   UNL     1       2.140   5.465  19.826  0.00  0.00    +0.000 C 
BRANCH  24  25
ATOM     25  C   UNL     1       2.314   6.721  20.667  0.00  0.00    +0.000 C 
BRANCH  25  26
ATOM     26  C   UNL     1       1.622   7.911  20.021  0.00  0.00    +0.000 C 
BRANCH  26  27
ATOM     27  N   UNL     1       1.162   8.804  21.083  0.00  0.00    +0.000 NA
ATOM     28  H   UNL     1       1.969   9.190  21.575  0.00  0.00    +0.000 HD
BRANCH  27  29
ATOM     29  C   UNL     1       0.352   9.912  20.572  0.00  0.00    +0.000 C 
BRANCH  29  30
ATOM     30  C   UNL     1       0.385  10.030  19.042  0.00  0.00    +0.000 C 
BRANCH  30  31
ATOM     31  C   UNL     1      -0.957  10.440  18.497  0.00  0.00    +0.000 A 
ATOM     32  C   UNL     1      -1.775  11.326  19.207  0.00  0.00    +0.000 A 
ATOM     33  C   UNL     1      -3.004  11.716  18.687  0.00  0.00    +0.000 A 
ATOM     34  C   UNL     1      -3.428  11.227  17.449  0.00  0.00    +0.000 A 
ATOM     35  C   UNL     1      -2.615  10.347  16.736  0.00  0.00    +0.000 A 
ATOM     36 CL   UNL     1      -3.134   9.741  15.212  0.00  0.00    +0.000 Cl
ATOM     37  C   UNL     1      -1.383   9.955  17.251  0.00  0.00    +0.000 A 
ENDBRANCH  30  31
ENDBRANCH  29  30
ENDBRANCH  27  29
ENDBRANCH  26  27
ENDBRANCH  25  26
ENDBRANCH  24  25
ENDBRANCH  22  24
ENDBRANCH  21  22
ENDBRANCH  20  21
ENDBRANCH   1  20
TORSDOF 15
ENDMDL
MODEL 3
REMARK VINA RESULT:      -6.7      4.665      7.655
REMARK  Name = 
REMARK  15 active torsions:
REMARK  status: ('A' for Active; 'I' for Inactive)
REMARK    1  A    between atoms: C_5  and  O_6
REMARK    2  A    between atoms: C_9  and  C_10
REMARK    3  A    between atoms: C_10  and  O_11
REMARK    4  A    between atoms: C_10  and  C_12
REMARK    5  A    between atoms: C_12  and  N_13
REMARK    6  A    between atoms: N_13  and  C_14
REMARK    7  A    between atoms: C_14  and  C_15
REMARK    8  A    between atoms: C_15  and  S_16
REMARK    9  A    between atoms: S_16  and  C_18
REMARK   10  A    between atoms: C_18  and  C_19
REMARK   11  A    between atoms: C_19  and  C_20
REMARK   12  A    between atoms: C_20  and  N_21
REMARK   13  A    between atoms: N_21  and  C_22
REMARK   14  A    between atoms: C_22  and  C_23
REMARK   15  A    between atoms: C_23  and  C_24
REMARK                            x       y       z     vdW  Elec       q    Type
REMARK                         _______ _______ _______ _____ _____    ______ ____
ROOT
ATOM      1  N   UNL     1       6.138   3.564  15.947  0.00  0.00    +0.000 NA
ATOM      2  H   UNL     1       6.302   3.249  14.986  0.00  0.00    +0.000 HD
ENDROOT
BRANCH   1   3
ATOM      3  C   UNL     1       4.816   4.233  15.988  0.00  0.00    +0.000 C 
BRANCH   3   4
ATOM      4  C   UNL     1       3.886   3.645  17.079  0.00  0.00    +0.000 C 
BRANCH   4  12
ATOM      5  O   UNL     1       1.602   2.780  22.452  0.00  0.00    +0.000 OA
ATOM      6  C   UNL     1       1.965   3.430  21.485  0.00  0.00    +0.000 A 
ATOM      7  N   UNL     1       1.881   4.794  21.363  0.00  0.00    +0.000 N 
ATOM      8  C   UNL     1       2.357   5.331  20.161  0.00  0.00    +0.000 A 
ATOM      9  C   UNL     1       2.382   6.670  19.817  0.00  0.00    +0.000 A 
ATOM     10  C   UNL     1       2.898   7.037  18.580  0.00  0.00    +0.000 A 
ATOM     11  C   UNL     1       3.373   6.060  17.695  0.00  0.00    +0.000 A 
ATOM     12  C   UNL     1       3.347   4.692  18.027  0.00  0.00    +0.000 A 
ATOM     13  C   UNL     1       2.838   4.353  19.281  0.00  0.00    +0.000 A 
ATOM     14  S   UNL     1       2.685   2.742  20.029  0.00  0.00    +0.000 S 
ATOM     15  H   UNL     1       1.493   5.321  22.125  0.00  0.00    +0.000 HD
BRANCH   9  16
ATOM     16  O   UNL     1       1.931   7.665  20.627  0.00  0.00    +0.000 OA
ATOM     17  H   UNL     1       2.669   8.255  20.842  0.00  0.00    +0.000 HD
ENDBRANCH   9  16
ENDBRANCH   4  12
BRANCH   4  18
ATOM     18  O   UNL     1       2.804   2.943  16.454  0.00  0.00    +0.000 OA
ATOM     19  H   UNL     1       3.221   2.395  15.763  0.00  0.00    +0.000 HD
ENDBRANCH   4  18
ENDBRANCH   3   4
ENDBRANCH   1   3
BRANCH   1  20
ATOM     20  C   UNL     1       7.227   4.506  16.280  0.00  0.00    +0.000 C 
BRANCH  20  21
ATOM     21  C   UNL     1       6.740   5.946  16.380  0.00  0.00    +0.000 C 
BRANCH  21  22
ATOM     22  S   UNL     1       6.932   6.594  18.069  0.00  0.00    +0.000 S 
ATOM     23  O   UNL     1       8.020   5.717  18.789  0.00  0.00    +0.000 OA
BRANCH  22  24
ATOM     24  C   UNL     1       7.746   8.154  17.586  0.00  0.00    +0.000 C 
BRANCH  24  25
ATOM     25  C   UNL     1       8.752   8.607  18.635  0.00  0.00    +0.000 C 
BRANCH  25  26
ATOM     26  C   UNL     1       8.671  10.108  18.859  0.00  0.00    +0.000 C 
BRANCH  26  27
ATOM     27  N   UNL     1       9.430  10.770  17.800  0.00  0.00    +0.000 NA
ATOM     28  H   UNL     1       8.839  11.466  17.343  0.00  0.00    +0.000 HD
BRANCH  27  29
ATOM     29  C   UNL     1      10.632  11.438  18.304  0.00  0.00    +0.000 C 
BRANCH  29  30
ATOM     30  C   UNL     1      10.750  11.397  19.834  0.00  0.00    +0.000 C 
BRANCH  30  31
ATOM     31  C   UNL     1      10.471  12.746  20.440  0.00  0.00    +0.000 A 
ATOM     32  C   UNL     1      10.890  13.916  19.798  0.00  0.00    +0.000 A 
ATOM     33  C   UNL     1      10.611  15.160  20.355  0.00  0.00    +0.000 A 
ATOM     34  C   UNL     1       9.907  15.247  21.558  0.00  0.00    +0.000 A 
ATOM     35  C   UNL     1       9.486  14.083  22.200  0.00  0.00    +0.000 A 
ATOM     36 CL   UNL     1       8.620  14.186  23.683  0.00  0.00    +0.000 Cl
ATOM     37  C   UNL     1       9.760  12.836  21.646  0.00  0.00    +0.000 A 
ENDBRANCH  30  31
ENDBRANCH  29  30
ENDBRANCH  27  29
ENDBRANCH  26  27
ENDBRANCH  25  26
ENDBRANCH  24  25
ENDBRANCH  22  24
ENDBRANCH  21  22
ENDBRANCH  20  21
ENDBRANCH   1  20
TORSDOF 15
ENDMDL
MODEL 4
REMARK VINA RESULT:      -6.6      4.443      9.114
REMARK  Name = 
REMARK  15 active torsions:
REMARK  status: ('A' for Active; 'I' for Inactive)
REMARK    1  A    between atoms: C_5  and  O_6
REMARK    2  A    between atoms: C_9  and  C_10
REMARK    3  A    between atoms: C_10  and  O_11
REMARK    4  A    between atoms: C_10  and  C_12
REMARK    5  A    between atoms: C_12  and  N_13
REMARK    6  A    between atoms: N_13  and  C_14
REMARK    7  A    between atoms: C_14  and  C_15
REMARK    8  A    between atoms: C_15  and  S_16
REMARK    9  A    between atoms: S_16  and  C_18
REMARK   10  A    between atoms: C_18  and  C_19
REMARK   11  A    between atoms: C_19  and  C_20
REMARK   12  A    between atoms: C_20  and  N_21
REMARK   13  A    between atoms: N_21  and  C_22
REMARK   14  A    between atoms: C_22  and  C_23
REMARK   15  A    between atoms: C_23  and  C_24
REMARK                            x       y       z     vdW  Elec       q    Type
REMARK                         _______ _______ _______ _____ _____    ______ ____
ROOT
ATOM      1  N   UNL     1       2.277   7.671  20.421  0.00  0.00    +0.000 NA
ATOM      2  H   UNL     1       2.638   7.451  21.355  0.00  0.00    +0.000 HD
ENDROOT
BRANCH   1   3
ATOM      3  C   UNL     1       1.100   8.556  20.584  0.00  0.00    +0.000 C 
BRANCH   3   4
ATOM      4  C   UNL     1       0.685   9.242  19.258  0.00  0.00    +0.000 C 
BRANCH   4  12
ATOM      5  O   UNL     1      -3.849  11.075  15.954  0.00  0.00    +0.000 OA
ATOM      6  C   UNL     1      -3.056  11.114  16.880  0.00  0.00    +0.000 A 
ATOM      7  N   UNL     1      -3.014  12.079  17.855  0.00  0.00    +0.000 N 
ATOM      8  C   UNL     1      -2.015  11.926  18.824  0.00  0.00    +0.000 A 
ATOM      9  C   UNL     1      -1.785  12.764  19.900  0.00  0.00    +0.000 A 
ATOM     10  C   UNL     1      -0.751  12.462  20.778  0.00  0.00    +0.000 A 
ATOM     11  C   UNL     1       0.050  11.332  20.564  0.00  0.00    +0.000 A 
ATOM     12  C   UNL     1      -0.166  10.474  19.468  0.00  0.00    +0.000 A 
ATOM     13  C   UNL     1      -1.220  10.792  18.612  0.00  0.00    +0.000 A 
ATOM     14  S   UNL     1      -1.788   9.922  17.163  0.00  0.00    +0.000 S 
ATOM     15  H   UNL     1      -3.687  12.824  17.822  0.00  0.00    +0.000 HD
BRANCH   9  16
ATOM     16  O   UNL     1      -2.521  13.877  20.160  0.00  0.00    +0.000 OA
ATOM     17  H   UNL     1      -3.356  13.825  19.671  0.00  0.00    +0.000 HD
ENDBRANCH   9  16
ENDBRANCH   4  12
BRANCH   4  18
ATOM     18  O   UNL     1       1.858   9.577  18.507  0.00  0.00    +0.000 OA
ATOM     19  H   UNL     1       2.031  10.516  18.708  0.00  0.00    +0.000 HD
ENDBRANCH   4  18
ENDBRANCH   3   4
ENDBRANCH   1   3
BRANCH   1  20
ATOM     20  C   UNL     1       1.901   6.386  19.796  0.00  0.00    +0.000 C 
BRANCH  20  21
ATOM     21  C   UNL     1       1.993   5.217  20.769  0.00  0.00    +0.000 C 
BRANCH  21  22
ATOM     22  S   UNL     1       0.875   3.865  20.287  0.00  0.00    +0.000 S 
ATOM     23  O   UNL     1       0.909   3.762  18.720  0.00  0.00    +0.000 OA
BRANCH  22  24
ATOM     24  C   UNL     1       1.920   2.512  20.928  0.00  0.00    +0.000 C 
BRANCH  24  25
ATOM     25  C   UNL     1       3.389   2.909  20.959  0.00  0.00    +0.000 C 
BRANCH  25  26
ATOM     26  C   UNL     1       4.190   2.123  19.933  0.00  0.00    +0.000 C 
BRANCH  26  27
ATOM     27  N   UNL     1       3.303   1.790  18.820  0.00  0.00    +0.000 NA
ATOM     28  H   UNL     1       2.366   2.148  19.013  0.00  0.00    +0.000 HD
BRANCH  27  29
ATOM     29  C   UNL     1       3.764   2.350  17.548  0.00  0.00    +0.000 C 
BRANCH  29  30
ATOM     30  C   UNL     1       4.021   3.862  17.611  0.00  0.00    +0.000 C 
BRANCH  30  31
ATOM     31  C   UNL     1       5.126   4.267  16.674  0.00  0.00    +0.000 A 
ATOM     32  C   UNL     1       6.178   5.077  17.118  0.00  0.00    +0.000 A 
ATOM     33  C   UNL     1       7.205   5.431  16.250  0.00  0.00    +0.000 A 
ATOM     34  C   UNL     1       7.196   4.976  14.930  0.00  0.00    +0.000 A 
ATOM     35  C   UNL     1       6.152   4.167  14.483  0.00  0.00    +0.000 A 
ATOM     36 CL   UNL     1       6.135   3.606  12.858  0.00  0.00    +0.000 Cl
ATOM     37  C   UNL     1       5.122   3.807  15.348  0.00  0.00    +0.000 A 
ENDBRANCH  30  31
ENDBRANCH  29  30
ENDBRANCH  27  29
ENDBRANCH  26  27
ENDBRANCH  25  26
ENDBRANCH  24  25
ENDBRANCH  22  24
ENDBRANCH  21  22
ENDBRANCH  20  21
ENDBRANCH   1  20
TORSDOF 15
ENDMDL
MODEL 5
REMARK VINA RESULT:      -6.6      4.693      7.075
REMARK  Name = 
REMARK  15 active torsions:
REMARK  status: ('A' for Active; 'I' for Inactive)
REMARK    1  A    between atoms: C_5  and  O_6
REMARK    2  A    between atoms: C_9  and  C_10
REMARK    3  A    between atoms: C_10  and  O_11
REMARK    4  A    between atoms: C_10  and  C_12
REMARK    5  A    between atoms: C_12  and  N_13
REMARK    6  A    between atoms: N_13  and  C_14
REMARK    7  A    between atoms: C_14  and  C_15
REMARK    8  A    between atoms: C_15  and  S_16
REMARK    9  A    between atoms: S_16  and  C_18
REMARK   10  A    between atoms: C_18  and  C_19
REMARK   11  A    between atoms: C_19  and  C_20
REMARK   12  A    between atoms: C_20  and  N_21
REMARK   13  A    between atoms: N_21  and  C_22
REMARK   14  A    between atoms: C_22  and  C_23
REMARK   15  A    between atoms: C_23  and  C_24
REMARK                            x       y       z     vdW  Elec       q    Type
REMARK                         _______ _______ _______ _____ _____    ______ ____
ROOT
ATOM      1  N   UNL     1       1.141   8.983  20.229  0.00  0.00    +0.000 NA
ATOM      2  H   UNL     1       0.349   8.849  19.593  0.00  0.00    +0.000 HD
ENDROOT
BRANCH   1   3
ATOM      3  C   UNL     1       1.743   7.655  20.494  0.00  0.00    +0.000 C 
BRANCH   3   4
ATOM      4  C   UNL     1       2.544   7.112  19.284  0.00  0.00    +0.000 C 
BRANCH   4  12
ATOM      5  O   UNL     1       5.952   3.616  15.968  0.00  0.00    +0.000 OA
ATOM      6  C   UNL     1       5.054   3.883  16.750  0.00  0.00    +0.000 A 
ATOM      7  N   UNL     1       4.201   2.975  17.325  0.00  0.00    +0.000 N 
ATOM      8  C   UNL     1       3.239   3.506  18.195  0.00  0.00    +0.000 A 
ATOM      9  C   UNL     1       2.284   2.789  18.891  0.00  0.00    +0.000 A 
ATOM     10  C   UNL     1       1.405   3.472  19.723  0.00  0.00    +0.000 A 
ATOM     11  C   UNL     1       1.484   4.867  19.841  0.00  0.00    +0.000 A 
ATOM     12  C   UNL     1       2.447   5.611  19.132  0.00  0.00    +0.000 A 
ATOM     13  C   UNL     1       3.325   4.898  18.316  0.00  0.00    +0.000 A 
ATOM     14  S   UNL     1       4.667   5.509  17.312  0.00  0.00    +0.000 S 
ATOM     15  H   UNL     1       4.310   2.003  17.097  0.00  0.00    +0.000 HD
BRANCH   9  16
ATOM     16  O   UNL     1       2.151   1.438  18.816  0.00  0.00    +0.000 OA
ATOM     17  H   UNL     1       1.325   1.227  18.355  0.00  0.00    +0.000 HD
ENDBRANCH   9  16
ENDBRANCH   4  12
BRANCH   4  18
ATOM     18  O   UNL     1       2.094   7.758  18.086  0.00  0.00    +0.000 OA
ATOM     19  H   UNL     1       2.270   8.708  18.227  0.00  0.00    +0.000 HD
ENDBRANCH   4  18
ENDBRANCH   3   4
ENDBRANCH   1   3
BRANCH   1  20
ATOM     20  C   UNL     1       0.600   9.584  21.466  0.00  0.00    +0.000 C 
BRANCH  20  21
ATOM     21  C   UNL     1      -0.564  10.528  21.191  0.00  0.00    +0.000 C 
BRANCH  21  22
ATOM     22  S   UNL     1       0.008  12.085  20.443  0.00  0.00    +0.000 S 
ATOM     23  O   UNL     1       1.578  12.035  20.395  0.00  0.00    +0.000 OA
BRANCH  22  24
ATOM     24  C   UNL     1      -0.584  11.718  18.756  0.00  0.00    +0.000 C 
BRANCH  24  25
ATOM     25  C   UNL     1      -1.572  10.560  18.751  0.00  0.00    +0.000 C 
BRANCH  25  26
ATOM     26  C   UNL     1      -2.438  10.586  17.501  0.00  0.00    +0.000 C 
BRANCH  26  27
ATOM     27  N   UNL     1      -3.836  10.681  17.917  0.00  0.00    +0.000 NA
ATOM     28  H   UNL     1      -3.889  10.662  18.937  0.00  0.00    +0.000 HD
BRANCH  27  29
ATOM     29  C   UNL     1      -4.482  11.905  17.439  0.00  0.00    +0.000 C 
BRANCH  29  30
ATOM     30  C   UNL     1      -6.009  11.787  17.347  0.00  0.00    +0.000 C 
BRANCH  30  31
ATOM     31  C   UNL     1      -6.615  11.473  18.689  0.00  0.00    +0.000 A 
ATOM     32  C   UNL     1      -6.936  12.499  19.584  0.00  0.00    +0.000 A 
ATOM     33  C   UNL     1      -7.514  12.202  20.814  0.00  0.00    +0.000 A 
ATOM     34  C   UNL     1      -7.781  10.876  21.160  0.00  0.00    +0.000 A 
ATOM     35  C   UNL     1      -7.466   9.850  20.270  0.00  0.00    +0.000 A 
ATOM     36 CL   UNL     1      -7.792   8.216  20.694  0.00  0.00    +0.000 Cl
ATOM     37  C   UNL     1      -6.890  10.142  19.038  0.00  0.00    +0.000 A 
ENDBRANCH  30  31
ENDBRANCH  29  30
ENDBRANCH  27  29
ENDBRANCH  26  27
ENDBRANCH  25  26
ENDBRANCH  24  25
ENDBRANCH  22  24
ENDBRANCH  21  22
ENDBRANCH  20  21
ENDBRANCH   1  20
TORSDOF 15
ENDMDL
MODEL 6
REMARK VINA RESULT:      -6.5      4.523      6.508
REMARK  Name = 
REMARK  15 active torsions:
REMARK  status: ('A' for Active; 'I' for Inactive)
REMARK    1  A    between atoms: C_5  and  O_6
REMARK    2  A    between atoms: C_9  and  C_10
REMARK    3  A    between atoms: C_10  and  O_11
REMARK    4  A    between atoms: C_10  and  C_12
REMARK    5  A    between atoms: C_12  and  N_13
REMARK    6  A    between atoms: N_13  and  C_14
REMARK    7  A    between atoms: C_14  and  C_15
REMARK    8  A    between atoms: C_15  and  S_16
REMARK    9  A    between atoms: S_16  and  C_18
REMARK   10  A    between atoms: C_18  and  C_19
REMARK   11  A    between atoms: C_19  and  C_20
REMARK   12  A    between atoms: C_20  and  N_21
REMARK   13  A    between atoms: N_21  and  C_22
REMARK   14  A    between atoms: C_22  and  C_23
REMARK   15  A    between atoms: C_23  and  C_24
REMARK                            x       y       z     vdW  Elec       q    Type
REMARK                         _______ _______ _______ _____ _____    ______ ____
ROOT
ATOM      1  N   UNL     1       1.162   8.488  20.312  0.00  0.00    +0.000 NA
ATOM      2  H   UNL     1       0.175   8.281  20.130  0.00  0.00    +0.000 HD
ENDROOT
BRANCH   1   3
ATOM      3  C   UNL     1       1.914   7.213  20.256  0.00  0.00    +0.000 C 
BRANCH   3   4
ATOM      4  C   UNL     1       2.735   7.064  18.951  0.00  0.00    +0.000 C 
BRANCH   4  12
ATOM      5  O   UNL     1       7.489   5.046  16.093  0.00  0.00    +0.000 OA
ATOM      6  C   UNL     1       6.425   4.965  16.685  0.00  0.00    +0.000 A 
ATOM      7  N   UNL     1       5.749   3.803  16.957  0.00  0.00    +0.000 N 
ATOM      8  C   UNL     1       4.540   3.945  17.649  0.00  0.00    +0.000 A 
ATOM      9  C   UNL     1       3.695   2.922  18.038  0.00  0.00    +0.000 A 
ATOM     10  C   UNL     1       2.531   3.237  18.728  0.00  0.00    +0.000 A 
ATOM     11  C   UNL     1       2.219   4.573  19.013  0.00  0.00    +0.000 A 
ATOM     12  C   UNL     1       3.065   5.627  18.617  0.00  0.00    +0.000 A 
ATOM     13  C   UNL     1       4.234   5.281  17.939  0.00  0.00    +0.000 A 
ATOM     14  S   UNL     1       5.528   6.342  17.325  0.00  0.00    +0.000 S 
ATOM     15  H   UNL     1       6.149   2.933  16.653  0.00  0.00    +0.000 HD
BRANCH   9  16
ATOM     16  O   UNL     1       3.938   1.608  17.787  0.00  0.00    +0.000 OA
ATOM     17  H   UNL     1       3.983   1.472  16.829  0.00  0.00    +0.000 HD
ENDBRANCH   9  16
ENDBRANCH   4  12
BRANCH   4  18
ATOM     18  O   UNL     1       2.021   7.670  17.867  0.00  0.00    +0.000 OA
ATOM     19  H   UNL     1       2.187   7.092  17.097  0.00  0.00    +0.000 HD
ENDBRANCH   4  18
ENDBRANCH   3   4
ENDBRANCH   1   3
BRANCH   1  20
ATOM     20  C   UNL     1       1.230   9.093  21.659  0.00  0.00    +0.000 C 
BRANCH  20  21
ATOM     21  C   UNL     1      -0.007   9.920  21.987  0.00  0.00    +0.000 C 
BRANCH  21  22
ATOM     22  S   UNL     1      -0.117  11.396  20.930  0.00  0.00    +0.000 S 
ATOM     23  O   UNL     1      -0.384  10.905  19.461  0.00  0.00    +0.000 OA
BRANCH  22  24
ATOM     24  C   UNL     1      -1.713  11.988  21.588  0.00  0.00    +0.000 C 
BRANCH  24  25
ATOM     25  C   UNL     1      -1.581  12.465  23.027  0.00  0.00    +0.000 C 
BRANCH  25  26
ATOM     26  C   UNL     1      -2.939  12.817  23.613  0.00  0.00    +0.000 C 
BRANCH  26  27
ATOM     27  N   UNL     1      -3.966  12.431  22.649  0.00  0.00    +0.000 NA
ATOM     28  H   UNL     1      -4.630  11.796  23.096  0.00  0.00    +0.000 HD
BRANCH  27  29
ATOM     29  C   UNL     1      -4.704  13.582  22.123  0.00  0.00    +0.000 C 
BRANCH  29  30
ATOM     30  C   UNL     1      -6.173  13.267  21.811  0.00  0.00    +0.000 C 
BRANCH  30  31
ATOM     31  C   UNL     1      -6.293  12.278  20.684  0.00  0.00    +0.000 A 
ATOM     32  C   UNL     1      -7.142  11.171  20.792  0.00  0.00    +0.000 A 
ATOM     33  C   UNL     1      -7.262  10.272  19.738  0.00  0.00    +0.000 A 
ATOM     34  C   UNL     1      -6.538  10.473  18.561  0.00  0.00    +0.000 A 
ATOM     35  C   UNL     1      -5.693  11.576  18.446  0.00  0.00    +0.000 A 
ATOM     36 CL   UNL     1      -4.798  11.825  16.999  0.00  0.00    +0.000 Cl
ATOM     37  C   UNL     1      -5.571  12.480  19.497  0.00  0.00    +0.000 A 
ENDBRANCH  30  31
ENDBRANCH  29  30
ENDBRANCH  27  29
ENDBRANCH  26  27
ENDBRANCH  25  26
ENDBRANCH  24  25
ENDBRANCH  22  24
ENDBRANCH  21  22
ENDBRANCH  20  21
ENDBRANCH   1  20
TORSDOF 15
ENDMDL
MODEL 7
REMARK VINA RESULT:      -6.5      4.503      9.093
REMARK  Name = 
REMARK  15 active torsions:
REMARK  status: ('A' for Active; 'I' for Inactive)
REMARK    1  A    between atoms: C_5  and  O_6
REMARK    2  A    between atoms: C_9  and  C_10
REMARK    3  A    between atoms: C_10  and  O_11
REMARK    4  A    between atoms: C_10  and  C_12
REMARK    5  A    between atoms: C_12  and  N_13
REMARK    6  A    between atoms: N_13  and  C_14
REMARK    7  A    between atoms: C_14  and  C_15
REMARK    8  A    between atoms: C_15  and  S_16
REMARK    9  A    between atoms: S_16  and  C_18
REMARK   10  A    between atoms: C_18  and  C_19
REMARK   11  A    between atoms: C_19  and  C_20
REMARK   12  A    between atoms: C_20  and  N_21
REMARK   13  A    between atoms: N_21  and  C_22
REMARK   14  A    between atoms: C_22  and  C_23
REMARK   15  A    between atoms: C_23  and  C_24
REMARK                            x       y       z     vdW  Elec       q    Type
REMARK                         _______ _______ _______ _____ _____    ______ ____
ROOT
ATOM      1  N   UNL     1       2.460   8.780  17.326  0.00  0.00    +0.000 NA
ATOM      2  H   UNL     1       3.031   9.284  18.012  0.00  0.00    +0.000 HD
ENDROOT
BRANCH   1   3
ATOM      3  C   UNL     1       1.036   9.063  17.622  0.00  0.00    +0.000 C 
BRANCH   3   4
ATOM      4  C   UNL     1       0.843  10.384  18.408  0.00  0.00    +0.000 C 
BRANCH   4  12
ATOM      5  O   UNL     1      -2.294  13.792  22.066  0.00  0.00    +0.000 OA
ATOM      6  C   UNL     1      -1.606  12.836  21.746  0.00  0.00    +0.000 A 
ATOM      7  N   UNL     1      -1.196  11.831  22.585  0.00  0.00    +0.000 N 
ATOM      8  C   UNL     1      -0.407  10.831  22.002  0.00  0.00    +0.000 A 
ATOM      9  C   UNL     1       0.112   9.722  22.644  0.00  0.00    +0.000 A 
ATOM     10  C   UNL     1       0.873   8.818  21.913  0.00  0.00    +0.000 A 
ATOM     11  C   UNL     1       1.115   9.038  20.550  0.00  0.00    +0.000 A 
ATOM     12  C   UNL     1       0.599  10.167  19.884  0.00  0.00    +0.000 A 
ATOM     13  C   UNL     1      -0.172  11.050  20.639  0.00  0.00    +0.000 A 
ATOM     14  S   UNL     1      -0.994  12.545  20.118  0.00  0.00    +0.000 S 
ATOM     15  H   UNL     1      -1.478  11.865  23.549  0.00  0.00    +0.000 HD
BRANCH   9  16
ATOM     16  O   UNL     1      -0.081   9.455  23.963  0.00  0.00    +0.000 OA
ATOM     17  H   UNL     1      -0.726  10.082  24.321  0.00  0.00    +0.000 HD
ENDBRANCH   9  16
ENDBRANCH   4  12
BRANCH   4  18
ATOM     18  O   UNL     1       1.987  11.224  18.216  0.00  0.00    +0.000 OA
ATOM     19  H   UNL     1       1.697  11.911  17.586  0.00  0.00    +0.000 HD
ENDBRANCH   4  18
ENDBRANCH   3   4
ENDBRANCH   1   3
BRANCH   1  20
ATOM     20  C   UNL     1       2.767   7.344  17.487  0.00  0.00    +0.000 C 
BRANCH  20  21
ATOM     21  C   UNL     1       4.178   7.107  18.011  0.00  0.00    +0.000 C 
BRANCH  21  22
ATOM     22  S   UNL     1       5.297   6.568  16.682  0.00  0.00    +0.000 S 
ATOM     23  O   UNL     1       4.866   7.320  15.370  0.00  0.00    +0.000 OA
BRANCH  22  24
ATOM     24  C   UNL     1       6.779   7.422  17.317  0.00  0.00    +0.000 C 
BRANCH  24  25
ATOM     25  C   UNL     1       7.773   6.440  17.921  0.00  0.00    +0.000 C 
BRANCH  25  26
ATOM     26  C   UNL     1       7.140   5.652  19.057  0.00  0.00    +0.000 C 
BRANCH  26  27
ATOM     27  N   UNL     1       6.873   4.296  18.579  0.00  0.00    +0.000 NA
ATOM     28  H   UNL     1       7.636   3.680  18.863  0.00  0.00    +0.000 HD
BRANCH  27  29
ATOM     29  C   UNL     1       5.617   3.755  19.101  0.00  0.00    +0.000 C 
BRANCH  29  30
ATOM     30  C   UNL     1       4.588   3.448  18.005  0.00  0.00    +0.000 C 
BRANCH  30  31
ATOM     31  C   UNL     1       3.201   3.325  18.575  0.00  0.00    +0.000 A 
ATOM     32  C   UNL     1       2.077   3.502  17.762  0.00  0.00    +0.000 A 
ATOM     33  C   UNL     1       0.798   3.367  18.292  0.00  0.00    +0.000 A 
ATOM     34  C   UNL     1       0.630   3.049  19.642  0.00  0.00    +0.000 A 
ATOM     35  C   UNL     1       1.748   2.869  20.456  0.00  0.00    +0.000 A 
ATOM     36 CL   UNL     1       1.544   2.480  22.119  0.00  0.00    +0.000 Cl
ATOM     37  C   UNL     1       3.029   3.001  19.930  0.00  0.00    +0.000 A 
ENDBRANCH  30  31
ENDBRANCH  29  30
ENDBRANCH  27  29
ENDBRANCH  26  27
ENDBRANCH  25  26
ENDBRANCH  24  25
ENDBRANCH  22  24
ENDBRANCH  21  22
ENDBRANCH  20  21
ENDBRANCH   1  20
TORSDOF 15
ENDMDL
MODEL 8
REMARK VINA RESULT:      -6.4      4.292      9.101
REMARK  Name = 
REMARK  15 active torsions:
REMARK  status: ('A' for Active; 'I' for Inactive)
REMARK    1  A    between atoms: C_5  and  O_6
REMARK    2  A    between atoms: C_9  and  C_10
REMARK    3  A    between atoms: C_10  and  O_11
REMARK    4  A    between atoms: C_10  and  C_12
REMARK    5  A    between atoms: C_12  and  N_13
REMARK    6  A    between atoms: N_13  and  C_14
REMARK    7  A    between atoms: C_14  and  C_15
REMARK    8  A    between atoms: C_15  and  S_16
REMARK    9  A    between atoms: S_16  and  C_18
REMARK   10  A    between atoms: C_18  and  C_19
REMARK   11  A    between atoms: C_19  and  C_20
REMARK   12  A    between atoms: C_20  and  N_21
REMARK   13  A    between atoms: N_21  and  C_22
REMARK   14  A    between atoms: C_22  and  C_23
REMARK   15  A    between atoms: C_23  and  C_24
REMARK                            x       y       z     vdW  Elec       q    Type
REMARK                         _______ _______ _______ _____ _____    ______ ____
ROOT
ATOM      1  N   UNL     1       2.264   8.378  19.879  0.00  0.00    +0.000 NA
ATOM      2  H   UNL     1       2.784   8.522  20.750  0.00  0.00    +0.000 HD
ENDROOT
BRANCH   1   3
ATOM      3  C   UNL     1       0.898   8.922  20.068  0.00  0.00    +0.000 C 
BRANCH   3   4
ATOM      4  C   UNL     1       0.382   9.679  18.818  0.00  0.00    +0.000 C 
BRANCH   4  12
ATOM      5  O   UNL     1      -4.429  10.995  15.663  0.00  0.00    +0.000 OA
ATOM      6  C   UNL     1      -3.650  11.081  16.599  0.00  0.00    +0.000 A 
ATOM      7  N   UNL     1      -3.777  11.932  17.667  0.00  0.00    +0.000 N 
ATOM      8  C   UNL     1      -2.760  11.862  18.628  0.00  0.00    +0.000 A 
ATOM      9  C   UNL     1      -2.679  12.613  19.787  0.00  0.00    +0.000 A 
ATOM     10  C   UNL     1      -1.602  12.414  20.642  0.00  0.00    +0.000 A 
ATOM     11  C   UNL     1      -0.611  11.475  20.323  0.00  0.00    +0.000 A 
ATOM     12  C   UNL     1      -0.676  10.709  19.143  0.00  0.00    +0.000 A 
ATOM     13  C   UNL     1      -1.775  10.918  18.311  0.00  0.00    +0.000 A 
ATOM     14  S   UNL     1      -2.186  10.114  16.774  0.00  0.00    +0.000 S 
ATOM     15  H   UNL     1      -4.573  12.543  17.702  0.00  0.00    +0.000 HD
BRANCH   9  16
ATOM     16  O   UNL     1      -3.602  13.542  20.150  0.00  0.00    +0.000 OA
ATOM     17  H   UNL     1      -3.365  13.900  21.019  0.00  0.00    +0.000 HD
ENDBRANCH   9  16
ENDBRANCH   4  12
BRANCH   4  18
ATOM     18  O   UNL     1       1.486  10.301  18.149  0.00  0.00    +0.000 OA
ATOM     19  H   UNL     1       1.714  11.075  18.697  0.00  0.00    +0.000 HD
ENDBRANCH   4  18
ENDBRANCH   3   4
ENDBRANCH   1   3
BRANCH   1  20
ATOM     20  C   UNL     1       2.233   6.921  19.635  0.00  0.00    +0.000 C 
BRANCH  20  21
ATOM     21  C   UNL     1       1.771   6.137  20.858  0.00  0.00    +0.000 C 
BRANCH  21  22
ATOM     22  S   UNL     1       1.962   4.346  20.608  0.00  0.00    +0.000 S 
ATOM     23  O   UNL     1       0.539   3.760  20.291  0.00  0.00    +0.000 OA
BRANCH  22  24
ATOM     24  C   UNL     1       2.850   4.465  19.018  0.00  0.00    +0.000 C 
BRANCH  24  25
ATOM     25  C   UNL     1       4.051   3.532  18.978  0.00  0.00    +0.000 C 
BRANCH  25  26
ATOM     26  C   UNL     1       4.184   2.868  17.616  0.00  0.00    +0.000 C 
BRANCH  26  27
ATOM     27  N   UNL     1       4.315   3.918  16.608  0.00  0.00    +0.000 NA
ATOM     28  H   UNL     1       4.341   4.830  17.068  0.00  0.00    +0.000 HD
BRANCH  27  29
ATOM     29  C   UNL     1       5.526   3.770  15.798  0.00  0.00    +0.000 C 
BRANCH  29  30
ATOM     30  C   UNL     1       6.214   5.106  15.488  0.00  0.00    +0.000 C 
BRANCH  30  31
ATOM     31  C   UNL     1       6.890   5.669  16.708  0.00  0.00    +0.000 A 
ATOM     32  C   UNL     1       7.271   4.832  17.763  0.00  0.00    +0.000 A 
ATOM     33  C   UNL     1       7.913   5.357  18.879  0.00  0.00    +0.000 A 
ATOM     34  C   UNL     1       8.186   6.725  18.951  0.00  0.00    +0.000 A 
ATOM     35  C   UNL     1       7.812   7.563  17.901  0.00  0.00    +0.000 A 
ATOM     36 CL   UNL     1       8.144   9.248  17.988  0.00  0.00    +0.000 Cl
ATOM     37  C   UNL     1       7.171   7.042  16.782  0.00  0.00    +0.000 A 
ENDBRANCH  30  31
ENDBRANCH  29  30
ENDBRANCH  27  29
ENDBRANCH  26  27
ENDBRANCH  25  26
ENDBRANCH  24  25
ENDBRANCH  22  24
ENDBRANCH  21  22
ENDBRANCH  20  21
ENDBRANCH   1  20
TORSDOF 15
ENDMDL
MODEL 9
REMARK VINA RESULT:      -6.4      4.971      9.891
REMARK  Name = 
REMARK  15 active torsions:
REMARK  status: ('A' for Active; 'I' for Inactive)
REMARK    1  A    between atoms: C_5  and  O_6
REMARK    2  A    between atoms: C_9  and  C_10
REMARK    3  A    between atoms: C_10  and  O_11
REMARK    4  A    between atoms: C_10  and  C_12
REMARK    5  A    between atoms: C_12  and  N_13
REMARK    6  A    between atoms: N_13  and  C_14
REMARK    7  A    between atoms: C_14  and  C_15
REMARK    8  A    between atoms: C_15  and  S_16
REMARK    9  A    between atoms: S_16  and  C_18
REMARK   10  A    between atoms: C_18  and  C_19
REMARK   11  A    between atoms: C_19  and  C_20
REMARK   12  A    between atoms: C_20  and  N_21
REMARK   13  A    between atoms: N_21  and  C_22
REMARK   14  A    between atoms: C_22  and  C_23
REMARK   15  A    between atoms: C_23  and  C_24
REMARK                            x       y       z     vdW  Elec       q    Type
REMARK                         _______ _______ _______ _____ _____    ______ ____
ROOT
ATOM      1  N   UNL     1       0.441   8.145  21.443  0.00  0.00    +0.000 NA
ATOM      2  H   UNL     1      -0.096   7.376  21.028  0.00  0.00    +0.000 HD
ENDROOT
BRANCH   1   3
ATOM      3  C   UNL     1      -0.274   9.410  21.152  0.00  0.00    +0.000 C 
BRANCH   3   4
ATOM      4  C   UNL     1       0.054  10.527  22.174  0.00  0.00    +0.000 C 
BRANCH   4  12
ATOM      5  O   UNL     1      -0.273  15.196  18.578  0.00  0.00    +0.000 OA
ATOM      6  C   UNL     1      -0.618  14.465  19.493  0.00  0.00    +0.000 A 
ATOM      7  N   UNL     1      -1.706  14.662  20.305  0.00  0.00    +0.000 N 
ATOM      8  C   UNL     1      -1.913  13.695  21.296  0.00  0.00    +0.000 A 
ATOM      9  C   UNL     1      -2.943  13.678  22.219  0.00  0.00    +0.000 A 
ATOM     10  C   UNL     1      -3.007  12.635  23.135  0.00  0.00    +0.000 A 
ATOM     11  C   UNL     1      -2.035  11.626  23.125  0.00  0.00    +0.000 A 
ATOM     12  C   UNL     1      -0.976  11.633  22.196  0.00  0.00    +0.000 A 
ATOM     13  C   UNL     1      -0.945  12.683  21.279  0.00  0.00    +0.000 A 
ATOM     14  S   UNL     1       0.219  12.986  19.963  0.00  0.00    +0.000 S 
ATOM     15  H   UNL     1      -2.283  15.470  20.147  0.00  0.00    +0.000 HD
BRANCH   9  16
ATOM     16  O   UNL     1      -3.912  14.629  22.286  0.00  0.00    +0.000 OA
ATOM     17  H   UNL     1      -3.875  15.058  23.153  0.00  0.00    +0.000 HD
ENDBRANCH   9  16
ENDBRANCH   4  12
BRANCH   4  18
ATOM     18  O   UNL     1       0.189   9.953  23.480  0.00  0.00    +0.000 OA
ATOM     19  H   UNL     1       0.053   8.995  23.353  0.00  0.00    +0.000 HD
ENDBRANCH   4  18
ENDBRANCH   3   4
ENDBRANCH   1   3
BRANCH   1  20
ATOM     20  C   UNL     1       1.776   8.125  20.811  0.00  0.00    +0.000 C 
BRANCH  20  21
ATOM     21  C   UNL     1       1.706   8.318  19.301  0.00  0.00    +0.000 C 
BRANCH  21  22
ATOM     22  S   UNL     1       2.359   6.868  18.416  0.00  0.00    +0.000 S 
ATOM     23  O   UNL     1       3.743   7.279  17.795  0.00  0.00    +0.000 OA
BRANCH  22  24
ATOM     24  C   UNL     1       2.723   5.879  19.907  0.00  0.00    +0.000 C 
BRANCH  24  25
ATOM     25  C   UNL     1       1.620   4.869  20.189  0.00  0.00    +0.000 C 
BRANCH  25  26
ATOM     26  C   UNL     1       1.817   3.602  19.371  0.00  0.00    +0.000 C 
BRANCH  26  27
ATOM     27  N   UNL     1       2.918   2.844  19.961  0.00  0.00    +0.000 NA
ATOM     28  H   UNL     1       2.548   2.010  20.420  0.00  0.00    +0.000 HD
BRANCH  27  29
ATOM     29  C   UNL     1       3.909   2.428  18.966  0.00  0.00    +0.000 C 
BRANCH  29  30
ATOM     30  C   UNL     1       3.699   3.081  17.593  0.00  0.00    +0.000 C 
BRANCH  30  31
ATOM     31  C   UNL     1       4.861   3.962  17.224  0.00  0.00    +0.000 A 
ATOM     32  C   UNL     1       5.085   4.327  15.892  0.00  0.00    +0.000 A 
ATOM     33  C   UNL     1       6.150   5.158  15.562  0.00  0.00    +0.000 A 
ATOM     34  C   UNL     1       7.000   5.638  16.560  0.00  0.00    +0.000 A 
ATOM     35  C   UNL     1       6.780   5.280  17.890  0.00  0.00    +0.000 A 
ATOM     36 CL   UNL     1       7.826   5.866  19.122  0.00  0.00    +0.000 Cl
ATOM     37  C   UNL     1       5.714   4.450  18.226  0.00  0.00    +0.000 A 
ENDBRANCH  30  31
ENDBRANCH  29  30
ENDBRANCH  27  29
ENDBRANCH  26  27
ENDBRANCH  25  26
ENDBRANCH  24  25
ENDBRANCH  22  24
ENDBRANCH  21  22
ENDBRANCH  20  21
ENDBRANCH   1  20
TORSDOF 15
ENDMDL
