MODEL 1
REMARK VINA RESULT:      -7.0      0.000      0.000
REMARK  Name = 
REMARK  8 active torsions:
REMARK  status: ('A' for Active; 'I' for Inactive)
REMARK    1  A    between atoms: C_1  and  C_2
REMARK    2  A    between atoms: C_2  and  O_3
REMARK    3  A    between atoms: O_3  and  C_4
REMARK    4  A    between atoms: C_4  and  C_6
REMARK    5  A    between atoms: C_6  and  O_7
REMARK    6  A    between atoms: O_7  and  C_8
REMARK    7  A    between atoms: C_11  and  C_12
REMARK    8  A    between atoms: N_14  and  C_15
REMARK                            x       y       z     vdW  Elec       q    Type
REMARK                         _______ _______ _______ _____ _____    ______ ____
ROOT
ATOM      1  C   UNL     1       7.995   7.355  18.479  0.00  0.00    +0.000 A 
ATOM      2  C   UNL     1       7.161   7.716  17.426  0.00  0.00    +0.000 A 
ATOM      3  C   UNL     1       6.190   6.838  16.963  0.00  0.00    +0.000 A 
ATOM      4  C   UNL     1       6.051   5.577  17.542  0.00  0.00    +0.000 A 
ATOM      5  C   UNL     1       6.884   5.210  18.607  0.00  0.00    +0.000 A 
ATOM      6  C   UNL     1       7.861   6.100  19.076  0.00  0.00    +0.000 A 
ENDROOT
BRANCH   4   7
ATOM      7  C   UNL     1       5.079   4.581  16.980  0.00  0.00    +0.000 C 
ATOM      8  O   UNL     1       5.345   3.975  15.950  0.00  0.00    +0.000 OA
ATOM      9  N   UNL     1       3.902   4.419  17.689  0.00  0.00    +0.000 N 
ATOM     10  H   UNL     1       3.887   4.737  18.647  0.00  0.00    +0.000 HD
BRANCH   9  11
ATOM     11  C   UNL     1       2.856   3.485  17.281  0.00  0.00    +0.000 C 
ATOM     12  C   UNL     1       3.080   2.101  17.898  0.00  0.00    +0.000 C 
ATOM     13  C   UNL     1       2.879   2.109  19.414  0.00  0.00    +0.000 C 
ATOM     14  C   UNL     1       1.514   2.669  19.811  0.00  0.00    +0.000 C 
ATOM     15  C   UNL     1       1.236   4.029  19.178  0.00  0.00    +0.000 C 
ATOM     16  C   UNL     1       1.464   4.008  17.666  0.00  0.00    +0.000 C 
ENDBRANCH   9  11
ENDBRANCH   4   7
BRANCH   1  17
ATOM     17  O   UNL     1       8.933   8.290  18.794  0.00  0.00    +0.000 OA
BRANCH  17  18
ATOM     18  C   UNL     1       8.590   9.646  18.554  0.00  0.00    +0.000 C 
BRANCH  18  19
ATOM     19  C   UNL     1       9.466  10.505  19.446  0.00  0.00    +0.000 C 
ATOM     20  O   UNL     1       9.284  10.727  20.637  0.00  0.00    +0.000 OA
BRANCH  19  21
ATOM     21  O   UNL     1      10.455  11.068  18.692  0.00  0.00    +0.000 OA
BRANCH  21  23
ATOM     22  C   UNL     1      12.331  12.247  19.556  0.00  0.00    +0.000 C 
ATOM     23  C   UNL     1      10.875  12.363  19.140  0.00  0.00    +0.000 C 
ENDBRANCH  21  23
ENDBRANCH  19  21
ENDBRANCH  18  19
ENDBRANCH  17  18
ENDBRANCH   1  17
TORSDOF 7
ENDMDL
MODEL 2
REMARK VINA RESULT:      -7.0      0.837      1.248
REMARK  Name = 
REMARK  8 active torsions:
REMARK  status: ('A' for Active; 'I' for Inactive)
REMARK    1  A    between atoms: C_1  and  C_2
REMARK    2  A    between atoms: C_2  and  O_3
REMARK    3  A    between atoms: O_3  and  C_4
REMARK    4  A    between atoms: C_4  and  C_6
REMARK    5  A    between atoms: C_6  and  O_7
REMARK    6  A    between atoms: O_7  and  C_8
REMARK    7  A    between atoms: C_11  and  C_12
REMARK    8  A    between atoms: N_14  and  C_15
REMARK                            x       y       z     vdW  Elec       q    Type
REMARK                         _______ _______ _______ _____ _____    ______ ____
ROOT
ATOM      1  C   UNL     1       7.908   7.396  18.332  0.00  0.00    +0.000 A 
ATOM      2  C   UNL     1       6.976   7.664  17.334  0.00  0.00    +0.000 A 
ATOM      3  C   UNL     1       6.036   6.709  16.972  0.00  0.00    +0.000 A 
ATOM      4  C   UNL     1       6.027   5.462  17.596  0.00  0.00    +0.000 A 
ATOM      5  C   UNL     1       6.958   5.188  18.606  0.00  0.00    +0.000 A 
ATOM      6  C   UNL     1       7.903   6.156  18.974  0.00  0.00    +0.000 A 
ENDROOT
BRANCH   4   7
ATOM      7  C   UNL     1       5.087   4.385  17.139  0.00  0.00    +0.000 C 
ATOM      8  O   UNL     1       5.365   3.698  16.164  0.00  0.00    +0.000 OA
ATOM      9  N   UNL     1       3.923   4.245  17.875  0.00  0.00    +0.000 N 
ATOM     10  H   UNL     1       3.906   4.647  18.801  0.00  0.00    +0.000 HD
BRANCH   9  11
ATOM     11  C   UNL     1       2.909   3.242  17.566  0.00  0.00    +0.000 C 
ATOM     12  C   UNL     1       3.151   1.950  18.353  0.00  0.00    +0.000 C 
ATOM     13  C   UNL     1       2.918   2.139  19.853  0.00  0.00    +0.000 C 
ATOM     14  C   UNL     1       1.532   2.708  20.153  0.00  0.00    +0.000 C 
ATOM     15  C   UNL     1       1.235   3.972  19.351  0.00  0.00    +0.000 C 
ATOM     16  C   UNL     1       1.496   3.772  17.857  0.00  0.00    +0.000 C 
ENDBRANCH   9  11
ENDBRANCH   4   7
BRANCH   1  17
ATOM     17  O   UNL     1       8.799   8.401  18.548  0.00  0.00    +0.000 OA
BRANCH  17  18
ATOM     18  C   UNL     1       8.490   9.665  17.980  0.00  0.00    +0.000 C 
BRANCH  18  19
ATOM     19  C   UNL     1       9.393  10.694  18.633  0.00  0.00    +0.000 C 
ATOM     20  O   UNL     1      10.044  11.553  18.052  0.00  0.00    +0.000 OA
BRANCH  19  21
ATOM     21  O   UNL     1       9.433  10.463  19.978  0.00  0.00    +0.000 OA
BRANCH  21  23
ATOM     22  C   UNL     1       8.806  12.051  21.634  0.00  0.00    +0.000 C 
ATOM     23  C   UNL     1       9.939  11.559  20.750  0.00  0.00    +0.000 C 
ENDBRANCH  21  23
ENDBRANCH  19  21
ENDBRANCH  18  19
ENDBRANCH  17  18
ENDBRANCH   1  17
TORSDOF 7
ENDMDL
MODEL 3
REMARK VINA RESULT:      -7.0      1.036      1.202
REMARK  Name = 
REMARK  8 active torsions:
REMARK  status: ('A' for Active; 'I' for Inactive)
REMARK    1  A    between atoms: C_1  and  C_2
REMARK    2  A    between atoms: C_2  and  O_3
REMARK    3  A    between atoms: O_3  and  C_4
REMARK    4  A    between atoms: C_4  and  C_6
REMARK    5  A    between atoms: C_6  and  O_7
REMARK    6  A    between atoms: O_7  and  C_8
REMARK    7  A    between atoms: C_11  and  C_12
REMARK    8  A    between atoms: N_14  and  C_15
REMARK                            x       y       z     vdW  Elec       q    Type
REMARK                         _______ _______ _______ _____ _____    ______ ____
ROOT
ATOM      1  C   UNL     1       7.687   7.303  18.154  0.00  0.00    +0.000 A 
ATOM      2  C   UNL     1       6.650   7.537  17.257  0.00  0.00    +0.000 A 
ATOM      3  C   UNL     1       5.628   6.609  17.102  0.00  0.00    +0.000 A 
ATOM      4  C   UNL     1       5.641   5.424  17.836  0.00  0.00    +0.000 A 
ATOM      5  C   UNL     1       6.679   5.184  18.745  0.00  0.00    +0.000 A 
ATOM      6  C   UNL     1       7.707   6.125  18.903  0.00  0.00    +0.000 A 
ENDROOT
BRANCH   4   7
ATOM      7  C   UNL     1       4.601   4.367  17.599  0.00  0.00    +0.000 C 
ATOM      8  O   UNL     1       4.533   3.803  16.514  0.00  0.00    +0.000 OA
ATOM      9  N   UNL     1       3.755   4.102  18.661  0.00  0.00    +0.000 N 
ATOM     10  H   UNL     1       4.052   4.399  19.579  0.00  0.00    +0.000 HD
BRANCH   9  11
ATOM     11  C   UNL     1       2.696   3.099  18.596  0.00  0.00    +0.000 C 
ATOM     12  C   UNL     1       2.895   2.016  19.661  0.00  0.00    +0.000 C 
ATOM     13  C   UNL     1       2.689   2.556  21.076  0.00  0.00    +0.000 C 
ATOM     14  C   UNL     1       1.333   3.239  21.241  0.00  0.00    +0.000 C 
ATOM     15  C   UNL     1       1.078   4.295  20.169  0.00  0.00    +0.000 C 
ATOM     16  C   UNL     1       1.311   3.743  18.761  0.00  0.00    +0.000 C 
ENDBRANCH   9  11
ENDBRANCH   4   7
BRANCH   1  17
ATOM     17  O   UNL     1       8.644   8.269  18.164  0.00  0.00    +0.000 OA
BRANCH  17  18
ATOM     18  C   UNL     1       8.203   9.609  18.005  0.00  0.00    +0.000 C 
BRANCH  18  19
ATOM     19  C   UNL     1       9.151  10.500  18.786  0.00  0.00    +0.000 C 
ATOM     20  O   UNL     1       9.524  10.321  19.938  0.00  0.00    +0.000 OA
BRANCH  19  21
ATOM     21  O   UNL     1       9.464  11.591  18.026  0.00  0.00    +0.000 OA
BRANCH  21  23
ATOM     22  C   UNL     1      11.040  13.049  17.003  0.00  0.00    +0.000 C 
ATOM     23  C   UNL     1      10.866  11.761  17.788  0.00  0.00    +0.000 C 
ENDBRANCH  21  23
ENDBRANCH  19  21
ENDBRANCH  18  19
ENDBRANCH  17  18
ENDBRANCH   1  17
TORSDOF 7
ENDMDL
MODEL 4
REMARK VINA RESULT:      -6.9      0.933      1.660
REMARK  Name = 
REMARK  8 active torsions:
REMARK  status: ('A' for Active; 'I' for Inactive)
REMARK    1  A    between atoms: C_1  and  C_2
REMARK    2  A    between atoms: C_2  and  O_3
REMARK    3  A    between atoms: O_3  and  C_4
REMARK    4  A    between atoms: C_4  and  C_6
REMARK    5  A    between atoms: C_6  and  O_7
REMARK    6  A    between atoms: O_7  and  C_8
REMARK    7  A    between atoms: C_11  and  C_12
REMARK    8  A    between atoms: N_14  and  C_15
REMARK                            x       y       z     vdW  Elec       q    Type
REMARK                         _______ _______ _______ _____ _____    ______ ____
ROOT
ATOM      1  C   UNL     1       7.932   7.492  18.191  0.00  0.00    +0.000 A 
ATOM      2  C   UNL     1       8.017   6.300  18.904  0.00  0.00    +0.000 A 
ATOM      3  C   UNL     1       7.248   5.203  18.537  0.00  0.00    +0.000 A 
ATOM      4  C   UNL     1       6.371   5.291  17.456  0.00  0.00    +0.000 A 
ATOM      5  C   UNL     1       6.286   6.486  16.730  0.00  0.00    +0.000 A 
ATOM      6  C   UNL     1       7.067   7.591  17.100  0.00  0.00    +0.000 A 
ENDROOT
BRANCH   4   7
ATOM      7  C   UNL     1       5.458   4.149  17.118  0.00  0.00    +0.000 C 
ATOM      8  O   UNL     1       5.471   3.663  15.994  0.00  0.00    +0.000 OA
ATOM      9  N   UNL     1       4.629   3.715  18.136  0.00  0.00    +0.000 N 
ATOM     10  H   UNL     1       4.875   3.973  19.081  0.00  0.00    +0.000 HD
BRANCH   9  11
ATOM     11  C   UNL     1       3.687   2.611  17.973  0.00  0.00    +0.000 C 
ATOM     12  C   UNL     1       3.300   2.010  19.328  0.00  0.00    +0.000 C 
ATOM     13  C   UNL     1       2.464   2.976  20.168  0.00  0.00    +0.000 C 
ATOM     14  C   UNL     1       1.228   3.470  19.418  0.00  0.00    +0.000 C 
ATOM     15  C   UNL     1       1.568   4.035  18.041  0.00  0.00    +0.000 C 
ATOM     16  C   UNL     1       2.424   3.065  17.225  0.00  0.00    +0.000 C 
ENDBRANCH   9  11
ENDBRANCH   4   7
BRANCH   1  17
ATOM     17  O   UNL     1       8.701   8.497  18.691  0.00  0.00    +0.000 OA
BRANCH  17  18
ATOM     18  C   UNL     1       8.393   9.814  18.261  0.00  0.00    +0.000 C 
BRANCH  18  19
ATOM     19  C   UNL     1       9.592  10.690  18.570  0.00  0.00    +0.000 C 
ATOM     20  O   UNL     1      10.216  11.369  17.765  0.00  0.00    +0.000 OA
BRANCH  19  21
ATOM     21  O   UNL     1       9.925  10.541  19.886  0.00  0.00    +0.000 OA
BRANCH  21  23
ATOM     22  C   UNL     1      10.263  12.567  21.086  0.00  0.00    +0.000 C 
ATOM     23  C   UNL     1       9.271  11.461  20.768  0.00  0.00    +0.000 C 
ENDBRANCH  21  23
ENDBRANCH  19  21
ENDBRANCH  18  19
ENDBRANCH  17  18
ENDBRANCH   1  17
TORSDOF 7
ENDMDL
MODEL 5
REMARK VINA RESULT:      -6.9      5.758      8.185
REMARK  Name = 
REMARK  8 active torsions:
REMARK  status: ('A' for Active; 'I' for Inactive)
REMARK    1  A    between atoms: C_1  and  C_2
REMARK    2  A    between atoms: C_2  and  O_3
REMARK    3  A    between atoms: O_3  and  C_4
REMARK    4  A    between atoms: C_4  and  C_6
REMARK    5  A    between atoms: C_6  and  O_7
REMARK    6  A    between atoms: O_7  and  C_8
REMARK    7  A    between atoms: C_11  and  C_12
REMARK    8  A    between atoms: N_14  and  C_15
REMARK                            x       y       z     vdW  Elec       q    Type
REMARK                         _______ _______ _______ _____ _____    ______ ____
ROOT
ATOM      1  C   UNL     1       0.969   9.617  19.096  0.00  0.00    +0.000 A 
ATOM      2  C   UNL     1       1.078   8.875  20.268  0.00  0.00    +0.000 A 
ATOM      3  C   UNL     1       1.841   7.715  20.301  0.00  0.00    +0.000 A 
ATOM      4  C   UNL     1       2.495   7.274  19.150  0.00  0.00    +0.000 A 
ATOM      5  C   UNL     1       2.394   8.019  17.968  0.00  0.00    +0.000 A 
ATOM      6  C   UNL     1       1.627   9.193  17.940  0.00  0.00    +0.000 A 
ENDROOT
BRANCH   4   7
ATOM      7  C   UNL     1       3.233   5.967  19.145  0.00  0.00    +0.000 C 
ATOM      8  O   UNL     1       2.839   5.034  19.834  0.00  0.00    +0.000 OA
ATOM      9  N   UNL     1       4.355   5.909  18.337  0.00  0.00    +0.000 N 
ATOM     10  H   UNL     1       4.443   6.605  17.611  0.00  0.00    +0.000 HD
BRANCH   9  11
ATOM     11  C   UNL     1       5.180   4.711  18.214  0.00  0.00    +0.000 C 
ATOM     12  C   UNL     1       4.900   3.981  16.896  0.00  0.00    +0.000 C 
ATOM     13  C   UNL     1       5.377   4.781  15.684  0.00  0.00    +0.000 C 
ATOM     14  C   UNL     1       6.852   5.165  15.792  0.00  0.00    +0.000 C 
ATOM     15  C   UNL     1       7.179   5.855  17.113  0.00  0.00    +0.000 C 
ATOM     16  C   UNL     1       6.674   5.052  18.313  0.00  0.00    +0.000 C 
ENDBRANCH   9  11
ENDBRANCH   4   7
BRANCH   1  17
ATOM     17  O   UNL     1       0.150  10.698  19.195  0.00  0.00    +0.000 OA
BRANCH  17  18
ATOM     18  C   UNL     1      -1.180  10.540  18.724  0.00  0.00    +0.000 C 
BRANCH  18  19
ATOM     19  C   UNL     1      -1.533  11.776  17.919  0.00  0.00    +0.000 C 
ATOM     20  O   UNL     1      -0.979  12.866  17.991  0.00  0.00    +0.000 OA
BRANCH  19  21
ATOM     21  O   UNL     1      -2.630  11.509  17.150  0.00  0.00    +0.000 OA
BRANCH  21  23
ATOM     22  C   UNL     1      -2.885  10.267  15.138  0.00  0.00    +0.000 C 
ATOM     23  C   UNL     1      -2.681  10.171  16.640  0.00  0.00    +0.000 C 
ENDBRANCH  21  23
ENDBRANCH  19  21
ENDBRANCH  18  19
ENDBRANCH  17  18
ENDBRANCH   1  17
TORSDOF 7
ENDMDL
MODEL 6
REMARK VINA RESULT:      -6.8      1.086      1.460
REMARK  Name = 
REMARK  8 active torsions:
REMARK  status: ('A' for Active; 'I' for Inactive)
REMARK    1  A    between atoms: C_1  and  C_2
REMARK    2  A    between atoms: C_2  and  O_3
REMARK    3  A    between atoms: O_3  and  C_4
REMARK    4  A    between atoms: C_4  and  C_6
REMARK    5  A    between atoms: C_6  and  O_7
REMARK    6  A    between atoms: O_7  and  C_8
REMARK    7  A    between atoms: C_11  and  C_12
REMARK    8  A    between atoms: N_14  and  C_15
REMARK                            x       y       z     vdW  Elec       q    Type
REMARK                         _______ _______ _______ _____ _____    ______ ____
ROOT
ATOM      1  C   UNL     1       7.500   7.615  17.870  0.00  0.00    +0.000 A 
ATOM      2  C   UNL     1       6.312   7.579  17.148  0.00  0.00    +0.000 A 
ATOM      3  C   UNL     1       5.482   6.467  17.208  0.00  0.00    +0.000 A 
ATOM      4  C   UNL     1       5.842   5.366  17.984  0.00  0.00    +0.000 A 
ATOM      5  C   UNL     1       7.034   5.397  18.719  0.00  0.00    +0.000 A 
ATOM      6  C   UNL     1       7.867   6.524  18.660  0.00  0.00    +0.000 A 
ENDROOT
BRANCH   4   7
ATOM      7  C   UNL     1       5.008   4.118  17.972  0.00  0.00    +0.000 C 
ATOM      8  O   UNL     1       4.928   3.441  16.955  0.00  0.00    +0.000 OA
ATOM      9  N   UNL     1       4.358   3.813  19.154  0.00  0.00    +0.000 N 
ATOM     10  H   UNL     1       4.694   4.254  19.999  0.00  0.00    +0.000 HD
BRANCH   9  11
ATOM     11  C   UNL     1       3.513   2.632  19.311  0.00  0.00    +0.000 C 
ATOM     12  C   UNL     1       3.099   2.440  20.774  0.00  0.00    +0.000 C 
ATOM     13  C   UNL     1       2.145   3.537  21.249  0.00  0.00    +0.000 C 
ATOM     14  C   UNL     1       0.919   3.665  20.348  0.00  0.00    +0.000 C 
ATOM     15  C   UNL     1       1.291   3.813  18.875  0.00  0.00    +0.000 C 
ATOM     16  C   UNL     1       2.263   2.722  18.423  0.00  0.00    +0.000 C 
ENDBRANCH   9  11
ENDBRANCH   4   7
BRANCH   1  17
ATOM     17  O   UNL     1       8.237   8.742  17.677  0.00  0.00    +0.000 OA
BRANCH  17  18
ATOM     18  C   UNL     1       8.899   9.277  18.813  0.00  0.00    +0.000 C 
BRANCH  18  19
ATOM     19  C   UNL     1       9.131  10.754  18.556  0.00  0.00    +0.000 C 
ATOM     20  O   UNL     1       8.600  11.425  17.680  0.00  0.00    +0.000 OA
BRANCH  19  21
ATOM     21  O   UNL     1      10.095  11.208  19.409  0.00  0.00    +0.000 OA
BRANCH  21  23
ATOM     22  C   UNL     1      12.333  11.912  19.801  0.00  0.00    +0.000 C 
ATOM     23  C   UNL     1      11.237  11.779  18.758  0.00  0.00    +0.000 C 
ENDBRANCH  21  23
ENDBRANCH  19  21
ENDBRANCH  18  19
ENDBRANCH  17  18
ENDBRANCH   1  17
TORSDOF 7
ENDMDL
MODEL 7
REMARK VINA RESULT:      -6.8      4.346      7.340
REMARK  Name = 
REMARK  8 active torsions:
REMARK  status: ('A' for Active; 'I' for Inactive)
REMARK    1  A    between atoms: C_1  and  C_2
REMARK    2  A    between atoms: C_2  and  O_3
REMARK    3  A    between atoms: O_3  and  C_4
REMARK    4  A    between atoms: C_4  and  C_6
REMARK    5  A    between atoms: C_6  and  O_7
REMARK    6  A    between atoms: O_7  and  C_8
REMARK    7  A    between atoms: C_11  and  C_12
REMARK    8  A    between atoms: N_14  and  C_15
REMARK                            x       y       z     vdW  Elec       q    Type
REMARK                         _______ _______ _______ _____ _____    ______ ____
ROOT
ATOM      1  C   UNL     1       6.480   4.351  14.793  0.00  0.00    +0.000 A 
ATOM      2  C   UNL     1       5.218   3.914  15.185  0.00  0.00    +0.000 A 
ATOM      3  C   UNL     1       4.819   4.010  16.512  0.00  0.00    +0.000 A 
ATOM      4  C   UNL     1       5.688   4.533  17.469  0.00  0.00    +0.000 A 
ATOM      5  C   UNL     1       6.957   4.981  17.080  0.00  0.00    +0.000 A 
ATOM      6  C   UNL     1       7.356   4.887  15.738  0.00  0.00    +0.000 A 
ENDROOT
BRANCH   4   7
ATOM      7  C   UNL     1       5.309   4.543  18.921  0.00  0.00    +0.000 C 
ATOM      8  O   UNL     1       6.118   4.905  19.766  0.00  0.00    +0.000 OA
ATOM      9  N   UNL     1       4.027   4.116  19.215  0.00  0.00    +0.000 N 
ATOM     10  H   UNL     1       3.354   4.105  18.461  0.00  0.00    +0.000 HD
BRANCH   9  11
ATOM     11  C   UNL     1       3.501   4.070  20.576  0.00  0.00    +0.000 C 
ATOM     12  C   UNL     1       2.345   5.061  20.755  0.00  0.00    +0.000 C 
ATOM     13  C   UNL     1       1.107   4.649  19.957  0.00  0.00    +0.000 C 
ATOM     14  C   UNL     1       0.660   3.225  20.282  0.00  0.00    +0.000 C 
ATOM     15  C   UNL     1       1.797   2.214  20.160  0.00  0.00    +0.000 C 
ATOM     16  C   UNL     1       3.034   2.654  20.945  0.00  0.00    +0.000 C 
ENDBRANCH   9  11
ENDBRANCH   4   7
BRANCH   1  17
ATOM     17  O   UNL     1       6.755   4.149  13.476  0.00  0.00    +0.000 OA
BRANCH  17  18
ATOM     18  C   UNL     1       5.646   3.969  12.609  0.00  0.00    +0.000 C 
BRANCH  18  19
ATOM     19  C   UNL     1       5.945   2.776  11.722  0.00  0.00    +0.000 C 
ATOM     20  O   UNL     1       7.048   2.285  11.522  0.00  0.00    +0.000 OA
BRANCH  19  21
ATOM     21  O   UNL     1       4.792   2.379  11.106  0.00  0.00    +0.000 OA
BRANCH  21  23
ATOM     22  C   UNL     1       3.175   3.670   9.934  0.00  0.00    +0.000 C 
ATOM     23  C   UNL     1       3.682   3.262  11.306  0.00  0.00    +0.000 C 
ENDBRANCH  21  23
ENDBRANCH  19  21
ENDBRANCH  18  19
ENDBRANCH  17  18
ENDBRANCH   1  17
TORSDOF 7
ENDMDL
MODEL 8
REMARK VINA RESULT:      -6.8      5.630      7.525
REMARK  Name = 
REMARK  8 active torsions:
REMARK  status: ('A' for Active; 'I' for Inactive)
REMARK    1  A    between atoms: C_1  and  C_2
REMARK    2  A    between atoms: C_2  and  O_3
REMARK    3  A    between atoms: O_3  and  C_4
REMARK    4  A    between atoms: C_4  and  C_6
REMARK    5  A    between atoms: C_6  and  O_7
REMARK    6  A    between atoms: O_7  and  C_8
REMARK    7  A    between atoms: C_11  and  C_12
REMARK    8  A    between atoms: N_14  and  C_15
REMARK                            x       y       z     vdW  Elec       q    Type
REMARK                         _______ _______ _______ _____ _____    ______ ____
ROOT
ATOM      1  C   UNL     1       1.217   9.739  19.126  0.00  0.00    +0.000 A 
ATOM      2  C   UNL     1       1.257   8.859  20.203  0.00  0.00    +0.000 A 
ATOM      3  C   UNL     1       1.879   7.623  20.081  0.00  0.00    +0.000 A 
ATOM      4  C   UNL     1       2.458   7.246  18.870  0.00  0.00    +0.000 A 
ATOM      5  C   UNL     1       2.427   8.129  17.784  0.00  0.00    +0.000 A 
ATOM      6  C   UNL     1       1.803   9.379  17.911  0.00  0.00    +0.000 A 
ENDROOT
BRANCH   4   7
ATOM      7  C   UNL     1       3.037   5.872  18.695  0.00  0.00    +0.000 C 
ATOM      8  O   UNL     1       2.426   4.890  19.097  0.00  0.00    +0.000 OA
ATOM      9  N   UNL     1       4.273   5.811  18.075  0.00  0.00    +0.000 N 
ATOM     10  H   UNL     1       4.566   6.615  17.539  0.00  0.00    +0.000 HD
BRANCH   9  11
ATOM     11  C   UNL     1       4.970   4.553  17.824  0.00  0.00    +0.000 C 
ATOM     12  C   UNL     1       4.777   4.096  16.374  0.00  0.00    +0.000 C 
ATOM     13  C   UNL     1       5.487   5.018  15.382  0.00  0.00    +0.000 C 
ATOM     14  C   UNL     1       6.970   5.184  15.709  0.00  0.00    +0.000 C 
ATOM     15  C   UNL     1       7.204   5.595  17.160  0.00  0.00    +0.000 C 
ATOM     16  C   UNL     1       6.469   4.676  18.136  0.00  0.00    +0.000 C 
ENDBRANCH   9  11
ENDBRANCH   4   7
BRANCH   1  17
ATOM     17  O   UNL     1       0.532  10.888  19.370  0.00  0.00    +0.000 OA
BRANCH  17  18
ATOM     18  C   UNL     1       0.924  11.637  20.511  0.00  0.00    +0.000 C 
BRANCH  18  19
ATOM     19  C   UNL     1      -0.335  12.014  21.268  0.00  0.00    +0.000 C 
ATOM     20  O   UNL     1      -1.325  12.559  20.795  0.00  0.00    +0.000 OA
BRANCH  19  21
ATOM     21  O   UNL     1      -0.164  11.723  22.591  0.00  0.00    +0.000 OA
BRANCH  21  23
ATOM     22  C   UNL     1      -0.145   9.482  23.388  0.00  0.00    +0.000 C 
ATOM     23  C   UNL     1      -1.021  10.685  23.082  0.00  0.00    +0.000 C 
ENDBRANCH  21  23
ENDBRANCH  19  21
ENDBRANCH  18  19
ENDBRANCH  17  18
ENDBRANCH   1  17
TORSDOF 7
ENDMDL
MODEL 9
REMARK VINA RESULT:      -6.7      4.349      6.136
REMARK  Name = 
REMARK  8 active torsions:
REMARK  status: ('A' for Active; 'I' for Inactive)
REMARK    1  A    between atoms: C_1  and  C_2
REMARK    2  A    between atoms: C_2  and  O_3
REMARK    3  A    between atoms: O_3  and  C_4
REMARK    4  A    between atoms: C_4  and  C_6
REMARK    5  A    between atoms: C_6  and  O_7
REMARK    6  A    between atoms: O_7  and  C_8
REMARK    7  A    between atoms: C_11  and  C_12
REMARK    8  A    between atoms: N_14  and  C_15
REMARK                            x       y       z     vdW  Elec       q    Type
REMARK                         _______ _______ _______ _____ _____    ______ ____
ROOT
ATOM      1  C   UNL     1       6.365   5.513  15.675  0.00  0.00    +0.000 A 
ATOM      2  C   UNL     1       5.916   6.717  16.209  0.00  0.00    +0.000 A 
ATOM      3  C   UNL     1       4.799   6.750  17.033  0.00  0.00    +0.000 A 
ATOM      4  C   UNL     1       4.107   5.575  17.324  0.00  0.00    +0.000 A 
ATOM      5  C   UNL     1       4.558   4.358  16.795  0.00  0.00    +0.000 A 
ATOM      6  C   UNL     1       5.689   4.327  15.966  0.00  0.00    +0.000 A 
ENDROOT
BRANCH   4   7
ATOM      7  C   UNL     1       2.839   5.613  18.125  0.00  0.00    +0.000 C 
ATOM      8  O   UNL     1       2.310   6.685  18.391  0.00  0.00    +0.000 OA
ATOM      9  N   UNL     1       2.341   4.387  18.529  0.00  0.00    +0.000 N 
ATOM     10  H   UNL     1       2.672   3.566  18.042  0.00  0.00    +0.000 HD
BRANCH   9  11
ATOM     11  C   UNL     1       1.115   4.250  19.309  0.00  0.00    +0.000 C 
ATOM     12  C   UNL     1       0.666   2.786  19.379  0.00  0.00    +0.000 C 
ATOM     13  C   UNL     1       1.626   1.930  20.206  0.00  0.00    +0.000 C 
ATOM     14  C   UNL     1       1.848   2.500  21.605  0.00  0.00    +0.000 C 
ATOM     15  C   UNL     1       2.252   3.971  21.578  0.00  0.00    +0.000 C 
ATOM     16  C   UNL     1       1.294   4.808  20.729  0.00  0.00    +0.000 C 
ENDBRANCH   9  11
ENDBRANCH   4   7
BRANCH   1  17
ATOM     17  O   UNL     1       7.436   5.636  14.845  0.00  0.00    +0.000 OA
BRANCH  17  18
ATOM     18  C   UNL     1       7.686   4.556  13.958  0.00  0.00    +0.000 C 
BRANCH  18  19
ATOM     19  C   UNL     1       7.738   5.119  12.551  0.00  0.00    +0.000 C 
ATOM     20  O   UNL     1       8.200   6.205  12.226  0.00  0.00    +0.000 OA
BRANCH  19  21
ATOM     21  O   UNL     1       7.107   4.255  11.702  0.00  0.00    +0.000 OA
BRANCH  21  23
ATOM     22  C   UNL     1       6.024   2.143  11.550  0.00  0.00    +0.000 C 
ATOM     23  C   UNL     1       6.100   3.448  12.323  0.00  0.00    +0.000 C 
ENDBRANCH  21  23
ENDBRANCH  19  21
ENDBRANCH  18  19
ENDBRANCH  17  18
ENDBRANCH   1  17
TORSDOF 7
ENDMDL
