MODEL 1
REMARK VINA RESULT:      -7.9      0.000      0.000
REMARK  Name = 
REMARK  8 active torsions:
REMARK  status: ('A' for Active; 'I' for Inactive)
REMARK    1  A    between atoms: C_1  and  C_2
REMARK    2  A    between atoms: C_2  and  C_3
REMARK    3  A    between atoms: C_3  and  N_4
REMARK    4  A    between atoms: C_11  and  C_12
REMARK    5  A    between atoms: C_15  and  O_16
REMARK    6  A    between atoms: O_16  and  C_17
REMARK    7  A    between atoms: C_18  and  O_19
REMARK    8  A    between atoms: O_19  and  C_20
REMARK                            x       y       z     vdW  Elec       q    Type
REMARK                         _______ _______ _______ _____ _____    ______ ____
ROOT
ATOM      1  N   UNL     1       1.969   8.002  19.535  0.00  0.00    +0.000 N 
ATOM      2  C   UNL     1       2.314   6.674  19.683  0.00  0.00    +0.000 A 
ATOM      3  C   UNL     1       1.648   5.906  20.785  0.00  0.00    +0.000 A 
ATOM      4  C   UNL     1       1.916   4.605  20.916  0.00  0.00    +0.000 A 
ATOM      5  C   UNL     1       2.834   3.999  20.037  0.00  0.00    +0.000 A 
ATOM      6  N   UNL     1       3.239   2.752  19.965  0.00  0.00    +0.000 NA
ATOM      7  C   UNL     1       4.132   2.742  18.932  0.00  0.00    +0.000 A 
ATOM      8  C   UNL     1       4.302   3.995  18.359  0.00  0.00    +0.000 A 
ATOM      9  N   UNL     1       3.427   4.804  19.076  0.00  0.00    +0.000 N 
ATOM     10  N   UNL     1       3.182   6.135  18.869  0.00  0.00    +0.000 NA
ATOM     11  H   UNL     1       1.179   8.320  20.083  0.00  0.00    +0.000 HD
ENDROOT
BRANCH   8  12
ATOM     12  C   UNL     1       5.173   4.386  17.242  0.00  0.00    +0.000 A 
ATOM     13  C   UNL     1       5.263   3.647  16.063  0.00  0.00    +0.000 A 
ATOM     14  C   UNL     1       6.170   4.013  15.066  0.00  0.00    +0.000 A 
ATOM     15  C   UNL     1       7.020   5.117  15.218  0.00  0.00    +0.000 A 
ATOM     16  C   UNL     1       6.944   5.881  16.394  0.00  0.00    +0.000 A 
ATOM     17  C   UNL     1       6.007   5.513  17.377  0.00  0.00    +0.000 A 
BRANCH  15  18
ATOM     18  O   UNL     1       7.842   5.285  14.135  0.00  0.00    +0.000 OA
ATOM     19  C   UNL     1       7.375   4.896  12.852  0.00  0.00    +0.000 C 
ENDBRANCH  15  18
BRANCH  16  20
ATOM     20  O   UNL     1       7.798   6.940  16.542  0.00  0.00    +0.000 OA
ATOM     21  C   UNL     1       7.654   7.783  17.677  0.00  0.00    +0.000 C 
ENDBRANCH  16  20
ENDBRANCH   8  12
BRANCH   1  22
ATOM     22  C   UNL     1       2.096   8.672  18.248  0.00  0.00    +0.000 C 
BRANCH  22  24
ATOM     23  C   UNL     1       0.336  10.098  19.341  0.00  0.00    +0.000 C 
ATOM     24  C   UNL     1       0.914   9.611  18.021  0.00  0.00    +0.000 C 
ENDBRANCH  22  24
ENDBRANCH   1  22
TORSDOF 5
ENDMDL
MODEL 2
REMARK VINA RESULT:      -7.8      1.054      1.119
REMARK  Name = 
REMARK  8 active torsions:
REMARK  status: ('A' for Active; 'I' for Inactive)
REMARK    1  A    between atoms: C_1  and  C_2
REMARK    2  A    between atoms: C_2  and  C_3
REMARK    3  A    between atoms: C_3  and  N_4
REMARK    4  A    between atoms: C_11  and  C_12
REMARK    5  A    between atoms: C_15  and  O_16
REMARK    6  A    between atoms: O_16  and  C_17
REMARK    7  A    between atoms: C_18  and  O_19
REMARK    8  A    between atoms: O_19  and  C_20
REMARK                            x       y       z     vdW  Elec       q    Type
REMARK                         _______ _______ _______ _____ _____    ______ ____
ROOT
ATOM      1  N   UNL     1       1.904   6.897  20.325  0.00  0.00    +0.000 N 
ATOM      2  C   UNL     1       2.085   5.569  19.994  0.00  0.00    +0.000 A 
ATOM      3  C   UNL     1       1.254   4.557  20.723  0.00  0.00    +0.000 A 
ATOM      4  C   UNL     1       1.363   3.271  20.385  0.00  0.00    +0.000 A 
ATOM      5  C   UNL     1       2.272   2.898  19.376  0.00  0.00    +0.000 A 
ATOM      6  N   UNL     1       2.538   1.715  18.873  0.00  0.00    +0.000 NA
ATOM      7  C   UNL     1       3.501   1.953  17.934  0.00  0.00    +0.000 A 
ATOM      8  C   UNL     1       3.855   3.294  17.857  0.00  0.00    +0.000 A 
ATOM      9  N   UNL     1       3.024   3.905  18.789  0.00  0.00    +0.000 N 
ATOM     10  N   UNL     1       2.946   5.242  19.069  0.00  0.00    +0.000 NA
ATOM     11  H   UNL     1       1.114   7.102  20.925  0.00  0.00    +0.000 HD
ENDROOT
BRANCH   8  12
ATOM     12  C   UNL     1       4.849   3.934  16.984  0.00  0.00    +0.000 A 
ATOM     13  C   UNL     1       4.927   3.676  15.617  0.00  0.00    +0.000 A 
ATOM     14  C   UNL     1       5.943   4.246  14.847  0.00  0.00    +0.000 A 
ATOM     15  C   UNL     1       6.917   5.078  15.418  0.00  0.00    +0.000 A 
ATOM     16  C   UNL     1       6.855   5.357  16.792  0.00  0.00    +0.000 A 
ATOM     17  C   UNL     1       5.810   4.796  17.548  0.00  0.00    +0.000 A 
BRANCH  15  18
ATOM     18  O   UNL     1       7.830   5.510  14.492  0.00  0.00    +0.000 OA
ATOM     19  C   UNL     1       7.693   5.086  13.143  0.00  0.00    +0.000 C 
ENDBRANCH  15  18
BRANCH  16  20
ATOM     20  O   UNL     1       7.827   6.149  17.343  0.00  0.00    +0.000 OA
ATOM     21  C   UNL     1       7.553   7.528  17.547  0.00  0.00    +0.000 C 
ENDBRANCH  16  20
ENDBRANCH   8  12
BRANCH   1  22
ATOM     22  C   UNL     1       2.204   7.956  19.371  0.00  0.00    +0.000 C 
BRANCH  22  24
ATOM     23  C   UNL     1       0.611   9.126  20.926  0.00  0.00    +0.000 C 
ATOM     24  C   UNL     1       1.217   9.109  19.531  0.00  0.00    +0.000 C 
ENDBRANCH  22  24
ENDBRANCH   1  22
TORSDOF 5
ENDMDL
MODEL 3
REMARK VINA RESULT:      -7.6      1.552      2.737
REMARK  Name = 
REMARK  8 active torsions:
REMARK  status: ('A' for Active; 'I' for Inactive)
REMARK    1  A    between atoms: C_1  and  C_2
REMARK    2  A    between atoms: C_2  and  C_3
REMARK    3  A    between atoms: C_3  and  N_4
REMARK    4  A    between atoms: C_11  and  C_12
REMARK    5  A    between atoms: C_15  and  O_16
REMARK    6  A    between atoms: O_16  and  C_17
REMARK    7  A    between atoms: C_18  and  O_19
REMARK    8  A    between atoms: O_19  and  C_20
REMARK                            x       y       z     vdW  Elec       q    Type
REMARK                         _______ _______ _______ _____ _____    ______ ____
ROOT
ATOM      1  N   UNL     1       1.261   6.099  21.094  0.00  0.00    +0.000 N 
ATOM      2  C   UNL     1       1.686   4.937  20.482  0.00  0.00    +0.000 A 
ATOM      3  C   UNL     1       0.862   3.704  20.696  0.00  0.00    +0.000 A 
ATOM      4  C   UNL     1       1.213   2.579  20.071  0.00  0.00    +0.000 A 
ATOM      5  C   UNL     1       2.358   2.574  19.252  0.00  0.00    +0.000 A 
ATOM      6  N   UNL     1       2.883   1.606  18.536  0.00  0.00    +0.000 NA
ATOM      7  C   UNL     1       3.984   2.169  17.956  0.00  0.00    +0.000 A 
ATOM      8  C   UNL     1       4.162   3.497  18.321  0.00  0.00    +0.000 A 
ATOM      9  N   UNL     1       3.077   3.757  19.149  0.00  0.00    +0.000 N 
ATOM     10  N   UNL     1       2.761   4.950  19.742  0.00  0.00    +0.000 NA
ATOM     11  H   UNL     1       0.341   6.069  21.516  0.00  0.00    +0.000 HD
ENDROOT
BRANCH   8  12
ATOM     12  C   UNL     1       5.224   4.428  17.915  0.00  0.00    +0.000 A 
ATOM     13  C   UNL     1       5.921   5.220  18.826  0.00  0.00    +0.000 A 
ATOM     14  C   UNL     1       6.862   6.150  18.380  0.00  0.00    +0.000 A 
ATOM     15  C   UNL     1       7.127   6.328  17.015  0.00  0.00    +0.000 A 
ATOM     16  C   UNL     1       6.443   5.538  16.078  0.00  0.00    +0.000 A 
ATOM     17  C   UNL     1       5.517   4.587  16.546  0.00  0.00    +0.000 A 
BRANCH  15  18
ATOM     18  O   UNL     1       8.065   7.303  16.797  0.00  0.00    +0.000 OA
ATOM     19  C   UNL     1       8.072   8.449  17.636  0.00  0.00    +0.000 C 
ENDBRANCH  15  18
BRANCH  16  20
ATOM     20  O   UNL     1       6.691   5.739  14.747  0.00  0.00    +0.000 OA
ATOM     21  C   UNL     1       6.841   4.609  13.899  0.00  0.00    +0.000 C 
ENDBRANCH  16  20
ENDBRANCH   8  12
BRANCH   1  22
ATOM     22  C   UNL     1       1.614   7.405  20.553  0.00  0.00    +0.000 C 
BRANCH  22  24
ATOM     23  C   UNL     1      -0.297   8.768  21.457  0.00  0.00    +0.000 C 
ATOM     24  C   UNL     1       1.201   8.510  21.522  0.00  0.00    +0.000 C 
ENDBRANCH  22  24
ENDBRANCH   1  22
TORSDOF 5
ENDMDL
MODEL 4
REMARK VINA RESULT:      -7.4      3.398      6.680
REMARK  Name = 
REMARK  8 active torsions:
REMARK  status: ('A' for Active; 'I' for Inactive)
REMARK    1  A    between atoms: C_1  and  C_2
REMARK    2  A    between atoms: C_2  and  C_3
REMARK    3  A    between atoms: C_3  and  N_4
REMARK    4  A    between atoms: C_11  and  C_12
REMARK    5  A    between atoms: C_15  and  O_16
REMARK    6  A    between atoms: O_16  and  C_17
REMARK    7  A    between atoms: C_18  and  O_19
REMARK    8  A    between atoms: O_19  and  C_20
REMARK                            x       y       z     vdW  Elec       q    Type
REMARK                         _______ _______ _______ _____ _____    ______ ____
ROOT
ATOM      1  N   UNL     1       7.527   7.463  16.900  0.00  0.00    +0.000 N 
ATOM      2  C   UNL     1       6.513   6.538  17.043  0.00  0.00    +0.000 A 
ATOM      3  C   UNL     1       6.820   5.115  16.684  0.00  0.00    +0.000 A 
ATOM      4  C   UNL     1       5.880   4.187  16.867  0.00  0.00    +0.000 A 
ATOM      5  C   UNL     1       4.620   4.572  17.364  0.00  0.00    +0.000 A 
ATOM      6  N   UNL     1       3.560   3.846  17.635  0.00  0.00    +0.000 NA
ATOM      7  C   UNL     1       2.634   4.746  18.080  0.00  0.00    +0.000 A 
ATOM      8  C   UNL     1       3.111   6.051  18.076  0.00  0.00    +0.000 A 
ATOM      9  N   UNL     1       4.420   5.919  17.629  0.00  0.00    +0.000 N 
ATOM     10  N   UNL     1       5.345   6.918  17.488  0.00  0.00    +0.000 NA
ATOM     11  H   UNL     1       8.448   7.088  16.711  0.00  0.00    +0.000 HD
ENDROOT
BRANCH   8  12
ATOM     12  C   UNL     1       2.418   7.285  18.473  0.00  0.00    +0.000 A 
ATOM     13  C   UNL     1       2.197   8.341  17.592  0.00  0.00    +0.000 A 
ATOM     14  C   UNL     1       1.609   9.526  18.040  0.00  0.00    +0.000 A 
ATOM     15  C   UNL     1       1.237   9.697  19.381  0.00  0.00    +0.000 A 
ATOM     16  C   UNL     1       1.443   8.644  20.287  0.00  0.00    +0.000 A 
ATOM     17  C   UNL     1       2.012   7.449  19.812  0.00  0.00    +0.000 A 
BRANCH  15  18
ATOM     18  O   UNL     1       0.701  10.937  19.611  0.00  0.00    +0.000 OA
ATOM     19  C   UNL     1      -0.630  11.198  19.191  0.00  0.00    +0.000 C 
ENDBRANCH  15  18
BRANCH  16  20
ATOM     20  O   UNL     1       1.100   8.833  21.599  0.00  0.00    +0.000 OA
ATOM     21  C   UNL     1      -0.256   8.656  21.984  0.00  0.00    +0.000 C 
ENDBRANCH  16  20
ENDBRANCH   8  12
BRANCH   1  22
ATOM     22  C   UNL     1       7.545   8.685  17.693  0.00  0.00    +0.000 C 
BRANCH  22  24
ATOM     23  C   UNL     1       9.177  10.099  18.983  0.00  0.00    +0.000 C 
ATOM     24  C   UNL     1       8.738   8.682  18.645  0.00  0.00    +0.000 C 
ENDBRANCH  22  24
ENDBRANCH   1  22
TORSDOF 5
ENDMDL
MODEL 5
REMARK VINA RESULT:      -7.4      3.063      6.576
REMARK  Name = 
REMARK  8 active torsions:
REMARK  status: ('A' for Active; 'I' for Inactive)
REMARK    1  A    between atoms: C_1  and  C_2
REMARK    2  A    between atoms: C_2  and  C_3
REMARK    3  A    between atoms: C_3  and  N_4
REMARK    4  A    between atoms: C_11  and  C_12
REMARK    5  A    between atoms: C_15  and  O_16
REMARK    6  A    between atoms: O_16  and  C_17
REMARK    7  A    between atoms: C_18  and  O_19
REMARK    8  A    between atoms: O_19  and  C_20
REMARK                            x       y       z     vdW  Elec       q    Type
REMARK                         _______ _______ _______ _____ _____    ______ ____
ROOT
ATOM      1  N   UNL     1       7.695   6.977  16.959  0.00  0.00    +0.000 N 
ATOM      2  C   UNL     1       6.628   6.106  16.857  0.00  0.00    +0.000 A 
ATOM      3  C   UNL     1       6.820   4.873  16.026  0.00  0.00    +0.000 A 
ATOM      4  C   UNL     1       5.829   3.983  15.956  0.00  0.00    +0.000 A 
ATOM      5  C   UNL     1       4.625   4.239  16.640  0.00  0.00    +0.000 A 
ATOM      6  N   UNL     1       3.532   3.515  16.729  0.00  0.00    +0.000 NA
ATOM      7  C   UNL     1       2.694   4.256  17.511  0.00  0.00    +0.000 A 
ATOM      8  C   UNL     1       3.257   5.463  17.906  0.00  0.00    +0.000 A 
ATOM      9  N   UNL     1       4.531   5.427  17.350  0.00  0.00    +0.000 N 
ATOM     10  N   UNL     1       5.514   6.370  17.484  0.00  0.00    +0.000 NA
ATOM     11  H   UNL     1       8.578   6.643  16.591  0.00  0.00    +0.000 HD
ENDROOT
BRANCH   8  12
ATOM     12  C   UNL     1       2.671   6.524  18.738  0.00  0.00    +0.000 A 
ATOM     13  C   UNL     1       2.366   6.341  20.085  0.00  0.00    +0.000 A 
ATOM     14  C   UNL     1       1.731   7.353  20.810  0.00  0.00    +0.000 A 
ATOM     15  C   UNL     1       1.372   8.568  20.211  0.00  0.00    +0.000 A 
ATOM     16  C   UNL     1       1.675   8.778  18.856  0.00  0.00    +0.000 A 
ATOM     17  C   UNL     1       2.337   7.759  18.148  0.00  0.00    +0.000 A 
BRANCH  15  18
ATOM     18  O   UNL     1       0.743   9.409  21.092  0.00  0.00    +0.000 OA
ATOM     19  C   UNL     1       0.989   9.255  22.482  0.00  0.00    +0.000 C 
ENDBRANCH  15  18
BRANCH  16  20
ATOM     20  O   UNL     1       1.295   9.959  18.276  0.00  0.00    +0.000 OA
ATOM     21  C   UNL     1      -0.067  10.138  17.918  0.00  0.00    +0.000 C 
ENDBRANCH  16  20
ENDBRANCH   8  12
BRANCH   1  22
ATOM     22  C   UNL     1       7.836   7.860  18.108  0.00  0.00    +0.000 C 
BRANCH  22  24
ATOM     23  C   UNL     1       8.978  10.017  18.716  0.00  0.00    +0.000 C 
ATOM     24  C   UNL     1       8.187   9.273  17.650  0.00  0.00    +0.000 C 
ENDBRANCH  22  24
ENDBRANCH   1  22
TORSDOF 5
ENDMDL
MODEL 6
REMARK VINA RESULT:      -7.2      4.008      7.408
REMARK  Name = 
REMARK  8 active torsions:
REMARK  status: ('A' for Active; 'I' for Inactive)
REMARK    1  A    between atoms: C_1  and  C_2
REMARK    2  A    between atoms: C_2  and  C_3
REMARK    3  A    between atoms: C_3  and  N_4
REMARK    4  A    between atoms: C_11  and  C_12
REMARK    5  A    between atoms: C_15  and  O_16
REMARK    6  A    between atoms: O_16  and  C_17
REMARK    7  A    between atoms: C_18  and  O_19
REMARK    8  A    between atoms: O_19  and  C_20
REMARK                            x       y       z     vdW  Elec       q    Type
REMARK                         _______ _______ _______ _____ _____    ______ ____
ROOT
ATOM      1  N   UNL     1       5.157   3.212  11.709  0.00  0.00    +0.000 N 
ATOM      2  C   UNL     1       5.858   3.865  12.703  0.00  0.00    +0.000 A 
ATOM      3  C   UNL     1       7.244   4.333  12.377  0.00  0.00    +0.000 A 
ATOM      4  C   UNL     1       7.924   5.019  13.297  0.00  0.00    +0.000 A 
ATOM      5  C   UNL     1       7.334   5.261  14.553  0.00  0.00    +0.000 A 
ATOM      6  N   UNL     1       7.797   5.914  15.593  0.00  0.00    +0.000 NA
ATOM      7  C   UNL     1       6.802   5.821  16.525  0.00  0.00    +0.000 A 
ATOM      8  C   UNL     1       5.711   5.092  16.072  0.00  0.00    +0.000 A 
ATOM      9  N   UNL     1       6.062   4.752  14.770  0.00  0.00    +0.000 N 
ATOM     10  N   UNL     1       5.299   4.063  13.867  0.00  0.00    +0.000 NA
ATOM     11  H   UNL     1       5.572   3.232  10.785  0.00  0.00    +0.000 HD
ENDROOT
BRANCH   8  12
ATOM     12  C   UNL     1       4.463   4.770  16.778  0.00  0.00    +0.000 A 
ATOM     13  C   UNL     1       3.607   5.750  17.279  0.00  0.00    +0.000 A 
ATOM     14  C   UNL     1       2.476   5.392  18.016  0.00  0.00    +0.000 A 
ATOM     15  C   UNL     1       2.172   4.050  18.286  0.00  0.00    +0.000 A 
ATOM     16  C   UNL     1       3.015   3.045  17.786  0.00  0.00    +0.000 A 
ATOM     17  C   UNL     1       4.135   3.422  17.024  0.00  0.00    +0.000 A 
BRANCH  15  18
ATOM     18  O   UNL     1       1.036   3.923  19.041  0.00  0.00    +0.000 OA
ATOM     19  C   UNL     1       1.121   4.106  20.446  0.00  0.00    +0.000 C 
ENDBRANCH  15  18
BRANCH  16  20
ATOM     20  O   UNL     1       2.722   1.739  18.079  0.00  0.00    +0.000 OA
ATOM     21  C   UNL     1       3.651   0.983  18.841  0.00  0.00    +0.000 C 
ENDBRANCH  16  20
ENDBRANCH   8  12
BRANCH   1  22
ATOM     22  C   UNL     1       3.701   3.207  11.695  0.00  0.00    +0.000 C 
BRANCH  22  24
ATOM     23  C   UNL     1       2.896   4.363   9.611  0.00  0.00    +0.000 C 
ATOM     24  C   UNL     1       3.185   3.023  10.270  0.00  0.00    +0.000 C 
ENDBRANCH  22  24
ENDBRANCH   1  22
TORSDOF 5
ENDMDL
MODEL 7
REMARK VINA RESULT:      -7.2      1.275      1.576
REMARK  Name = 
REMARK  8 active torsions:
REMARK  status: ('A' for Active; 'I' for Inactive)
REMARK    1  A    between atoms: C_1  and  C_2
REMARK    2  A    between atoms: C_2  and  C_3
REMARK    3  A    between atoms: C_3  and  N_4
REMARK    4  A    between atoms: C_11  and  C_12
REMARK    5  A    between atoms: C_15  and  O_16
REMARK    6  A    between atoms: O_16  and  C_17
REMARK    7  A    between atoms: C_18  and  O_19
REMARK    8  A    between atoms: O_19  and  C_20
REMARK                            x       y       z     vdW  Elec       q    Type
REMARK                         _______ _______ _______ _____ _____    ______ ____
ROOT
ATOM      1  N   UNL     1       1.844   6.557  20.781  0.00  0.00    +0.000 N 
ATOM      2  C   UNL     1       1.957   5.276  20.282  0.00  0.00    +0.000 A 
ATOM      3  C   UNL     1       1.052   4.228  20.857  0.00  0.00    +0.000 A 
ATOM      4  C   UNL     1       1.096   2.993  20.354  0.00  0.00    +0.000 A 
ATOM      5  C   UNL     1       2.005   2.703  19.319  0.00  0.00    +0.000 A 
ATOM      6  N   UNL     1       2.215   1.582  18.668  0.00  0.00    +0.000 NA
ATOM      7  C   UNL     1       3.212   1.882  17.785  0.00  0.00    +0.000 A 
ATOM      8  C   UNL     1       3.644   3.198  17.891  0.00  0.00    +0.000 A 
ATOM      9  N   UNL     1       2.827   3.730  18.882  0.00  0.00    +0.000 N 
ATOM     10  N   UNL     1       2.820   5.022  19.335  0.00  0.00    +0.000 NA
ATOM     11  H   UNL     1       1.054   6.730  21.391  0.00  0.00    +0.000 HD
ENDROOT
BRANCH   8  12
ATOM     12  C   UNL     1       4.693   3.887  17.126  0.00  0.00    +0.000 A 
ATOM     13  C   UNL     1       4.664   3.994  15.737  0.00  0.00    +0.000 A 
ATOM     14  C   UNL     1       5.727   4.584  15.050  0.00  0.00    +0.000 A 
ATOM     15  C   UNL     1       6.854   5.073  15.726  0.00  0.00    +0.000 A 
ATOM     16  C   UNL     1       6.903   4.982  17.126  0.00  0.00    +0.000 A 
ATOM     17  C   UNL     1       5.812   4.408  17.803  0.00  0.00    +0.000 A 
BRANCH  15  18
ATOM     18  O   UNL     1       7.785   5.590  14.864  0.00  0.00    +0.000 OA
ATOM     19  C   UNL     1       7.690   5.278  13.482  0.00  0.00    +0.000 C 
ENDBRANCH  15  18
BRANCH  16  20
ATOM     20  O   UNL     1       8.021   5.439  17.772  0.00  0.00    +0.000 OA
ATOM     21  C   UNL     1       7.914   6.592  18.595  0.00  0.00    +0.000 C 
ENDBRANCH  16  20
ENDBRANCH   8  12
BRANCH   1  22
ATOM     22  C   UNL     1       2.227   7.712  19.980  0.00  0.00    +0.000 C 
BRANCH  22  24
ATOM     23  C   UNL     1       1.920   8.659  17.670  0.00  0.00    +0.000 C 
ATOM     24  C   UNL     1       2.098   7.392  18.493  0.00  0.00    +0.000 C 
ENDBRANCH  22  24
ENDBRANCH   1  22
TORSDOF 5
ENDMDL
MODEL 8
REMARK VINA RESULT:      -7.1      4.028      7.223
REMARK  Name = 
REMARK  8 active torsions:
REMARK  status: ('A' for Active; 'I' for Inactive)
REMARK    1  A    between atoms: C_1  and  C_2
REMARK    2  A    between atoms: C_2  and  C_3
REMARK    3  A    between atoms: C_3  and  N_4
REMARK    4  A    between atoms: C_11  and  C_12
REMARK    5  A    between atoms: C_15  and  O_16
REMARK    6  A    between atoms: O_16  and  C_17
REMARK    7  A    between atoms: C_18  and  O_19
REMARK    8  A    between atoms: O_19  and  C_20
REMARK                            x       y       z     vdW  Elec       q    Type
REMARK                         _______ _______ _______ _____ _____    ______ ____
ROOT
ATOM      1  N   UNL     1       5.044   3.173  11.496  0.00  0.00    +0.000 N 
ATOM      2  C   UNL     1       5.798   3.800  12.467  0.00  0.00    +0.000 A 
ATOM      3  C   UNL     1       7.174   4.255  12.087  0.00  0.00    +0.000 A 
ATOM      4  C   UNL     1       7.905   4.916  12.986  0.00  0.00    +0.000 A 
ATOM      5  C   UNL     1       7.376   5.145  14.270  0.00  0.00    +0.000 A 
ATOM      6  N   UNL     1       7.895   5.774  15.299  0.00  0.00    +0.000 NA
ATOM      7  C   UNL     1       6.943   5.679  16.274  0.00  0.00    +0.000 A 
ATOM      8  C   UNL     1       5.822   4.972  15.859  0.00  0.00    +0.000 A 
ATOM      9  N   UNL     1       6.108   4.650  14.538  0.00  0.00    +0.000 N 
ATOM     10  N   UNL     1       5.296   3.986  13.659  0.00  0.00    +0.000 NA
ATOM     11  H   UNL     1       5.417   3.203  10.555  0.00  0.00    +0.000 HD
ENDROOT
BRANCH   8  12
ATOM     12  C   UNL     1       4.602   4.655  16.616  0.00  0.00    +0.000 A 
ATOM     13  C   UNL     1       3.980   3.409  16.555  0.00  0.00    +0.000 A 
ATOM     14  C   UNL     1       2.777   3.186  17.227  0.00  0.00    +0.000 A 
ATOM     15  C   UNL     1       2.152   4.199  17.968  0.00  0.00    +0.000 A 
ATOM     16  C   UNL     1       2.762   5.460  18.050  0.00  0.00    +0.000 A 
ATOM     17  C   UNL     1       3.988   5.660  17.388  0.00  0.00    +0.000 A 
BRANCH  15  18
ATOM     18  O   UNL     1       0.974   3.775  18.526  0.00  0.00    +0.000 OA
ATOM     19  C   UNL     1       0.840   2.409  18.889  0.00  0.00    +0.000 C 
ENDBRANCH  15  18
BRANCH  16  20
ATOM     20  O   UNL     1       2.129   6.449  18.754  0.00  0.00    +0.000 OA
ATOM     21  C   UNL     1       2.260   7.794  18.315  0.00  0.00    +0.000 C 
ENDBRANCH  16  20
ENDBRANCH   8  12
BRANCH   1  22
ATOM     22  C   UNL     1       3.588   3.188  11.549  0.00  0.00    +0.000 C 
BRANCH  22  24
ATOM     23  C   UNL     1       2.829   4.476   9.526  0.00  0.00    +0.000 C 
ATOM     24  C   UNL     1       3.006   3.095  10.141  0.00  0.00    +0.000 C 
ENDBRANCH  22  24
ENDBRANCH   1  22
TORSDOF 5
ENDMDL
MODEL 9
REMARK VINA RESULT:      -7.1      3.796      6.285
REMARK  Name = 
REMARK  8 active torsions:
REMARK  status: ('A' for Active; 'I' for Inactive)
REMARK    1  A    between atoms: C_1  and  C_2
REMARK    2  A    between atoms: C_2  and  C_3
REMARK    3  A    between atoms: C_3  and  N_4
REMARK    4  A    between atoms: C_11  and  C_12
REMARK    5  A    between atoms: C_15  and  O_16
REMARK    6  A    between atoms: O_16  and  C_17
REMARK    7  A    between atoms: C_18  and  O_19
REMARK    8  A    between atoms: O_19  and  C_20
REMARK                            x       y       z     vdW  Elec       q    Type
REMARK                         _______ _______ _______ _____ _____    ______ ____
ROOT
ATOM      1  N   UNL     1      -1.435  11.048  17.770  0.00  0.00    +0.000 N 
ATOM      2  C   UNL     1      -0.846  10.867  19.004  0.00  0.00    +0.000 A 
ATOM      3  C   UNL     1      -1.098  11.910  20.050  0.00  0.00    +0.000 A 
ATOM      4  C   UNL     1      -0.590  11.733  21.271  0.00  0.00    +0.000 A 
ATOM      5  C   UNL     1       0.188  10.590  21.535  0.00  0.00    +0.000 A 
ATOM      6  N   UNL     1       0.771  10.201  22.645  0.00  0.00    +0.000 NA
ATOM      7  C   UNL     1       1.389   9.029  22.314  0.00  0.00    +0.000 A 
ATOM      8  C   UNL     1       1.206   8.685  20.981  0.00  0.00    +0.000 A 
ATOM      9  N   UNL     1       0.397   9.703  20.489  0.00  0.00    +0.000 N 
ATOM     10  N   UNL     1      -0.112   9.809  19.223  0.00  0.00    +0.000 NA
ATOM     11  H   UNL     1      -2.120  11.792  17.709  0.00  0.00    +0.000 HD
ENDROOT
BRANCH   8  12
ATOM     12  C   UNL     1       1.716   7.513  20.255  0.00  0.00    +0.000 A 
ATOM     13  C   UNL     1       2.410   7.617  19.051  0.00  0.00    +0.000 A 
ATOM     14  C   UNL     1       2.799   6.469  18.358  0.00  0.00    +0.000 A 
ATOM     15  C   UNL     1       2.498   5.186  18.837  0.00  0.00    +0.000 A 
ATOM     16  C   UNL     1       1.805   5.056  20.051  0.00  0.00    +0.000 A 
ATOM     17  C   UNL     1       1.443   6.222  20.749  0.00  0.00    +0.000 A 
BRANCH  15  18
ATOM     18  O   UNL     1       2.950   4.204  17.995  0.00  0.00    +0.000 OA
ATOM     19  C   UNL     1       4.307   3.795  18.084  0.00  0.00    +0.000 C 
ENDBRANCH  15  18
BRANCH  16  20
ATOM     20  O   UNL     1       1.493   3.798  20.494  0.00  0.00    +0.000 OA
ATOM     21  C   UNL     1       2.204   3.268  21.603  0.00  0.00    +0.000 C 
ENDBRANCH  16  20
ENDBRANCH   8  12
BRANCH   1  22
ATOM     22  C   UNL     1      -1.726   9.915  16.902  0.00  0.00    +0.000 C 
BRANCH  22  24
ATOM     23  C   UNL     1      -3.036  10.212  14.776  0.00  0.00    +0.000 C 
ATOM     24  C   UNL     1      -3.116  10.061  16.287  0.00  0.00    +0.000 C 
ENDBRANCH  22  24
ENDBRANCH   1  22
TORSDOF 5
ENDMDL
