MODEL 1
REMARK VINA RESULT:      -8.6      0.000      0.000
REMARK  Name = 
REMARK  2 active torsions:
REMARK  status: ('A' for Active; 'I' for Inactive)
REMARK    1  A    between atoms: C_1  and  C_2
REMARK    2  A    between atoms: C_4  and  C_5
REMARK                            x       y       z     vdW  Elec       q    Type
REMARK                         _______ _______ _______ _____ _____    ______ ____
ROOT
ATOM      1  C   UNL     1       7.459   6.838  17.463  0.00  0.00    +0.000 C 
ATOM      2  C   UNL     1       6.445   5.809  17.048  0.00  0.00    +0.000 A 
ATOM      3  C   UNL     1       5.458   5.433  17.962  0.00  0.00    +0.000 A 
ATOM      4  C   UNL     1       4.510   4.477  17.609  0.00  0.00    +0.000 A 
ATOM      5  N   UNL     1       4.512   3.902  16.384  0.00  0.00    +0.000 NA
ATOM      6  C   UNL     1       5.451   4.254  15.493  0.00  0.00    +0.000 A 
ATOM      7  C   UNL     1       5.430   3.647  14.244  0.00  0.00    +0.000 A 
ATOM      8  C   UNL     1       6.375   3.948  13.262  0.00  0.00    +0.000 A 
ATOM      9  C   UNL     1       7.369   4.878  13.528  0.00  0.00    +0.000 A 
ATOM     10  C   UNL     1       7.411   5.504  14.772  0.00  0.00    +0.000 A 
ATOM     11  C   UNL     1       6.455   5.207  15.771  0.00  0.00    +0.000 A 
ENDROOT
BRANCH   4  12
ATOM     12  C   UNL     1       3.438   4.035  18.603  0.00  0.00    +0.000 C 
ATOM     13  C   UNL     1       3.678   2.563  19.039  0.00  0.00    +0.000 C 
ATOM     14  C   UNL     1       2.585   2.097  20.015  0.00  0.00    +0.000 C 
ATOM     15  C   UNL     1       2.610   2.987  21.265  0.00  0.00    +0.000 C 
ATOM     16  C   UNL     1       2.347   4.449  20.874  0.00  0.00    +0.000 C 
ATOM     17  C   UNL     1       0.973   4.558  20.194  0.00  0.00    +0.000 C 
ATOM     18  C   UNL     1       0.940   3.676  18.938  0.00  0.00    +0.000 C 
ATOM     19  C   UNL     1       1.212   2.215  19.330  0.00  0.00    +0.000 C 
ATOM     20  C   UNL     1       2.028   4.147  17.959  0.00  0.00    +0.000 C 
ATOM     21  C   UNL     1       3.436   4.912  19.891  0.00  0.00    +0.000 C 
ENDBRANCH   4  12
TORSDOF 1
ENDMDL
MODEL 2
REMARK VINA RESULT:      -8.6      0.114      1.648
REMARK  Name = 
REMARK  2 active torsions:
REMARK  status: ('A' for Active; 'I' for Inactive)
REMARK    1  A    between atoms: C_1  and  C_2
REMARK    2  A    between atoms: C_4  and  C_5
REMARK                            x       y       z     vdW  Elec       q    Type
REMARK                         _______ _______ _______ _____ _____    ______ ____
ROOT
ATOM      1  C   UNL     1       7.470   6.789  17.638  0.00  0.00    +0.000 C 
ATOM      2  C   UNL     1       6.443   5.787  17.189  0.00  0.00    +0.000 A 
ATOM      3  C   UNL     1       5.438   5.410  18.083  0.00  0.00    +0.000 A 
ATOM      4  C   UNL     1       4.477   4.479  17.699  0.00  0.00    +0.000 A 
ATOM      5  N   UNL     1       4.484   3.929  16.463  0.00  0.00    +0.000 NA
ATOM      6  C   UNL     1       5.442   4.281  15.591  0.00  0.00    +0.000 A 
ATOM      7  C   UNL     1       5.425   3.700  14.330  0.00  0.00    +0.000 A 
ATOM      8  C   UNL     1       6.389   4.003  13.366  0.00  0.00    +0.000 A 
ATOM      9  C   UNL     1       7.396   4.908  13.663  0.00  0.00    +0.000 A 
ATOM     10  C   UNL     1       7.433   5.509  14.920  0.00  0.00    +0.000 A 
ATOM     11  C   UNL     1       6.459   5.210  15.901  0.00  0.00    +0.000 A 
ENDROOT
BRANCH   4  12
ATOM     12  C   UNL     1       3.384   4.037  18.671  0.00  0.00    +0.000 C 
ATOM     13  C   UNL     1       3.397   4.931  19.942  0.00  0.00    +0.000 C 
ATOM     14  C   UNL     1       2.322   4.474  20.941  0.00  0.00    +0.000 C 
ATOM     15  C   UNL     1       0.940   4.582  20.282  0.00  0.00    +0.000 C 
ATOM     16  C   UNL     1       0.882   3.687  19.035  0.00  0.00    +0.000 C 
ATOM     17  C   UNL     1       1.145   2.228  19.439  0.00  0.00    +0.000 C 
ATOM     18  C   UNL     1       2.529   2.108  20.093  0.00  0.00    +0.000 C 
ATOM     19  C   UNL     1       2.588   3.011  21.336  0.00  0.00    +0.000 C 
ATOM     20  C   UNL     1       3.604   2.557  19.091  0.00  0.00    +0.000 C 
ATOM     21  C   UNL     1       1.963   4.138  18.039  0.00  0.00    +0.000 C 
ENDBRANCH   4  12
TORSDOF 1
ENDMDL
MODEL 3
REMARK VINA RESULT:      -8.6      0.254      1.714
REMARK  Name = 
REMARK  2 active torsions:
REMARK  status: ('A' for Active; 'I' for Inactive)
REMARK    1  A    between atoms: C_1  and  C_2
REMARK    2  A    between atoms: C_4  and  C_5
REMARK                            x       y       z     vdW  Elec       q    Type
REMARK                         _______ _______ _______ _____ _____    ______ ____
ROOT
ATOM      1  C   UNL     1       7.481   6.916  17.263  0.00  0.00    +0.000 C 
ATOM      2  C   UNL     1       6.498   5.858  16.845  0.00  0.00    +0.000 A 
ATOM      3  C   UNL     1       5.513   5.462  17.752  0.00  0.00    +0.000 A 
ATOM      4  C   UNL     1       4.593   4.479  17.396  0.00  0.00    +0.000 A 
ATOM      5  N   UNL     1       4.621   3.898  16.175  0.00  0.00    +0.000 NA
ATOM      6  C   UNL     1       5.560   4.268  15.291  0.00  0.00    +0.000 A 
ATOM      7  C   UNL     1       5.565   3.653  14.046  0.00  0.00    +0.000 A 
ATOM      8  C   UNL     1       6.512   3.972  13.070  0.00  0.00    +0.000 A 
ATOM      9  C   UNL     1       7.479   4.929  13.340  0.00  0.00    +0.000 A 
ATOM     10  C   UNL     1       7.493   5.564  14.580  0.00  0.00    +0.000 A 
ATOM     11  C   UNL     1       6.536   5.248  15.572  0.00  0.00    +0.000 A 
ENDROOT
BRANCH   4  12
ATOM     12  C   UNL     1       3.523   4.016  18.383  0.00  0.00    +0.000 C 
ATOM     13  C   UNL     1       2.104   4.269  17.802  0.00  0.00    +0.000 C 
ATOM     14  C   UNL     1       1.019   3.836  18.802  0.00  0.00    +0.000 C 
ATOM     15  C   UNL     1       1.168   2.336  19.092  0.00  0.00    +0.000 C 
ATOM     16  C   UNL     1       2.552   2.054  19.696  0.00  0.00    +0.000 C 
ATOM     17  C   UNL     1       2.712   2.848  21.002  0.00  0.00    +0.000 C 
ATOM     18  C   UNL     1       2.572   4.351  20.721  0.00  0.00    +0.000 C 
ATOM     19  C   UNL     1       1.190   4.630  20.108  0.00  0.00    +0.000 C 
ATOM     20  C   UNL     1       3.662   4.784  19.727  0.00  0.00    +0.000 C 
ATOM     21  C   UNL     1       3.637   2.495  18.700  0.00  0.00    +0.000 C 
ENDBRANCH   4  12
TORSDOF 1
ENDMDL
MODEL 4
REMARK VINA RESULT:      -8.4      3.762      6.485
REMARK  Name = 
REMARK  2 active torsions:
REMARK  status: ('A' for Active; 'I' for Inactive)
REMARK    1  A    between atoms: C_1  and  C_2
REMARK    2  A    between atoms: C_4  and  C_5
REMARK                            x       y       z     vdW  Elec       q    Type
REMARK                         _______ _______ _______ _____ _____    ______ ____
ROOT
ATOM      1  C   UNL     1       1.981  10.066  17.824  0.00  0.00    +0.000 C 
ATOM      2  C   UNL     1       1.727   9.049  18.901  0.00  0.00    +0.000 A 
ATOM      3  C   UNL     1       2.114   7.725  18.679  0.00  0.00    +0.000 A 
ATOM      4  C   UNL     1       1.886   6.759  19.655  0.00  0.00    +0.000 A 
ATOM      5  N   UNL     1       1.301   7.074  20.833  0.00  0.00    +0.000 NA
ATOM      6  C   UNL     1       0.925   8.341  21.064  0.00  0.00    +0.000 A 
ATOM      7  C   UNL     1       0.326   8.635  22.282  0.00  0.00    +0.000 A 
ATOM      8  C   UNL     1      -0.103   9.924  22.600  0.00  0.00    +0.000 A 
ATOM      9  C   UNL     1       0.067  10.950  21.683  0.00  0.00    +0.000 A 
ATOM     10  C   UNL     1       0.670  10.683  20.455  0.00  0.00    +0.000 A 
ATOM     11  C   UNL     1       1.110   9.380  20.127  0.00  0.00    +0.000 A 
ENDROOT
BRANCH   4  12
ATOM     12  C   UNL     1       2.281   5.302  19.420  0.00  0.00    +0.000 C 
ATOM     13  C   UNL     1       1.950   4.880  17.962  0.00  0.00    +0.000 C 
ATOM     14  C   UNL     1       2.313   3.405  17.724  0.00  0.00    +0.000 C 
ATOM     15  C   UNL     1       3.817   3.210  17.959  0.00  0.00    +0.000 C 
ATOM     16  C   UNL     1       4.176   3.592  19.404  0.00  0.00    +0.000 C 
ATOM     17  C   UNL     1       3.385   2.706  20.379  0.00  0.00    +0.000 C 
ATOM     18  C   UNL     1       1.878   2.899  20.156  0.00  0.00    +0.000 C 
ATOM     19  C   UNL     1       1.522   2.525  18.708  0.00  0.00    +0.000 C 
ATOM     20  C   UNL     1       1.514   4.373  20.402  0.00  0.00    +0.000 C 
ATOM     21  C   UNL     1       3.804   5.065  19.643  0.00  0.00    +0.000 C 
ENDBRANCH   4  12
TORSDOF 1
ENDMDL
MODEL 5
REMARK VINA RESULT:      -8.3      3.745      6.538
REMARK  Name = 
REMARK  2 active torsions:
REMARK  status: ('A' for Active; 'I' for Inactive)
REMARK    1  A    between atoms: C_1  and  C_2
REMARK    2  A    between atoms: C_4  and  C_5
REMARK                            x       y       z     vdW  Elec       q    Type
REMARK                         _______ _______ _______ _____ _____    ______ ____
ROOT
ATOM      1  C   UNL     1       2.004  10.048  17.816  0.00  0.00    +0.000 C 
ATOM      2  C   UNL     1       1.744   9.028  18.888  0.00  0.00    +0.000 A 
ATOM      3  C   UNL     1       2.120   7.702  18.658  0.00  0.00    +0.000 A 
ATOM      4  C   UNL     1       1.886   6.733  19.629  0.00  0.00    +0.000 A 
ATOM      5  N   UNL     1       1.306   7.046  20.811  0.00  0.00    +0.000 NA
ATOM      6  C   UNL     1       0.941   8.315  21.049  0.00  0.00    +0.000 A 
ATOM      7  C   UNL     1       0.347   8.607  22.270  0.00  0.00    +0.000 A 
ATOM      8  C   UNL     1      -0.071   9.899  22.595  0.00  0.00    +0.000 A 
ATOM      9  C   UNL     1       0.106  10.928  21.683  0.00  0.00    +0.000 A 
ATOM     10  C   UNL     1       0.703  10.662  20.453  0.00  0.00    +0.000 A 
ATOM     11  C   UNL     1       1.133   9.357  20.117  0.00  0.00    +0.000 A 
ENDROOT
BRANCH   4  12
ATOM     12  C   UNL     1       2.269   5.274  19.386  0.00  0.00    +0.000 C 
ATOM     13  C   UNL     1       1.486   4.341  20.352  0.00  0.00    +0.000 C 
ATOM     14  C   UNL     1       1.888   2.873  20.138  0.00  0.00    +0.000 C 
ATOM     15  C   UNL     1       1.563   2.464  18.694  0.00  0.00    +0.000 C 
ATOM     16  C   UNL     1       2.344   3.350  17.711  0.00  0.00    +0.000 C 
ATOM     17  C   UNL     1       3.851   3.189  17.963  0.00  0.00    +0.000 C 
ATOM     18  C   UNL     1       4.188   3.602  19.402  0.00  0.00    +0.000 C 
ATOM     19  C   UNL     1       3.399   2.721  20.385  0.00  0.00    +0.000 C 
ATOM     20  C   UNL     1       3.793   5.073  19.614  0.00  0.00    +0.000 C 
ATOM     21  C   UNL     1       1.948   4.819  17.931  0.00  0.00    +0.000 C 
ENDBRANCH   4  12
TORSDOF 1
ENDMDL
MODEL 6
REMARK VINA RESULT:      -8.3      3.766      6.435
REMARK  Name = 
REMARK  2 active torsions:
REMARK  status: ('A' for Active; 'I' for Inactive)
REMARK    1  A    between atoms: C_1  and  C_2
REMARK    2  A    between atoms: C_4  and  C_5
REMARK                            x       y       z     vdW  Elec       q    Type
REMARK                         _______ _______ _______ _____ _____    ______ ____
ROOT
ATOM      1  C   UNL     1       1.979  10.084  17.801  0.00  0.00    +0.000 C 
ATOM      2  C   UNL     1       1.736   9.065  18.878  0.00  0.00    +0.000 A 
ATOM      3  C   UNL     1       2.130   7.743  18.654  0.00  0.00    +0.000 A 
ATOM      4  C   UNL     1       1.912   6.776  19.630  0.00  0.00    +0.000 A 
ATOM      5  N   UNL     1       1.330   7.086  20.811  0.00  0.00    +0.000 NA
ATOM      6  C   UNL     1       0.947   8.350  21.044  0.00  0.00    +0.000 A 
ATOM      7  C   UNL     1       0.351   8.640  22.265  0.00  0.00    +0.000 A 
ATOM      8  C   UNL     1      -0.085   9.927  22.585  0.00  0.00    +0.000 A 
ATOM      9  C   UNL     1       0.076  10.954  21.668  0.00  0.00    +0.000 A 
ATOM     10  C   UNL     1       0.675  10.692  20.438  0.00  0.00    +0.000 A 
ATOM     11  C   UNL     1       1.122   9.391  20.107  0.00  0.00    +0.000 A 
ENDROOT
BRANCH   4  12
ATOM     12  C   UNL     1       2.314   5.321  19.393  0.00  0.00    +0.000 C 
ATOM     13  C   UNL     1       3.843   5.140  19.607  0.00  0.00    +0.000 C 
ATOM     14  C   UNL     1       4.264   3.687  19.338  0.00  0.00    +0.000 C 
ATOM     15  C   UNL     1       3.522   2.757  20.309  0.00  0.00    +0.000 C 
ATOM     16  C   UNL     1       2.005   2.889  20.105  0.00  0.00    +0.000 C 
ATOM     17  C   UNL     1       1.648   2.511  18.658  0.00  0.00    +0.000 C 
ATOM     18  C   UNL     1       2.380   3.440  17.679  0.00  0.00    +0.000 C 
ATOM     19  C   UNL     1       3.898   3.313  17.891  0.00  0.00    +0.000 C 
ATOM     20  C   UNL     1       1.953   4.893  17.943  0.00  0.00    +0.000 C 
ATOM     21  C   UNL     1       1.585   4.346  20.364  0.00  0.00    +0.000 C 
ENDBRANCH   4  12
TORSDOF 1
ENDMDL
MODEL 7
REMARK VINA RESULT:      -7.9      3.646      5.898
REMARK  Name = 
REMARK  2 active torsions:
REMARK  status: ('A' for Active; 'I' for Inactive)
REMARK    1  A    between atoms: C_1  and  C_2
REMARK    2  A    between atoms: C_4  and  C_5
REMARK                            x       y       z     vdW  Elec       q    Type
REMARK                         _______ _______ _______ _____ _____    ______ ____
ROOT
ATOM      1  C   UNL     1       0.190   8.671  22.304  0.00  0.00    +0.000 C 
ATOM      2  C   UNL     1       0.897   8.299  21.031  0.00  0.00    +0.000 A 
ATOM      3  C   UNL     1       1.260   6.965  20.830  0.00  0.00    +0.000 A 
ATOM      4  C   UNL     1       1.922   6.591  19.664  0.00  0.00    +0.000 A 
ATOM      5  N   UNL     1       2.218   7.494  18.702  0.00  0.00    +0.000 NA
ATOM      6  C   UNL     1       1.875   8.779  18.878  0.00  0.00    +0.000 A 
ATOM      7  C   UNL     1       2.192   9.685  17.874  0.00  0.00    +0.000 A 
ATOM      8  C   UNL     1       1.879  11.042  17.980  0.00  0.00    +0.000 A 
ATOM      9  C   UNL     1       1.233  11.511  19.113  0.00  0.00    +0.000 A 
ATOM     10  C   UNL     1       0.899  10.622  20.133  0.00  0.00    +0.000 A 
ATOM     11  C   UNL     1       1.210   9.246  20.032  0.00  0.00    +0.000 A 
ENDROOT
BRANCH   4  12
ATOM     12  C   UNL     1       2.349   5.141  19.438  0.00  0.00    +0.000 C 
ATOM     13  C   UNL     1       1.835   4.635  18.062  0.00  0.00    +0.000 C 
ATOM     14  C   UNL     1       2.231   3.166  17.838  0.00  0.00    +0.000 C 
ATOM     15  C   UNL     1       3.761   3.044  17.864  0.00  0.00    +0.000 C 
ATOM     16  C   UNL     1       4.301   3.511  19.224  0.00  0.00    +0.000 C 
ATOM     17  C   UNL     1       3.699   2.642  20.340  0.00  0.00    +0.000 C 
ATOM     18  C   UNL     1       2.168   2.763  20.327  0.00  0.00    +0.000 C 
ATOM     19  C   UNL     1       1.630   2.304  18.962  0.00  0.00    +0.000 C 
ATOM     20  C   UNL     1       1.773   4.230  20.558  0.00  0.00    +0.000 C 
ATOM     21  C   UNL     1       3.898   4.977  19.452  0.00  0.00    +0.000 C 
ENDBRANCH   4  12
TORSDOF 1
ENDMDL
MODEL 8
REMARK VINA RESULT:      -7.9      3.759      6.031
REMARK  Name = 
REMARK  2 active torsions:
REMARK  status: ('A' for Active; 'I' for Inactive)
REMARK    1  A    between atoms: C_1  and  C_2
REMARK    2  A    between atoms: C_4  and  C_5
REMARK                            x       y       z     vdW  Elec       q    Type
REMARK                         _______ _______ _______ _____ _____    ______ ____
ROOT
ATOM      1  C   UNL     1       0.365   8.880  22.432  0.00  0.00    +0.000 C 
ATOM      2  C   UNL     1       0.971   8.486  21.114  0.00  0.00    +0.000 A 
ATOM      3  C   UNL     1       1.270   7.141  20.888  0.00  0.00    +0.000 A 
ATOM      4  C   UNL     1       1.839   6.746  19.681  0.00  0.00    +0.000 A 
ATOM      5  N   UNL     1       2.103   7.642  18.701  0.00  0.00    +0.000 NA
ATOM      6  C   UNL     1       1.820   8.938  18.901  0.00  0.00    +0.000 A 
ATOM      7  C   UNL     1       2.102   9.835  17.879  0.00  0.00    +0.000 A 
ATOM      8  C   UNL     1       1.848  11.202  18.006  0.00  0.00    +0.000 A 
ATOM      9  C   UNL     1       1.297  11.690  19.181  0.00  0.00    +0.000 A 
ATOM     10  C   UNL     1       0.999  10.811  20.220  0.00  0.00    +0.000 A 
ATOM     11  C   UNL     1       1.252   9.425  20.098  0.00  0.00    +0.000 A 
ENDROOT
BRANCH   4  12
ATOM     12  C   UNL     1       2.196   5.283  19.425  0.00  0.00    +0.000 C 
ATOM     13  C   UNL     1       1.391   4.355  20.377  0.00  0.00    +0.000 C 
ATOM     14  C   UNL     1       1.767   2.882  20.151  0.00  0.00    +0.000 C 
ATOM     15  C   UNL     1       1.442   2.494  18.702  0.00  0.00    +0.000 C 
ATOM     16  C   UNL     1       2.244   3.374  17.731  0.00  0.00    +0.000 C 
ATOM     17  C   UNL     1       3.746   3.182  17.989  0.00  0.00    +0.000 C 
ATOM     18  C   UNL     1       4.083   3.575  19.434  0.00  0.00    +0.000 C 
ATOM     19  C   UNL     1       3.273   2.700  20.405  0.00  0.00    +0.000 C 
ATOM     20  C   UNL     1       3.715   5.051  19.658  0.00  0.00    +0.000 C 
ATOM     21  C   UNL     1       1.874   4.848  17.964  0.00  0.00    +0.000 C 
ENDBRANCH   4  12
TORSDOF 1
ENDMDL
MODEL 9
REMARK VINA RESULT:      -7.9      3.742      5.937
REMARK  Name = 
REMARK  2 active torsions:
REMARK  status: ('A' for Active; 'I' for Inactive)
REMARK    1  A    between atoms: C_1  and  C_2
REMARK    2  A    between atoms: C_4  and  C_5
REMARK                            x       y       z     vdW  Elec       q    Type
REMARK                         _______ _______ _______ _____ _____    ______ ____
ROOT
ATOM      1  C   UNL     1       0.098   8.807  22.330  0.00  0.00    +0.000 C 
ATOM      2  C   UNL     1       0.804   8.438  21.056  0.00  0.00    +0.000 A 
ATOM      3  C   UNL     1       1.145   7.101  20.840  0.00  0.00    +0.000 A 
ATOM      4  C   UNL     1       1.806   6.729  19.673  0.00  0.00    +0.000 A 
ATOM      5  N   UNL     1       2.122   7.639  18.723  0.00  0.00    +0.000 NA
ATOM      6  C   UNL     1       1.800   8.928  18.913  0.00  0.00    +0.000 A 
ATOM      7  C   UNL     1       2.137   9.840  17.921  0.00  0.00    +0.000 A 
ATOM      8  C   UNL     1       1.847  11.200  18.042  0.00  0.00    +0.000 A 
ATOM      9  C   UNL     1       1.204  11.667  19.178  0.00  0.00    +0.000 A 
ATOM     10  C   UNL     1       0.851  10.772  20.186  0.00  0.00    +0.000 A 
ATOM     11  C   UNL     1       1.138   9.392  20.070  0.00  0.00    +0.000 A 
ENDROOT
BRANCH   4  12
ATOM     12  C   UNL     1       2.208   5.275  19.431  0.00  0.00    +0.000 C 
ATOM     13  C   UNL     1       3.724   5.079  19.712  0.00  0.00    +0.000 C 
ATOM     14  C   UNL     1       4.147   3.627  19.440  0.00  0.00    +0.000 C 
ATOM     15  C   UNL     1       3.354   2.688  20.360  0.00  0.00    +0.000 C 
ATOM     16  C   UNL     1       1.849   2.836  20.089  0.00  0.00    +0.000 C 
ATOM     17  C   UNL     1       1.556   2.483  18.622  0.00  0.00    +0.000 C 
ATOM     18  C   UNL     1       2.340   3.421  17.693  0.00  0.00    +0.000 C 
ATOM     19  C   UNL     1       3.845   3.279  17.972  0.00  0.00    +0.000 C 
ATOM     20  C   UNL     1       1.911   4.873  17.960  0.00  0.00    +0.000 C 
ATOM     21  C   UNL     1       1.428   4.291  20.353  0.00  0.00    +0.000 C 
ENDBRANCH   4  12
TORSDOF 1
ENDMDL
