MODEL 1
REMARK VINA RESULT:      -6.7      0.000      0.000
REMARK  Name = 
REMARK  6 active torsions:
REMARK  status: ('A' for Active; 'I' for Inactive)
REMARK    1  A    between atoms: C_1  and  C_2
REMARK    2  A    between atoms: N_5  and  C_6
REMARK    3  A    between atoms: C_6  and  C_7
REMARK    4  A    between atoms: C_7  and  C_8
REMARK    5  A    between atoms: C_7  and  O_9
REMARK    6  A    between atoms: O_9  and  C_10
REMARK                            x       y       z     vdW  Elec       q    Type
REMARK                         _______ _______ _______ _____ _____    ______ ____
ROOT
ATOM      1  C   UNL     1       3.675   5.908  17.425  0.00  0.00    +0.000 C 
ATOM      2  C   UNL     1       4.884   6.407  16.622  0.00  0.00    +0.000 C 
ENDROOT
BRANCH   1   3
ATOM      3  C   UNL     1       3.871   4.423  17.795  0.00  0.00    +0.000 C 
BRANCH   3   8
ATOM      4  C   UNL     1       1.461   2.627  21.514  0.00  0.00    +0.000 C 
ATOM      5  C   UNL     1       1.470   2.660  19.982  0.00  0.00    +0.000 C 
ATOM      6  C   UNL     1       2.772   2.043  19.442  0.00  0.00    +0.000 C 
ATOM      7  C   UNL     1       2.805   2.155  17.910  0.00  0.00    +0.000 C 
ATOM      8  N   UNL     1       2.707   3.561  17.454  0.00  0.00    +0.000 NA
ATOM      9  C   UNL     1       1.432   4.149  17.930  0.00  0.00    +0.000 C 
ATOM     10  C   UNL     1       1.310   4.104  19.469  0.00  0.00    +0.000 C 
ENDBRANCH   3   8
ENDBRANCH   1   3
BRANCH   1  11
ATOM     11  O   UNL     1       3.529   6.658  18.581  0.00  0.00    +0.000 OA
BRANCH  11  12
ATOM     12  C   UNL     1       2.585   7.603  18.843  0.00  0.00    +0.000 A 
ATOM     13  C   UNL     1       1.966   7.748  20.105  0.00  0.00    +0.000 A 
ATOM     14  C   UNL     1       1.031   8.768  20.318  0.00  0.00    +0.000 A 
ATOM     15  C   UNL     1       0.695   9.642  19.281  0.00  0.00    +0.000 A 
ATOM     16 CL   UNL     1      -0.468  10.926  19.552  0.00  0.00    +0.000 Cl
ATOM     17  C   UNL     1       1.294   9.494  18.025  0.00  0.00    +0.000 A 
ATOM     18  C   UNL     1       2.234   8.483  17.812  0.00  0.00    +0.000 A 
ENDBRANCH  11  12
ENDBRANCH   1  11
TORSDOF 4
ENDMDL
MODEL 2
REMARK VINA RESULT:      -6.6      2.134      4.583
REMARK  Name = 
REMARK  6 active torsions:
REMARK  status: ('A' for Active; 'I' for Inactive)
REMARK    1  A    between atoms: C_1  and  C_2
REMARK    2  A    between atoms: N_5  and  C_6
REMARK    3  A    between atoms: C_6  and  C_7
REMARK    4  A    between atoms: C_7  and  C_8
REMARK    5  A    between atoms: C_7  and  O_9
REMARK    6  A    between atoms: O_9  and  C_10
REMARK                            x       y       z     vdW  Elec       q    Type
REMARK                         _______ _______ _______ _____ _____    ______ ____
ROOT
ATOM      1  C   UNL     1       3.699   4.556  18.837  0.00  0.00    +0.000 C 
ATOM      2  C   UNL     1       3.718   3.243  18.041  0.00  0.00    +0.000 C 
ENDROOT
BRANCH   1   3
ATOM      3  C   UNL     1       5.142   5.056  19.052  0.00  0.00    +0.000 C 
BRANCH   3   8
ATOM      4  C   UNL     1       8.016   8.705  17.916  0.00  0.00    +0.000 C 
ATOM      5  C   UNL     1       7.658   7.274  17.501  0.00  0.00    +0.000 C 
ATOM      6  C   UNL     1       6.183   7.196  17.071  0.00  0.00    +0.000 C 
ATOM      7  C   UNL     1       5.814   5.742  16.734  0.00  0.00    +0.000 C 
ATOM      8  N   UNL     1       6.035   4.834  17.884  0.00  0.00    +0.000 NA
ATOM      9  C   UNL     1       7.466   4.867  18.273  0.00  0.00    +0.000 C 
ATOM     10  C   UNL     1       7.932   6.289  18.654  0.00  0.00    +0.000 C 
ENDBRANCH   3   8
ENDBRANCH   1   3
BRANCH   1  11
ATOM     11  O   UNL     1       2.973   5.516  18.152  0.00  0.00    +0.000 OA
BRANCH  11  12
ATOM     12  C   UNL     1       2.469   6.681  18.643  0.00  0.00    +0.000 A 
ATOM     13  C   UNL     1       2.253   7.827  17.844  0.00  0.00    +0.000 A 
ATOM     14  C   UNL     1       1.694   8.982  18.405  0.00  0.00    +0.000 A 
ATOM     15  C   UNL     1       1.356   9.013  19.760  0.00  0.00    +0.000 A 
ATOM     16 CL   UNL     1       0.644  10.455  20.459  0.00  0.00    +0.000 Cl
ATOM     17  C   UNL     1       1.580   7.886  20.559  0.00  0.00    +0.000 A 
ATOM     18  C   UNL     1       2.130   6.729  20.000  0.00  0.00    +0.000 A 
ENDBRANCH  11  12
ENDBRANCH   1  11
TORSDOF 4
ENDMDL
MODEL 3
REMARK VINA RESULT:      -6.5      0.301      1.177
REMARK  Name = 
REMARK  6 active torsions:
REMARK  status: ('A' for Active; 'I' for Inactive)
REMARK    1  A    between atoms: C_1  and  C_2
REMARK    2  A    between atoms: N_5  and  C_6
REMARK    3  A    between atoms: C_6  and  C_7
REMARK    4  A    between atoms: C_7  and  C_8
REMARK    5  A    between atoms: C_7  and  O_9
REMARK    6  A    between atoms: O_9  and  C_10
REMARK                            x       y       z     vdW  Elec       q    Type
REMARK                         _______ _______ _______ _____ _____    ______ ____
ROOT
ATOM      1  C   UNL     1       3.640   6.117  17.678  0.00  0.00    +0.000 C 
ATOM      2  C   UNL     1       4.894   6.744  17.053  0.00  0.00    +0.000 C 
ENDROOT
BRANCH   1   3
ATOM      3  C   UNL     1       3.914   4.640  18.027  0.00  0.00    +0.000 C 
BRANCH   3   8
ATOM      4  C   UNL     1       1.429   2.562  21.544  0.00  0.00    +0.000 C 
ATOM      5  C   UNL     1       1.523   2.645  20.017  0.00  0.00    +0.000 C 
ATOM      6  C   UNL     1       2.894   2.137  19.538  0.00  0.00    +0.000 C 
ATOM      7  C   UNL     1       3.007   2.301  18.014  0.00  0.00    +0.000 C 
ATOM      8  N   UNL     1       2.836   3.711  17.593  0.00  0.00    +0.000 NA
ATOM      9  C   UNL     1       1.497   4.193  18.009  0.00  0.00    +0.000 C 
ATOM     10  C   UNL     1       1.291   4.091  19.536  0.00  0.00    +0.000 C 
ENDBRANCH   3   8
ENDBRANCH   1   3
BRANCH   1  11
ATOM     11  O   UNL     1       3.285   6.806  18.826  0.00  0.00    +0.000 OA
BRANCH  11  12
ATOM     12  C   UNL     1       2.370   7.806  18.944  0.00  0.00    +0.000 A 
ATOM     13  C   UNL     1       1.937   8.591  17.850  0.00  0.00    +0.000 A 
ATOM     14  C   UNL     1       0.962   9.579  18.034  0.00  0.00    +0.000 A 
ATOM     15  C   UNL     1       0.418   9.803  19.301  0.00  0.00    +0.000 A 
ATOM     16 CL   UNL     1      -0.812  11.033  19.527  0.00  0.00    +0.000 Cl
ATOM     17  C   UNL     1       0.852   9.039  20.390  0.00  0.00    +0.000 A 
ATOM     18  C   UNL     1       1.819   8.047  20.208  0.00  0.00    +0.000 A 
ENDBRANCH  11  12
ENDBRANCH   1  11
TORSDOF 4
ENDMDL
MODEL 4
REMARK VINA RESULT:      -6.4      2.260      4.525
REMARK  Name = 
REMARK  6 active torsions:
REMARK  status: ('A' for Active; 'I' for Inactive)
REMARK    1  A    between atoms: C_1  and  C_2
REMARK    2  A    between atoms: N_5  and  C_6
REMARK    3  A    between atoms: C_6  and  C_7
REMARK    4  A    between atoms: C_7  and  C_8
REMARK    5  A    between atoms: C_7  and  O_9
REMARK    6  A    between atoms: O_9  and  C_10
REMARK                            x       y       z     vdW  Elec       q    Type
REMARK                         _______ _______ _______ _____ _____    ______ ____
ROOT
ATOM      1  C   UNL     1       3.952   4.161  19.511  0.00  0.00    +0.000 C 
ATOM      2  C   UNL     1       4.231   2.873  18.725  0.00  0.00    +0.000 C 
ENDROOT
BRANCH   1   3
ATOM      3  C   UNL     1       5.093   5.171  19.281  0.00  0.00    +0.000 C 
BRANCH   3   8
ATOM      4  C   UNL     1       7.952   8.700  17.784  0.00  0.00    +0.000 C 
ATOM      5  C   UNL     1       7.571   7.246  17.488  0.00  0.00    +0.000 C 
ATOM      6  C   UNL     1       6.082   7.149  17.113  0.00  0.00    +0.000 C 
ATOM      7  C   UNL     1       5.693   5.678  16.898  0.00  0.00    +0.000 C 
ATOM      8  N   UNL     1       5.946   4.855  18.104  0.00  0.00    +0.000 NA
ATOM      9  C   UNL     1       7.389   4.905  18.443  0.00  0.00    +0.000 C 
ATOM     10  C   UNL     1       7.876   6.347  18.702  0.00  0.00    +0.000 C 
ENDBRANCH   3   8
ENDBRANCH   1   3
BRANCH   1  11
ATOM     11  O   UNL     1       2.750   4.717  19.102  0.00  0.00    +0.000 OA
BRANCH  11  12
ATOM     12  C   UNL     1       2.377   6.024  19.167  0.00  0.00    +0.000 A 
ATOM     13  C   UNL     1       1.966   6.652  20.365  0.00  0.00    +0.000 A 
ATOM     14  C   UNL     1       1.632   8.012  20.369  0.00  0.00    +0.000 A 
ATOM     15  C   UNL     1       1.693   8.755  19.187  0.00  0.00    +0.000 A 
ATOM     16 CL   UNL     1       1.286  10.461  19.196  0.00  0.00    +0.000 Cl
ATOM     17  C   UNL     1       2.086   8.135  17.995  0.00  0.00    +0.000 A 
ATOM     18  C   UNL     1       2.427   6.780  17.990  0.00  0.00    +0.000 A 
ENDBRANCH  11  12
ENDBRANCH   1  11
TORSDOF 4
ENDMDL
MODEL 5
REMARK VINA RESULT:      -6.3      3.961      5.732
REMARK  Name = 
REMARK  6 active torsions:
REMARK  status: ('A' for Active; 'I' for Inactive)
REMARK    1  A    between atoms: C_1  and  C_2
REMARK    2  A    between atoms: N_5  and  C_6
REMARK    3  A    between atoms: C_6  and  C_7
REMARK    4  A    between atoms: C_7  and  C_8
REMARK    5  A    between atoms: C_7  and  O_9
REMARK    6  A    between atoms: O_9  and  C_10
REMARK                            x       y       z     vdW  Elec       q    Type
REMARK                         _______ _______ _______ _____ _____    ______ ____
ROOT
ATOM      1  C   UNL     1       6.182   4.680  18.454  0.00  0.00    +0.000 C 
ATOM      2  C   UNL     1       7.088   5.660  19.213  0.00  0.00    +0.000 C 
ENDROOT
BRANCH   1   3
ATOM      3  C   UNL     1       4.988   4.279  19.343  0.00  0.00    +0.000 C 
BRANCH   3   8
ATOM      4  C   UNL     1       1.189   2.628  21.732  0.00  0.00    +0.000 C 
ATOM      5  C   UNL     1       1.577   3.444  20.495  0.00  0.00    +0.000 C 
ATOM      6  C   UNL     1       2.404   2.583  19.524  0.00  0.00    +0.000 C 
ATOM      7  C   UNL     1       2.855   3.434  18.327  0.00  0.00    +0.000 C 
ATOM      8  N   UNL     1       3.663   4.602  18.750  0.00  0.00    +0.000 NA
ATOM      9  C   UNL     1       2.855   5.463  19.648  0.00  0.00    +0.000 C 
ATOM     10  C   UNL     1       2.369   4.702  20.901  0.00  0.00    +0.000 C 
ENDBRANCH   3   8
ENDBRANCH   1   3
BRANCH   1  11
ATOM     11  O   UNL     1       5.716   5.268  17.289  0.00  0.00    +0.000 OA
BRANCH  11  12
ATOM     12  C   UNL     1       5.976   4.890  16.008  0.00  0.00    +0.000 A 
ATOM     13  C   UNL     1       5.036   4.216  15.196  0.00  0.00    +0.000 A 
ATOM     14  C   UNL     1       5.355   3.890  13.871  0.00  0.00    +0.000 A 
ATOM     15  C   UNL     1       6.607   4.220  13.348  0.00  0.00    +0.000 A 
ATOM     16 CL   UNL     1       7.000   3.823  11.686  0.00  0.00    +0.000 Cl
ATOM     17  C   UNL     1       7.547   4.875  14.152  0.00  0.00    +0.000 A 
ATOM     18  C   UNL     1       7.229   5.209  15.471  0.00  0.00    +0.000 A 
ENDBRANCH  11  12
ENDBRANCH   1  11
TORSDOF 4
ENDMDL
MODEL 6
REMARK VINA RESULT:      -6.2      3.293      4.557
REMARK  Name = 
REMARK  6 active torsions:
REMARK  status: ('A' for Active; 'I' for Inactive)
REMARK    1  A    between atoms: C_1  and  C_2
REMARK    2  A    between atoms: N_5  and  C_6
REMARK    3  A    between atoms: C_6  and  C_7
REMARK    4  A    between atoms: C_7  and  C_8
REMARK    5  A    between atoms: C_7  and  O_9
REMARK    6  A    between atoms: O_9  and  C_10
REMARK                            x       y       z     vdW  Elec       q    Type
REMARK                         _______ _______ _______ _____ _____    ______ ____
ROOT
ATOM      1  C   UNL     1       4.891   4.752  16.862  0.00  0.00    +0.000 C 
ATOM      2  C   UNL     1       4.928   3.971  15.542  0.00  0.00    +0.000 C 
ENDROOT
BRANCH   1   3
ATOM      3  C   UNL     1       3.934   4.059  17.853  0.00  0.00    +0.000 C 
BRANCH   3   8
ATOM      4  C   UNL     1       1.281   2.782  21.621  0.00  0.00    +0.000 C 
ATOM      5  C   UNL     1       1.273   3.696  20.391  0.00  0.00    +0.000 C 
ATOM      6  C   UNL     1       1.368   2.859  19.103  0.00  0.00    +0.000 C 
ATOM      7  C   UNL     1       1.440   3.789  17.882  0.00  0.00    +0.000 C 
ATOM      8  N   UNL     1       2.599   4.708  17.952  0.00  0.00    +0.000 NA
ATOM      9  C   UNL     1       2.489   5.553  19.166  0.00  0.00    +0.000 C 
ATOM     10  C   UNL     1       2.433   4.708  20.458  0.00  0.00    +0.000 C 
ENDBRANCH   3   8
ENDBRANCH   1   3
BRANCH   1  11
ATOM     11  O   UNL     1       6.161   4.816  17.412  0.00  0.00    +0.000 OA
BRANCH  11  12
ATOM     12  C   UNL     1       6.847   5.929  17.790  0.00  0.00    +0.000 A 
ATOM     13  C   UNL     1       7.773   5.942  18.857  0.00  0.00    +0.000 A 
ATOM     14  C   UNL     1       8.475   7.114  19.168  0.00  0.00    +0.000 A 
ATOM     15  C   UNL     1       8.255   8.281  18.432  0.00  0.00    +0.000 A 
ATOM     16 CL   UNL     1       9.142   9.744  18.815  0.00  0.00    +0.000 Cl
ATOM     17  C   UNL     1       7.329   8.278  17.383  0.00  0.00    +0.000 A 
ATOM     18  C   UNL     1       6.633   7.109  17.066  0.00  0.00    +0.000 A 
ENDBRANCH  11  12
ENDBRANCH   1  11
TORSDOF 4
ENDMDL
MODEL 7
REMARK VINA RESULT:      -6.2      3.833      5.696
REMARK  Name = 
REMARK  6 active torsions:
REMARK  status: ('A' for Active; 'I' for Inactive)
REMARK    1  A    between atoms: C_1  and  C_2
REMARK    2  A    between atoms: N_5  and  C_6
REMARK    3  A    between atoms: C_6  and  C_7
REMARK    4  A    between atoms: C_7  and  C_8
REMARK    5  A    between atoms: C_7  and  O_9
REMARK    6  A    between atoms: O_9  and  C_10
REMARK                            x       y       z     vdW  Elec       q    Type
REMARK                         _______ _______ _______ _____ _____    ______ ____
ROOT
ATOM      1  C   UNL     1       5.358   5.938  18.179  0.00  0.00    +0.000 C 
ATOM      2  C   UNL     1       4.638   6.828  17.156  0.00  0.00    +0.000 C 
ENDROOT
BRANCH   1   3
ATOM      3  C   UNL     1       4.366   5.494  19.273  0.00  0.00    +0.000 C 
BRANCH   3   8
ATOM      4  C   UNL     1       1.358   2.576  21.575  0.00  0.00    +0.000 C 
ATOM      5  C   UNL     1       1.398   3.666  20.499  0.00  0.00    +0.000 C 
ATOM      6  C   UNL     1       2.270   3.215  19.314  0.00  0.00    +0.000 C 
ATOM      7  C   UNL     1       2.368   4.347  18.279  0.00  0.00    +0.000 C 
ATOM      8  N   UNL     1       2.939   5.583  18.862  0.00  0.00    +0.000 NA
ATOM      9  C   UNL     1       2.077   6.051  19.974  0.00  0.00    +0.000 C 
ATOM     10  C   UNL     1       1.932   4.987  21.084  0.00  0.00    +0.000 C 
ENDBRANCH   3   8
ENDBRANCH   1   3
BRANCH   1  11
ATOM     11  O   UNL     1       5.886   4.822  17.550  0.00  0.00    +0.000 OA
BRANCH  11  12
ATOM     12  C   UNL     1       6.142   4.661  16.223  0.00  0.00    +0.000 A 
ATOM     13  C   UNL     1       7.313   5.147  15.598  0.00  0.00    +0.000 A 
ATOM     14  C   UNL     1       7.533   4.912  14.235  0.00  0.00    +0.000 A 
ATOM     15  C   UNL     1       6.592   4.204  13.482  0.00  0.00    +0.000 A 
ATOM     16 CL   UNL     1       6.874   3.899  11.778  0.00  0.00    +0.000 Cl
ATOM     17  C   UNL     1       5.425   3.731  14.094  0.00  0.00    +0.000 A 
ATOM     18  C   UNL     1       5.207   3.958  15.455  0.00  0.00    +0.000 A 
ENDBRANCH  11  12
ENDBRANCH   1  11
TORSDOF 4
ENDMDL
MODEL 8
REMARK VINA RESULT:      -6.2      3.996      5.782
REMARK  Name = 
REMARK  6 active torsions:
REMARK  status: ('A' for Active; 'I' for Inactive)
REMARK    1  A    between atoms: C_1  and  C_2
REMARK    2  A    between atoms: N_5  and  C_6
REMARK    3  A    between atoms: C_6  and  C_7
REMARK    4  A    between atoms: C_7  and  C_8
REMARK    5  A    between atoms: C_7  and  O_9
REMARK    6  A    between atoms: O_9  and  C_10
REMARK                            x       y       z     vdW  Elec       q    Type
REMARK                         _______ _______ _______ _____ _____    ______ ____
ROOT
ATOM      1  C   UNL     1       6.252   4.644  18.406  0.00  0.00    +0.000 C 
ATOM      2  C   UNL     1       7.027   5.634  19.286  0.00  0.00    +0.000 C 
ENDROOT
BRANCH   1   3
ATOM      3  C   UNL     1       5.047   4.082  19.188  0.00  0.00    +0.000 C 
BRANCH   3   8
ATOM      4  C   UNL     1       1.227   2.666  21.691  0.00  0.00    +0.000 C 
ATOM      5  C   UNL     1       1.629   3.482  20.459  0.00  0.00    +0.000 C 
ATOM      6  C   UNL     1       2.348   2.585  19.435  0.00  0.00    +0.000 C 
ATOM      7  C   UNL     1       2.817   3.431  18.241  0.00  0.00    +0.000 C 
ATOM      8  N   UNL     1       3.729   4.522  18.658  0.00  0.00    +0.000 NA
ATOM      9  C   UNL     1       3.027   5.418  19.607  0.00  0.00    +0.000 C 
ATOM     10  C   UNL     1       2.532   4.664  20.861  0.00  0.00    +0.000 C 
ENDBRANCH   3   8
ENDBRANCH   1   3
BRANCH   1  11
ATOM     11  O   UNL     1       5.804   5.277  17.258  0.00  0.00    +0.000 OA
BRANCH  11  12
ATOM     12  C   UNL     1       6.081   4.948  15.967  0.00  0.00    +0.000 A 
ATOM     13  C   UNL     1       7.271   5.333  15.309  0.00  0.00    +0.000 A 
ATOM     14  C   UNL     1       7.511   4.926  13.990  0.00  0.00    +0.000 A 
ATOM     15  C   UNL     1       6.572   4.145  13.313  0.00  0.00    +0.000 A 
ATOM     16 CL   UNL     1       6.878   3.626  11.667  0.00  0.00    +0.000 Cl
ATOM     17  C   UNL     1       5.385   3.771  13.955  0.00  0.00    +0.000 A 
ATOM     18  C   UNL     1       5.147   4.169  15.273  0.00  0.00    +0.000 A 
ENDBRANCH  11  12
ENDBRANCH   1  11
TORSDOF 4
ENDMDL
MODEL 9
REMARK VINA RESULT:      -6.2      3.486      4.616
REMARK  Name = 
REMARK  6 active torsions:
REMARK  status: ('A' for Active; 'I' for Inactive)
REMARK    1  A    between atoms: C_1  and  C_2
REMARK    2  A    between atoms: N_5  and  C_6
REMARK    3  A    between atoms: C_6  and  C_7
REMARK    4  A    between atoms: C_7  and  C_8
REMARK    5  A    between atoms: C_7  and  O_9
REMARK    6  A    between atoms: O_9  and  C_10
REMARK                            x       y       z     vdW  Elec       q    Type
REMARK                         _______ _______ _______ _____ _____    ______ ____
ROOT
ATOM      1  C   UNL     1       4.879   4.435  16.840  0.00  0.00    +0.000 C 
ATOM      2  C   UNL     1       5.113   4.179  15.345  0.00  0.00    +0.000 C 
ENDROOT
BRANCH   1   3
ATOM      3  C   UNL     1       4.093   3.258  17.454  0.00  0.00    +0.000 C 
BRANCH   3   8
ATOM      4  C   UNL     1       1.969   3.671  21.718  0.00  0.00    +0.000 C 
ATOM      5  C   UNL     1       1.672   3.675  20.215  0.00  0.00    +0.000 C 
ATOM      6  C   UNL     1       2.057   2.322  19.591  0.00  0.00    +0.000 C 
ATOM      7  C   UNL     1       1.830   2.367  18.071  0.00  0.00    +0.000 C 
ATOM      8  N   UNL     1       2.617   3.442  17.425  0.00  0.00    +0.000 NA
ATOM      9  C   UNL     1       2.217   4.755  17.987  0.00  0.00    +0.000 C 
ATOM     10  C   UNL     1       2.429   4.821  19.515  0.00  0.00    +0.000 C 
ENDBRANCH   3   8
ENDBRANCH   1   3
BRANCH   1  11
ATOM     11  O   UNL     1       6.092   4.573  17.495  0.00  0.00    +0.000 OA
BRANCH  11  12
ATOM     12  C   UNL     1       6.774   5.724  17.745  0.00  0.00    +0.000 A 
ATOM     13  C   UNL     1       6.567   6.918  17.017  0.00  0.00    +0.000 A 
ATOM     14  C   UNL     1       7.275   8.079  17.352  0.00  0.00    +0.000 A 
ATOM     15  C   UNL     1       8.197   8.063  18.401  0.00  0.00    +0.000 A 
ATOM     16 CL   UNL     1       9.074   9.520  18.828  0.00  0.00    +0.000 Cl
ATOM     17  C   UNL     1       8.415   6.880  19.117  0.00  0.00    +0.000 A 
ATOM     18  C   UNL     1       7.705   5.722  18.790  0.00  0.00    +0.000 A 
ENDBRANCH  11  12
ENDBRANCH   1  11
TORSDOF 4
ENDMDL
