MODEL 1
REMARK VINA RESULT:      -8.0      0.000      0.000
REMARK  Name = 
REMARK  4 active torsions:
REMARK  status: ('A' for Active; 'I' for Inactive)
REMARK    1  A    between atoms: C_1  and  C_2
REMARK    2  A    between atoms: C_5  and  N_6
REMARK    3  A    between atoms: C_14  and  C_15
REMARK    4  A    between atoms: C_15  and  C_16
REMARK                            x       y       z     vdW  Elec       q    Type
REMARK                         _______ _______ _______ _____ _____    ______ ____
ROOT
ATOM      1  N   UNL     1       1.280  10.052  19.008  0.00  0.00    +0.000 N 
ATOM      2  C   UNL     1       1.638   9.240  17.837  0.00  0.00    +0.000 C 
ATOM      3  C   UNL     1       2.582   8.098  18.269  0.00  0.00    +0.000 C 
ATOM      4  N   UNL     1       1.992   7.308  19.372  0.00  0.00    +0.000 N 
ATOM      5  C   UNL     1       2.219   5.962  19.521  0.00  0.00    +0.000 C 
ATOM      6  N   UNL     1       2.322   5.334  20.642  0.00  0.00    +0.000 NA
ATOM      7  C   UNL     1       2.558   3.984  20.495  0.00  0.00    +0.000 C 
ATOM      8  O   UNL     1       2.631   3.207  21.440  0.00  0.00    +0.000 OA
ATOM      9  C   UNL     1       2.767   3.523  19.063  0.00  0.00    +0.000 C 
ATOM     10  S   UNL     1       2.314   4.975  18.079  0.00  0.00    +0.000 S 
ATOM     11  C   UNL     1       1.658   8.145  20.543  0.00  0.00    +0.000 C 
ATOM     12  C   UNL     1       0.699   9.282  20.125  0.00  0.00    +0.000 C 
ENDROOT
BRANCH   1  17
ATOM     13  C   UNL     1       1.377  15.774  18.830  0.00  0.00    +0.000 C 
ATOM     14  C   UNL     1       1.335  14.278  18.892  0.00  0.00    +0.000 A 
ATOM     15  C   UNL     1       0.342  13.605  19.603  0.00  0.00    +0.000 A 
ATOM     16  C   UNL     1       0.329  12.205  19.649  0.00  0.00    +0.000 A 
ATOM     17  C   UNL     1       1.299  11.430  18.993  0.00  0.00    +0.000 A 
ATOM     18  C   UNL     1       2.278  12.132  18.277  0.00  0.00    +0.000 A 
ATOM     19  C   UNL     1       2.302  13.529  18.224  0.00  0.00    +0.000 A 
ENDBRANCH   1  17
BRANCH   9  20
ATOM     20  C   UNL     1       4.230   3.114  18.864  0.00  0.00    +0.000 C 
BRANCH  20  21
ATOM     21  C   UNL     1       5.156   4.106  18.187  0.00  0.00    +0.000 A 
ATOM     22  C   UNL     1       5.860   5.022  18.986  0.00  0.00    +0.000 A 
ATOM     23  C   UNL     1       6.746   5.941  18.417  0.00  0.00    +0.000 A 
ATOM     24  C   UNL     1       6.947   5.952  17.039  0.00  0.00    +0.000 A 
ATOM     25  C   UNL     1       6.267   5.041  16.233  0.00  0.00    +0.000 A 
ATOM     26  C   UNL     1       5.386   4.117  16.804  0.00  0.00    +0.000 A 
ENDBRANCH  20  21
ENDBRANCH   9  20
TORSDOF 3
ENDMDL
MODEL 2
REMARK VINA RESULT:      -7.9      0.129      1.336
REMARK  Name = 
REMARK  4 active torsions:
REMARK  status: ('A' for Active; 'I' for Inactive)
REMARK    1  A    between atoms: C_1  and  C_2
REMARK    2  A    between atoms: C_5  and  N_6
REMARK    3  A    between atoms: C_14  and  C_15
REMARK    4  A    between atoms: C_15  and  C_16
REMARK                            x       y       z     vdW  Elec       q    Type
REMARK                         _______ _______ _______ _____ _____    ______ ____
ROOT
ATOM      1  N   UNL     1       1.301  10.012  18.992  0.00  0.00    +0.000 N 
ATOM      2  C   UNL     1       1.627   9.181  17.825  0.00  0.00    +0.000 C 
ATOM      3  C   UNL     1       2.559   8.029  18.255  0.00  0.00    +0.000 C 
ATOM      4  N   UNL     1       1.975   7.261  19.375  0.00  0.00    +0.000 N 
ATOM      5  C   UNL     1       2.183   5.913  19.536  0.00  0.00    +0.000 C 
ATOM      6  N   UNL     1       2.295   5.296  20.662  0.00  0.00    +0.000 NA
ATOM      7  C   UNL     1       2.507   3.941  20.526  0.00  0.00    +0.000 C 
ATOM      8  O   UNL     1       2.583   3.173  21.479  0.00  0.00    +0.000 OA
ATOM      9  C   UNL     1       2.685   3.461  19.096  0.00  0.00    +0.000 C 
ATOM     10  S   UNL     1       2.239   4.909  18.104  0.00  0.00    +0.000 S 
ATOM     11  C   UNL     1       1.675   8.116  20.543  0.00  0.00    +0.000 C 
ATOM     12  C   UNL     1       0.727   9.264  20.128  0.00  0.00    +0.000 C 
ENDROOT
BRANCH   1  17
ATOM     13  C   UNL     1       1.460  15.736  18.982  0.00  0.00    +0.000 C 
ATOM     14  C   UNL     1       1.434  14.237  18.967  0.00  0.00    +0.000 A 
ATOM     15  C   UNL     1       2.333  13.500  18.199  0.00  0.00    +0.000 A 
ATOM     16  C   UNL     1       2.283  12.099  18.200  0.00  0.00    +0.000 A 
ATOM     17  C   UNL     1       1.342  11.389  18.962  0.00  0.00    +0.000 A 
ATOM     18  C   UNL     1       0.457  12.156  19.733  0.00  0.00    +0.000 A 
ATOM     19  C   UNL     1       0.496  13.554  19.740  0.00  0.00    +0.000 A 
ENDBRANCH   1  17
BRANCH   9  20
ATOM     20  C   UNL     1       4.138   3.026  18.878  0.00  0.00    +0.000 C 
BRANCH  20  21
ATOM     21  C   UNL     1       5.082   4.018  18.226  0.00  0.00    +0.000 A 
ATOM     22  C   UNL     1       5.208   4.006  16.828  0.00  0.00    +0.000 A 
ATOM     23  C   UNL     1       6.044   4.915  16.173  0.00  0.00    +0.000 A 
ATOM     24  C   UNL     1       6.761   5.855  16.908  0.00  0.00    +0.000 A 
ATOM     25  C   UNL     1       6.637   5.890  18.296  0.00  0.00    +0.000 A 
ATOM     26  C   UNL     1       5.795   4.985  18.950  0.00  0.00    +0.000 A 
ENDBRANCH  20  21
ENDBRANCH   9  20
TORSDOF 3
ENDMDL
MODEL 3
REMARK VINA RESULT:      -7.6      2.480      3.932
REMARK  Name = 
REMARK  4 active torsions:
REMARK  status: ('A' for Active; 'I' for Inactive)
REMARK    1  A    between atoms: C_1  and  C_2
REMARK    2  A    between atoms: C_5  and  N_6
REMARK    3  A    between atoms: C_14  and  C_15
REMARK    4  A    between atoms: C_15  and  C_16
REMARK                            x       y       z     vdW  Elec       q    Type
REMARK                         _______ _______ _______ _____ _____    ______ ____
ROOT
ATOM      1  N   UNL     1       1.034   9.739  19.470  0.00  0.00    +0.000 N 
ATOM      2  C   UNL     1       1.623   8.856  20.486  0.00  0.00    +0.000 C 
ATOM      3  C   UNL     1       1.830   7.448  19.888  0.00  0.00    +0.000 C 
ATOM      4  N   UNL     1       2.619   7.510  18.638  0.00  0.00    +0.000 N 
ATOM      5  C   UNL     1       3.477   6.510  18.254  0.00  0.00    +0.000 C 
ATOM      6  N   UNL     1       3.704   6.135  17.042  0.00  0.00    +0.000 NA
ATOM      7  C   UNL     1       4.609   5.099  16.949  0.00  0.00    +0.000 C 
ATOM      8  O   UNL     1       4.999   4.640  15.880  0.00  0.00    +0.000 OA
ATOM      9  C   UNL     1       5.068   4.529  18.280  0.00  0.00    +0.000 C 
ATOM     10  S   UNL     1       4.409   5.699  19.494  0.00  0.00    +0.000 S 
ATOM     11  C   UNL     1       1.995   8.390  17.627  0.00  0.00    +0.000 C 
ATOM     12  C   UNL     1       1.799   9.808  18.209  0.00  0.00    +0.000 C 
ENDROOT
BRANCH   1  17
ATOM     13  C   UNL     1      -3.437  13.158  20.522  0.00  0.00    +0.000 C 
ATOM     14  C   UNL     1      -2.259  12.268  20.268  0.00  0.00    +0.000 A 
ATOM     15  C   UNL     1      -1.357  11.943  21.281  0.00  0.00    +0.000 A 
ATOM     16  C   UNL     1      -0.261  11.113  21.014  0.00  0.00    +0.000 A 
ATOM     17  C   UNL     1      -0.025  10.579  19.737  0.00  0.00    +0.000 A 
ATOM     18  C   UNL     1      -0.953  10.913  18.741  0.00  0.00    +0.000 A 
ATOM     19  C   UNL     1      -2.051  11.741  18.994  0.00  0.00    +0.000 A 
ENDBRANCH   1  17
BRANCH   9  20
ATOM     20  C   UNL     1       4.496   3.118  18.456  0.00  0.00    +0.000 C 
BRANCH  20  21
ATOM     21  C   UNL     1       3.266   2.957  19.328  0.00  0.00    +0.000 A 
ATOM     22  C   UNL     1       3.442   2.676  20.693  0.00  0.00    +0.000 A 
ATOM     23  C   UNL     1       2.344   2.544  21.548  0.00  0.00    +0.000 A 
ATOM     24  C   UNL     1       1.053   2.699  21.051  0.00  0.00    +0.000 A 
ATOM     25  C   UNL     1       0.861   2.993  19.702  0.00  0.00    +0.000 A 
ATOM     26  C   UNL     1       1.960   3.132  18.849  0.00  0.00    +0.000 A 
ENDBRANCH  20  21
ENDBRANCH   9  20
TORSDOF 3
ENDMDL
MODEL 4
REMARK VINA RESULT:      -7.6      2.484      3.952
REMARK  Name = 
REMARK  4 active torsions:
REMARK  status: ('A' for Active; 'I' for Inactive)
REMARK    1  A    between atoms: C_1  and  C_2
REMARK    2  A    between atoms: C_5  and  N_6
REMARK    3  A    between atoms: C_14  and  C_15
REMARK    4  A    between atoms: C_15  and  C_16
REMARK                            x       y       z     vdW  Elec       q    Type
REMARK                         _______ _______ _______ _____ _____    ______ ____
ROOT
ATOM      1  N   UNL     1       1.011   9.676  19.426  0.00  0.00    +0.000 N 
ATOM      2  C   UNL     1       1.521   8.713  20.412  0.00  0.00    +0.000 C 
ATOM      3  C   UNL     1       1.806   7.365  19.717  0.00  0.00    +0.000 C 
ATOM      4  N   UNL     1       2.702   7.544  18.554  0.00  0.00    +0.000 N 
ATOM      5  C   UNL     1       3.609   6.589  18.165  0.00  0.00    +0.000 C 
ATOM      6  N   UNL     1       3.951   6.323  16.951  0.00  0.00    +0.000 NA
ATOM      7  C   UNL     1       4.879   5.309  16.852  0.00  0.00    +0.000 C 
ATOM      8  O   UNL     1       5.371   4.949  15.788  0.00  0.00    +0.000 OA
ATOM      9  C   UNL     1       5.226   4.629  18.165  0.00  0.00    +0.000 C 
ATOM     10  S   UNL     1       4.440   5.682  19.410  0.00  0.00    +0.000 S 
ATOM     11  C   UNL     1       2.156   8.502  17.570  0.00  0.00    +0.000 C 
ATOM     12  C   UNL     1       1.884   9.863  18.251  0.00  0.00    +0.000 C 
ENDROOT
BRANCH   1  17
ATOM     13  C   UNL     1      -3.462  13.094  20.476  0.00  0.00    +0.000 C 
ATOM     14  C   UNL     1      -2.301  12.193  20.181  0.00  0.00    +0.000 A 
ATOM     15  C   UNL     1      -2.151  11.580  18.939  0.00  0.00    +0.000 A 
ATOM     16  C   UNL     1      -1.059  10.738  18.691  0.00  0.00    +0.000 A 
ATOM     17  C   UNL     1      -0.083  10.479  19.667  0.00  0.00    +0.000 A 
ATOM     18  C   UNL     1      -0.253  11.118  20.904  0.00  0.00    +0.000 A 
ATOM     19  C   UNL     1      -1.339  11.960  21.163  0.00  0.00    +0.000 A 
ENDBRANCH   1  17
BRANCH   9  20
ATOM     20  C   UNL     1       4.666   3.203  18.167  0.00  0.00    +0.000 C 
BRANCH  20  21
ATOM     21  C   UNL     1       3.289   2.984  18.763  0.00  0.00    +0.000 A 
ATOM     22  C   UNL     1       3.187   2.716  20.138  0.00  0.00    +0.000 A 
ATOM     23  C   UNL     1       1.941   2.533  20.745  0.00  0.00    +0.000 A 
ATOM     24  C   UNL     1       0.778   2.624  19.986  0.00  0.00    +0.000 A 
ATOM     25  C   UNL     1       0.860   2.903  18.623  0.00  0.00    +0.000 A 
ATOM     26  C   UNL     1       2.106   3.093  18.018  0.00  0.00    +0.000 A 
ENDBRANCH  20  21
ENDBRANCH   9  20
TORSDOF 3
ENDMDL
MODEL 5
REMARK VINA RESULT:      -7.5      2.471      4.040
REMARK  Name = 
REMARK  4 active torsions:
REMARK  status: ('A' for Active; 'I' for Inactive)
REMARK    1  A    between atoms: C_1  and  C_2
REMARK    2  A    between atoms: C_5  and  N_6
REMARK    3  A    between atoms: C_14  and  C_15
REMARK    4  A    between atoms: C_15  and  C_16
REMARK                            x       y       z     vdW  Elec       q    Type
REMARK                         _______ _______ _______ _____ _____    ______ ____
ROOT
ATOM      1  N   UNL     1       0.999   9.757  19.482  0.00  0.00    +0.000 N 
ATOM      2  C   UNL     1       1.506   8.790  20.465  0.00  0.00    +0.000 C 
ATOM      3  C   UNL     1       1.775   7.439  19.769  0.00  0.00    +0.000 C 
ATOM      4  N   UNL     1       2.668   7.610  18.601  0.00  0.00    +0.000 N 
ATOM      5  C   UNL     1       3.564   6.648  18.208  0.00  0.00    +0.000 C 
ATOM      6  N   UNL     1       3.899   6.380  16.992  0.00  0.00    +0.000 NA
ATOM      7  C   UNL     1       4.817   5.357  16.889  0.00  0.00    +0.000 C 
ATOM      8  O   UNL     1       5.301   4.993  15.823  0.00  0.00    +0.000 OA
ATOM      9  C   UNL     1       5.164   4.674  18.200  0.00  0.00    +0.000 C 
ATOM     10  S   UNL     1       4.393   5.733  19.449  0.00  0.00    +0.000 S 
ATOM     11  C   UNL     1       2.126   8.574  17.620  0.00  0.00    +0.000 C 
ATOM     12  C   UNL     1       1.868   9.936  18.303  0.00  0.00    +0.000 C 
ENDROOT
BRANCH   1  17
ATOM     13  C   UNL     1      -3.580  13.053  20.460  0.00  0.00    +0.000 C 
ATOM     14  C   UNL     1      -2.373  12.198  20.224  0.00  0.00    +0.000 A 
ATOM     15  C   UNL     1      -1.397  12.027  21.205  0.00  0.00    +0.000 A 
ATOM     16  C   UNL     1      -0.275  11.226  20.956  0.00  0.00    +0.000 A 
ATOM     17  C   UNL     1      -0.086  10.570  19.729  0.00  0.00    +0.000 A 
ATOM     18  C   UNL     1      -1.088  10.751  18.764  0.00  0.00    +0.000 A 
ATOM     19  C   UNL     1      -2.212  11.549  19.001  0.00  0.00    +0.000 A 
ENDBRANCH   1  17
BRANCH   9  20
ATOM     20  C   UNL     1       4.591   3.252  18.204  0.00  0.00    +0.000 C 
BRANCH  20  21
ATOM     21  C   UNL     1       3.248   3.033  18.872  0.00  0.00    +0.000 A 
ATOM     22  C   UNL     1       2.087   3.099  18.086  0.00  0.00    +0.000 A 
ATOM     23  C   UNL     1       0.825   2.880  18.645  0.00  0.00    +0.000 A 
ATOM     24  C   UNL     1       0.708   2.582  20.000  0.00  0.00    +0.000 A 
ATOM     25  C   UNL     1       1.851   2.497  20.793  0.00  0.00    +0.000 A 
ATOM     26  C   UNL     1       3.113   2.711  20.231  0.00  0.00    +0.000 A 
ENDBRANCH  20  21
ENDBRANCH   9  20
TORSDOF 3
ENDMDL
MODEL 6
REMARK VINA RESULT:      -7.4      2.848      3.908
REMARK  Name = 
REMARK  4 active torsions:
REMARK  status: ('A' for Active; 'I' for Inactive)
REMARK    1  A    between atoms: C_1  and  C_2
REMARK    2  A    between atoms: C_5  and  N_6
REMARK    3  A    between atoms: C_14  and  C_15
REMARK    4  A    between atoms: C_15  and  C_16
REMARK                            x       y       z     vdW  Elec       q    Type
REMARK                         _______ _______ _______ _____ _____    ______ ____
ROOT
ATOM      1  N   UNL     1      -0.699  11.131  21.534  0.00  0.00    +0.000 N 
ATOM      2  C   UNL     1      -0.304  11.304  20.130  0.00  0.00    +0.000 C 
ATOM      3  C   UNL     1       1.055  10.614  19.887  0.00  0.00    +0.000 C 
ATOM      4  N   UNL     1       1.018   9.198  20.315  0.00  0.00    +0.000 N 
ATOM      5  C   UNL     1       1.742   8.216  19.687  0.00  0.00    +0.000 C 
ATOM      6  N   UNL     1       2.281   7.194  20.258  0.00  0.00    +0.000 NA
ATOM      7  C   UNL     1       2.959   6.371  19.384  0.00  0.00    +0.000 C 
ATOM      8  O   UNL     1       3.490   5.320  19.725  0.00  0.00    +0.000 OA
ATOM      9  C   UNL     1       3.039   6.882  17.956  0.00  0.00    +0.000 C 
ATOM     10  S   UNL     1       1.909   8.297  17.946  0.00  0.00    +0.000 S 
ATOM     11  C   UNL     1       0.636   9.054  21.736  0.00  0.00    +0.000 C 
ATOM     12  C   UNL     1      -0.733   9.726  21.987  0.00  0.00    +0.000 C 
ENDROOT
BRANCH   1  17
ATOM     13  C   UNL     1      -2.744  15.352  24.819  0.00  0.00    +0.000 C 
ATOM     14  C   UNL     1      -2.192  14.262  23.951  0.00  0.00    +0.000 A 
ATOM     15  C   UNL     1      -0.995  14.419  23.256  0.00  0.00    +0.000 A 
ATOM     16  C   UNL     1      -0.504  13.385  22.447  0.00  0.00    +0.000 A 
ATOM     17  C   UNL     1      -1.186  12.165  22.304  0.00  0.00    +0.000 A 
ATOM     18  C   UNL     1      -2.381  12.031  23.024  0.00  0.00    +0.000 A 
ATOM     19  C   UNL     1      -2.881  13.056  23.833  0.00  0.00    +0.000 A 
ENDBRANCH   1  17
BRANCH   9  20
ATOM     20  C   UNL     1       4.483   7.283  17.636  0.00  0.00    +0.000 C 
BRANCH  20  21
ATOM     21  C   UNL     1       5.371   6.253  16.965  0.00  0.00    +0.000 A 
ATOM     22  C   UNL     1       5.192   6.003  15.595  0.00  0.00    +0.000 A 
ATOM     23  C   UNL     1       6.000   5.084  14.919  0.00  0.00    +0.000 A 
ATOM     24  C   UNL     1       7.005   4.406  15.605  0.00  0.00    +0.000 A 
ATOM     25  C   UNL     1       7.205   4.653  16.961  0.00  0.00    +0.000 A 
ATOM     26  C   UNL     1       6.402   5.578  17.635  0.00  0.00    +0.000 A 
ENDBRANCH  20  21
ENDBRANCH   9  20
TORSDOF 3
ENDMDL
MODEL 7
REMARK VINA RESULT:      -7.4      3.388      4.938
REMARK  Name = 
REMARK  4 active torsions:
REMARK  status: ('A' for Active; 'I' for Inactive)
REMARK    1  A    between atoms: C_1  and  C_2
REMARK    2  A    between atoms: C_5  and  N_6
REMARK    3  A    between atoms: C_14  and  C_15
REMARK    4  A    between atoms: C_15  and  C_16
REMARK                            x       y       z     vdW  Elec       q    Type
REMARK                         _______ _______ _______ _____ _____    ______ ____
ROOT
ATOM      1  N   UNL     1      -0.512  11.658  22.246  0.00  0.00    +0.000 N 
ATOM      2  C   UNL     1      -0.360  10.260  22.671  0.00  0.00    +0.000 C 
ATOM      3  C   UNL     1      -0.303   9.347  21.428  0.00  0.00    +0.000 C 
ATOM      4  N   UNL     1       0.748   9.791  20.487  0.00  0.00    +0.000 N 
ATOM      5  C   UNL     1       1.456   8.915  19.702  0.00  0.00    +0.000 C 
ATOM      6  N   UNL     1       1.879   9.146  18.506  0.00  0.00    +0.000 NA
ATOM      7  C   UNL     1       2.557   8.084  17.950  0.00  0.00    +0.000 C 
ATOM      8  O   UNL     1       3.084   8.128  16.843  0.00  0.00    +0.000 OA
ATOM      9  C   UNL     1       2.575   6.822  18.795  0.00  0.00    +0.000 C 
ATOM     10  S   UNL     1       1.898   7.365  20.384  0.00  0.00    +0.000 S 
ATOM     11  C   UNL     1       0.561  11.194  20.062  0.00  0.00    +0.000 C 
ATOM     12  C   UNL     1       0.520  12.121  21.299  0.00  0.00    +0.000 C 
ENDROOT
BRANCH   1  17
ATOM     13  C   UNL     1      -4.234  15.321  24.597  0.00  0.00    +0.000 C 
ATOM     14  C   UNL     1      -3.275  14.346  23.984  0.00  0.00    +0.000 A 
ATOM     15  C   UNL     1      -3.671  13.055  23.635  0.00  0.00    +0.000 A 
ATOM     16  C   UNL     1      -2.754  12.161  23.068  0.00  0.00    +0.000 A 
ATOM     17  C   UNL     1      -1.417  12.519  22.829  0.00  0.00    +0.000 A 
ATOM     18  C   UNL     1      -1.049  13.826  23.180  0.00  0.00    +0.000 A 
ATOM     19  C   UNL     1      -1.956  14.727  23.747  0.00  0.00    +0.000 A 
ENDBRANCH   1  17
BRANCH   9  20
ATOM     20  C   UNL     1       1.711   5.747  18.127  0.00  0.00    +0.000 C 
BRANCH  20  21
ATOM     21  C   UNL     1       2.170   4.305  18.230  0.00  0.00    +0.000 A 
ATOM     22  C   UNL     1       3.332   3.919  17.542  0.00  0.00    +0.000 A 
ATOM     23  C   UNL     1       3.815   2.610  17.624  0.00  0.00    +0.000 A 
ATOM     24  C   UNL     1       3.147   1.670  18.403  0.00  0.00    +0.000 A 
ATOM     25  C   UNL     1       2.001   2.039  19.104  0.00  0.00    +0.000 A 
ATOM     26  C   UNL     1       1.522   3.351  19.028  0.00  0.00    +0.000 A 
ENDBRANCH  20  21
ENDBRANCH   9  20
TORSDOF 3
ENDMDL
MODEL 8
REMARK VINA RESULT:      -7.4      2.820      3.686
REMARK  Name = 
REMARK  4 active torsions:
REMARK  status: ('A' for Active; 'I' for Inactive)
REMARK    1  A    between atoms: C_1  and  C_2
REMARK    2  A    between atoms: C_5  and  N_6
REMARK    3  A    between atoms: C_14  and  C_15
REMARK    4  A    between atoms: C_15  and  C_16
REMARK                            x       y       z     vdW  Elec       q    Type
REMARK                         _______ _______ _______ _____ _____    ______ ____
ROOT
ATOM      1  N   UNL     1      -0.634  11.080  21.545  0.00  0.00    +0.000 N 
ATOM      2  C   UNL     1      -0.209  11.279  20.153  0.00  0.00    +0.000 C 
ATOM      3  C   UNL     1       1.142  10.570  19.919  0.00  0.00    +0.000 C 
ATOM      4  N   UNL     1       1.071   9.146  20.312  0.00  0.00    +0.000 N 
ATOM      5  C   UNL     1       1.790   8.166  19.674  0.00  0.00    +0.000 C 
ATOM      6  N   UNL     1       2.300   7.121  20.230  0.00  0.00    +0.000 NA
ATOM      7  C   UNL     1       2.980   6.307  19.350  0.00  0.00    +0.000 C 
ATOM      8  O   UNL     1       3.486   5.238  19.675  0.00  0.00    +0.000 OA
ATOM      9  C   UNL     1       3.097   6.850  17.936  0.00  0.00    +0.000 C 
ATOM     10  S   UNL     1       1.993   8.285  17.939  0.00  0.00    +0.000 S 
ATOM     11  C   UNL     1       0.660   8.975  21.721  0.00  0.00    +0.000 C 
ATOM     12  C   UNL     1      -0.701   9.666  21.963  0.00  0.00    +0.000 C 
ENDROOT
BRANCH   1  17
ATOM     13  C   UNL     1      -2.621  15.412  24.719  0.00  0.00    +0.000 C 
ATOM     14  C   UNL     1      -2.117  14.264  23.898  0.00  0.00    +0.000 A 
ATOM     15  C   UNL     1      -2.804  13.053  23.838  0.00  0.00    +0.000 A 
ATOM     16  C   UNL     1      -2.307  11.994  23.066  0.00  0.00    +0.000 A 
ATOM     17  C   UNL     1      -1.117  12.105  22.330  0.00  0.00    +0.000 A 
ATOM     18  C   UNL     1      -0.453  13.337  22.399  0.00  0.00    +0.000 A 
ATOM     19  C   UNL     1      -0.937  14.401  23.167  0.00  0.00    +0.000 A 
ENDBRANCH   1  17
BRANCH   9  20
ATOM     20  C   UNL     1       4.553   7.233  17.654  0.00  0.00    +0.000 C 
BRANCH  20  21
ATOM     21  C   UNL     1       5.400   6.255  16.862  0.00  0.00    +0.000 A 
ATOM     22  C   UNL     1       6.416   5.552  17.529  0.00  0.00    +0.000 A 
ATOM     23  C   UNL     1       7.210   4.620  16.854  0.00  0.00    +0.000 A 
ATOM     24  C   UNL     1       6.992   4.371  15.501  0.00  0.00    +0.000 A 
ATOM     25  C   UNL     1       5.978   5.049  14.827  0.00  0.00    +0.000 A 
ATOM     26  C   UNL     1       5.180   5.977  15.505  0.00  0.00    +0.000 A 
ENDBRANCH  20  21
ENDBRANCH   9  20
TORSDOF 3
ENDMDL
MODEL 9
REMARK VINA RESULT:      -7.4      0.725      1.214
REMARK  Name = 
REMARK  4 active torsions:
REMARK  status: ('A' for Active; 'I' for Inactive)
REMARK    1  A    between atoms: C_1  and  C_2
REMARK    2  A    between atoms: C_5  and  N_6
REMARK    3  A    between atoms: C_14  and  C_15
REMARK    4  A    between atoms: C_15  and  C_16
REMARK                            x       y       z     vdW  Elec       q    Type
REMARK                         _______ _______ _______ _____ _____    ______ ____
ROOT
ATOM      1  N   UNL     1       0.926  10.543  18.933  0.00  0.00    +0.000 N 
ATOM      2  C   UNL     1       1.468   9.742  17.827  0.00  0.00    +0.000 C 
ATOM      3  C   UNL     1       2.419   8.665  18.389  0.00  0.00    +0.000 C 
ATOM      4  N   UNL     1       1.750   7.852  19.428  0.00  0.00    +0.000 N 
ATOM      5  C   UNL     1       2.037   6.524  19.627  0.00  0.00    +0.000 C 
ATOM      6  N   UNL     1       2.043   5.916  20.764  0.00  0.00    +0.000 NA
ATOM      7  C   UNL     1       2.374   4.581  20.670  0.00  0.00    +0.000 C 
ATOM      8  O   UNL     1       2.379   3.820  21.631  0.00  0.00    +0.000 OA
ATOM      9  C   UNL     1       2.778   4.118  19.281  0.00  0.00    +0.000 C 
ATOM     10  S   UNL     1       2.361   5.529  18.224  0.00  0.00    +0.000 S 
ATOM     11  C   UNL     1       1.231   8.680  20.537  0.00  0.00    +0.000 C 
ATOM     12  C   UNL     1       0.262   9.752  19.988  0.00  0.00    +0.000 C 
ENDROOT
BRANCH   1  17
ATOM     13  C   UNL     1       0.750  16.262  18.689  0.00  0.00    +0.000 C 
ATOM     14  C   UNL     1       0.774  14.765  18.758  0.00  0.00    +0.000 A 
ATOM     15  C   UNL     1      -0.401  14.021  18.856  0.00  0.00    +0.000 A 
ATOM     16  C   UNL     1      -0.350  12.622  18.924  0.00  0.00    +0.000 A 
ATOM     17  C   UNL     1       0.865  11.920  18.895  0.00  0.00    +0.000 A 
ATOM     18  C   UNL     1       2.030  12.692  18.784  0.00  0.00    +0.000 A 
ATOM     19  C   UNL     1       1.992  14.089  18.717  0.00  0.00    +0.000 A 
ENDBRANCH   1  17
BRANCH   9  20
ATOM     20  C   UNL     1       4.276   3.797  19.264  0.00  0.00    +0.000 C 
BRANCH  20  21
ATOM     21  C   UNL     1       5.084   4.252  18.064  0.00  0.00    +0.000 A 
ATOM     22  C   UNL     1       4.834   3.652  16.819  0.00  0.00    +0.000 A 
ATOM     23  C   UNL     1       5.531   4.052  15.675  0.00  0.00    +0.000 A 
ATOM     24  C   UNL     1       6.483   5.064  15.759  0.00  0.00    +0.000 A 
ATOM     25  C   UNL     1       6.733   5.680  16.983  0.00  0.00    +0.000 A 
ATOM     26  C   UNL     1       6.031   5.285  18.126  0.00  0.00    +0.000 A 
ENDBRANCH  20  21
ENDBRANCH   9  20
TORSDOF 3
ENDMDL
