MODEL 1
REMARK VINA RESULT:      -7.6      0.000      0.000
REMARK  Name = 
REMARK  8 active torsions:
REMARK  status: ('A' for Active; 'I' for Inactive)
REMARK    1  A    between atoms: C_2  and  O_24
REMARK    2  A    between atoms: N_3  and  C_4
REMARK    3  A    between atoms: C_4  and  C_5
REMARK    4  A    between atoms: C_4  and  C_13
REMARK    5  A    between atoms: C_5  and  C_6
REMARK    6  A    between atoms: C_6  and  C_7
REMARK    7  A    between atoms: O_24  and  C_25
REMARK    8  A    between atoms: C_25  and  C_26
REMARK                            x       y       z     vdW  Elec       q    Type
REMARK                         _______ _______ _______ _____ _____    ______ ____
ROOT
ATOM      1  C   UNL     1       4.604   4.955  16.703  0.00  0.00    +0.000 C 
ENDROOT
BRANCH   1   2
ATOM      2  C   UNL     1       5.925   4.880  15.907  0.00  0.00    +0.000 C 
ATOM      3  O   UNL     1       6.993   5.208  16.434  0.00  0.00    +0.000 OA
ATOM      4  N   UNL     1       5.885   4.459  14.592  0.00  0.00    +0.000 N 
ATOM      5  C   UNL     1       7.121   4.173  13.868  0.00  0.00    +0.000 C 
ATOM      6  C   UNL     1       6.692   3.807  12.449  0.00  0.00    +0.000 C 
ATOM      7  O   UNL     1       6.681   2.385  12.240  0.00  0.00    +0.000 OA
ATOM      8  N   UNL     1       5.556   2.086  11.422  0.00  0.00    +0.000 NA
ATOM      9  C   UNL     1       4.772   3.110  11.497  0.00  0.00    +0.000 C 
ATOM     10 BR   UNL     1       3.169   3.144  10.576  0.00  0.00    +0.000 Br
ATOM     11  C   UNL     1       5.236   4.210  12.361  0.00  0.00    +0.000 C 
ATOM     12  C   UNL     1       4.732   4.088  13.789  0.00  0.00    +0.000 C 
ENDBRANCH   1   2
BRANCH   1  15
ATOM     13  O   UNL     1       2.352   3.220  16.807  0.00  0.00    +0.000 OA
ATOM     14  C   UNL     1       3.328   2.989  17.504  0.00  0.00    +0.000 C 
ATOM     15  N   UNL     1       4.467   3.735  17.498  0.00  0.00    +0.000 N 
ATOM     16  H   UNL     1       5.206   3.483  18.142  0.00  0.00    +0.000 HD
BRANCH  14  17
ATOM     17  O   UNL     1       3.418   2.005  18.433  0.00  0.00    +0.000 OA
BRANCH  17  18
ATOM     18  C   UNL     1       3.270   2.428  19.799  0.00  0.00    +0.000 C 
BRANCH  18  19
ATOM     19  C   UNL     1       1.834   2.426  20.227  0.00  0.00    +0.000 C 
ATOM     20  C   UNL     1       1.392   2.819  21.615  0.00  0.00    +0.000 C 
ATOM     21  C   UNL     1       1.142   3.751  20.464  0.00  0.00    +0.000 C 
ENDBRANCH  18  19
ENDBRANCH  17  18
ENDBRANCH  14  17
ENDBRANCH   1  15
BRANCH   1  22
ATOM     22  C   UNL     1       4.478   6.221  17.572  0.00  0.00    +0.000 C 
BRANCH  22  23
ATOM     23  C   UNL     1       3.493   6.113  18.743  0.00  0.00    +0.000 C 
BRANCH  23  24
ATOM     24  C   UNL     1       2.627   7.348  18.856  0.00  0.00    +0.000 A 
ATOM     25  C   UNL     1       2.515   8.237  17.777  0.00  0.00    +0.000 A 
ATOM     26  C   UNL     1       1.723   9.383  17.880  0.00  0.00    +0.000 A 
ATOM     27  C   UNL     1       1.036   9.658  19.060  0.00  0.00    +0.000 A 
ATOM     28  C   UNL     1       1.145   8.788  20.144  0.00  0.00    +0.000 A 
ATOM     29  C   UNL     1       1.939   7.640  20.043  0.00  0.00    +0.000 A 
ENDBRANCH  23  24
ENDBRANCH  22  23
ENDBRANCH   1  22
TORSDOF 8
ENDMDL
MODEL 2
REMARK VINA RESULT:      -7.4      4.071      7.026
REMARK  Name = 
REMARK  8 active torsions:
REMARK  status: ('A' for Active; 'I' for Inactive)
REMARK    1  A    between atoms: C_2  and  O_24
REMARK    2  A    between atoms: N_3  and  C_4
REMARK    3  A    between atoms: C_4  and  C_5
REMARK    4  A    between atoms: C_4  and  C_13
REMARK    5  A    between atoms: C_5  and  C_6
REMARK    6  A    between atoms: C_6  and  C_7
REMARK    7  A    between atoms: O_24  and  C_25
REMARK    8  A    between atoms: C_25  and  C_26
REMARK                            x       y       z     vdW  Elec       q    Type
REMARK                         _______ _______ _______ _____ _____    ______ ____
ROOT
ATOM      1  C   UNL     1       6.103   6.711  17.207  0.00  0.00    +0.000 C 
ENDROOT
BRANCH   1   2
ATOM      2  C   UNL     1       4.600   6.733  17.564  0.00  0.00    +0.000 C 
ATOM      3  O   UNL     1       3.896   7.698  17.248  0.00  0.00    +0.000 OA
ATOM      4  N   UNL     1       4.068   5.665  18.260  0.00  0.00    +0.000 N 
ATOM      5  C   UNL     1       2.623   5.543  18.436  0.00  0.00    +0.000 C 
ATOM      6  C   UNL     1       2.416   4.300  19.297  0.00  0.00    +0.000 C 
ATOM      7  O   UNL     1       2.040   3.157  18.511  0.00  0.00    +0.000 OA
ATOM      8  N   UNL     1       2.697   2.025  19.069  0.00  0.00    +0.000 NA
ATOM      9  C   UNL     1       3.658   2.487  19.798  0.00  0.00    +0.000 C 
ATOM     10 BR   UNL     1       4.783   1.343  20.717  0.00  0.00    +0.000 Br
ATOM     11  C   UNL     1       3.791   3.954  19.827  0.00  0.00    +0.000 C 
ATOM     12  C   UNL     1       4.740   4.478  18.763  0.00  0.00    +0.000 C 
ENDBRANCH   1   2
BRANCH   1  15
ATOM     13  O   UNL     1       7.787   4.513  16.552  0.00  0.00    +0.000 OA
ATOM     14  C   UNL     1       7.125   5.052  15.678  0.00  0.00    +0.000 C 
ATOM     15  N   UNL     1       6.263   6.083  15.895  0.00  0.00    +0.000 N 
ATOM     16  H   UNL     1       5.789   6.486  15.097  0.00  0.00    +0.000 HD
BRANCH  14  17
ATOM     17  O   UNL     1       7.183   4.763  14.354  0.00  0.00    +0.000 OA
BRANCH  17  18
ATOM     18  C   UNL     1       6.240   3.780  13.894  0.00  0.00    +0.000 C 
BRANCH  18  19
ATOM     19  C   UNL     1       6.184   3.723  12.397  0.00  0.00    +0.000 C 
ATOM     20  C   UNL     1       6.923   2.687  11.588  0.00  0.00    +0.000 C 
ATOM     21  C   UNL     1       5.433   2.586  11.740  0.00  0.00    +0.000 C 
ENDBRANCH  18  19
ENDBRANCH  17  18
ENDBRANCH  14  17
ENDBRANCH   1  15
BRANCH   1  22
ATOM     22  C   UNL     1       6.771   8.098  17.262  0.00  0.00    +0.000 C 
BRANCH  22  23
ATOM     23  C   UNL     1       8.158   8.129  17.916  0.00  0.00    +0.000 C 
BRANCH  23  24
ATOM     24  C   UNL     1       8.553   9.534  18.313  0.00  0.00    +0.000 A 
ATOM     25  C   UNL     1       8.259  10.618  17.474  0.00  0.00    +0.000 A 
ATOM     26  C   UNL     1       8.630  11.915  17.833  0.00  0.00    +0.000 A 
ATOM     27  C   UNL     1       9.301  12.148  19.031  0.00  0.00    +0.000 A 
ATOM     28  C   UNL     1       9.609  11.079  19.871  0.00  0.00    +0.000 A 
ATOM     29  C   UNL     1       9.239   9.778  19.512  0.00  0.00    +0.000 A 
ENDBRANCH  23  24
ENDBRANCH  22  23
ENDBRANCH   1  22
TORSDOF 8
ENDMDL
MODEL 3
REMARK VINA RESULT:      -7.4      4.085      7.406
REMARK  Name = 
REMARK  8 active torsions:
REMARK  status: ('A' for Active; 'I' for Inactive)
REMARK    1  A    between atoms: C_2  and  O_24
REMARK    2  A    between atoms: N_3  and  C_4
REMARK    3  A    between atoms: C_4  and  C_5
REMARK    4  A    between atoms: C_4  and  C_13
REMARK    5  A    between atoms: C_5  and  C_6
REMARK    6  A    between atoms: C_6  and  C_7
REMARK    7  A    between atoms: O_24  and  C_25
REMARK    8  A    between atoms: C_25  and  C_26
REMARK                            x       y       z     vdW  Elec       q    Type
REMARK                         _______ _______ _______ _____ _____    ______ ____
ROOT
ATOM      1  C   UNL     1       3.417   6.254  19.323  0.00  0.00    +0.000 C 
ENDROOT
BRANCH   1   2
ATOM      2  C   UNL     1       3.100   7.393  18.329  0.00  0.00    +0.000 C 
ATOM      3  O   UNL     1       3.636   7.419  17.216  0.00  0.00    +0.000 OA
ATOM      4  N   UNL     1       2.226   8.389  18.718  0.00  0.00    +0.000 N 
ATOM      5  C   UNL     1       1.737   9.365  17.747  0.00  0.00    +0.000 C 
ATOM      6  C   UNL     1       0.862  10.332  18.540  0.00  0.00    +0.000 C 
ATOM      7  O   UNL     1      -0.538  10.039  18.389  0.00  0.00    +0.000 OA
ATOM      8  N   UNL     1      -1.154  10.256  19.653  0.00  0.00    +0.000 NA
ATOM      9  C   UNL     1      -0.202  10.252  20.525  0.00  0.00    +0.000 C 
ATOM     10 BR   UNL     1      -0.563  10.501  22.322  0.00  0.00    +0.000 Br
ATOM     11  C   UNL     1       1.153  10.026  19.994  0.00  0.00    +0.000 C 
ATOM     12  C   UNL     1       1.546   8.559  19.992  0.00  0.00    +0.000 C 
ENDBRANCH   1   2
BRANCH   1  15
ATOM     13  O   UNL     1       1.627   5.149  21.239  0.00  0.00    +0.000 OA
ATOM     14  C   UNL     1       1.666   4.687  20.109  0.00  0.00    +0.000 C 
ATOM     15  N   UNL     1       2.458   5.169  19.112  0.00  0.00    +0.000 N 
ATOM     16  H   UNL     1       2.446   4.691  18.219  0.00  0.00    +0.000 HD
BRANCH  14  17
ATOM     17  O   UNL     1       0.987   3.595  19.680  0.00  0.00    +0.000 OA
BRANCH  17  18
ATOM     18  C   UNL     1       1.562   2.327  20.040  0.00  0.00    +0.000 C 
BRANCH  18  19
ATOM     19  C   UNL     1       1.937   1.524  18.832  0.00  0.00    +0.000 C 
ATOM     20  C   UNL     1       2.446   2.150  17.558  0.00  0.00    +0.000 C 
ATOM     21  C   UNL     1       3.398   1.413  18.456  0.00  0.00    +0.000 C 
ENDBRANCH  18  19
ENDBRANCH  17  18
ENDBRANCH  14  17
ENDBRANCH   1  15
BRANCH   1  22
ATOM     22  C   UNL     1       4.871   5.753  19.246  0.00  0.00    +0.000 C 
BRANCH  22  23
ATOM     23  C   UNL     1       5.054   4.373  18.602  0.00  0.00    +0.000 C 
BRANCH  23  24
ATOM     24  C   UNL     1       5.642   4.482  17.212  0.00  0.00    +0.000 A 
ATOM     25  C   UNL     1       4.834   4.291  16.083  0.00  0.00    +0.000 A 
ATOM     26  C   UNL     1       5.374   4.383  14.799  0.00  0.00    +0.000 A 
ATOM     27  C   UNL     1       6.728   4.662  14.625  0.00  0.00    +0.000 A 
ATOM     28  C   UNL     1       7.545   4.846  15.738  0.00  0.00    +0.000 A 
ATOM     29  C   UNL     1       7.005   4.754  17.026  0.00  0.00    +0.000 A 
ENDBRANCH  23  24
ENDBRANCH  22  23
ENDBRANCH   1  22
TORSDOF 8
ENDMDL
MODEL 4
REMARK VINA RESULT:      -7.3      0.522      1.088
REMARK  Name = 
REMARK  8 active torsions:
REMARK  status: ('A' for Active; 'I' for Inactive)
REMARK    1  A    between atoms: C_2  and  O_24
REMARK    2  A    between atoms: N_3  and  C_4
REMARK    3  A    between atoms: C_4  and  C_5
REMARK    4  A    between atoms: C_4  and  C_13
REMARK    5  A    between atoms: C_5  and  C_6
REMARK    6  A    between atoms: C_6  and  C_7
REMARK    7  A    between atoms: O_24  and  C_25
REMARK    8  A    between atoms: C_25  and  C_26
REMARK                            x       y       z     vdW  Elec       q    Type
REMARK                         _______ _______ _______ _____ _____    ______ ____
ROOT
ATOM      1  C   UNL     1       4.917   5.053  16.611  0.00  0.00    +0.000 C 
ENDROOT
BRANCH   1   2
ATOM      2  C   UNL     1       6.195   4.923  15.752  0.00  0.00    +0.000 C 
ATOM      3  O   UNL     1       7.295   5.238  16.218  0.00  0.00    +0.000 OA
ATOM      4  N   UNL     1       6.078   4.470  14.453  0.00  0.00    +0.000 N 
ATOM      5  C   UNL     1       7.269   4.133  13.677  0.00  0.00    +0.000 C 
ATOM      6  C   UNL     1       6.762   3.742  12.292  0.00  0.00    +0.000 C 
ATOM      7  O   UNL     1       6.706   2.315  12.122  0.00  0.00    +0.000 OA
ATOM      8  N   UNL     1       5.535   2.024  11.370  0.00  0.00    +0.000 NA
ATOM      9  C   UNL     1       4.780   3.068  11.455  0.00  0.00    +0.000 C 
ATOM     10 BR   UNL     1       3.134   3.119  10.614  0.00  0.00    +0.000 Br
ATOM     11  C   UNL     1       5.313   4.178  12.265  0.00  0.00    +0.000 C 
ATOM     12  C   UNL     1       4.878   4.107  13.718  0.00  0.00    +0.000 C 
ENDBRANCH   1   2
BRANCH   1  15
ATOM     13  O   UNL     1       2.705   3.305  17.000  0.00  0.00    +0.000 OA
ATOM     14  C   UNL     1       3.723   3.152  17.658  0.00  0.00    +0.000 C 
ATOM     15  N   UNL     1       4.846   3.908  17.520  0.00  0.00    +0.000 N 
ATOM     16  H   UNL     1       5.624   3.726  18.141  0.00  0.00    +0.000 HD
BRANCH  14  17
ATOM     17  O   UNL     1       3.882   2.258  18.665  0.00  0.00    +0.000 OA
BRANCH  17  18
ATOM     18  C   UNL     1       3.502   2.724  19.971  0.00  0.00    +0.000 C 
BRANCH  18  19
ATOM     19  C   UNL     1       2.085   2.363  20.298  0.00  0.00    +0.000 C 
ATOM     20  C   UNL     1       1.421   2.742  21.598  0.00  0.00    +0.000 C 
ATOM     21  C   UNL     1       1.043   3.460  20.334  0.00  0.00    +0.000 C 
ENDBRANCH  18  19
ENDBRANCH  17  18
ENDBRANCH  14  17
ENDBRANCH   1  15
BRANCH   1  22
ATOM     22  C   UNL     1       4.814   6.390  17.367  0.00  0.00    +0.000 C 
BRANCH  22  23
ATOM     23  C   UNL     1       3.590   7.246  17.016  0.00  0.00    +0.000 C 
BRANCH  23  24
ATOM     24  C   UNL     1       2.777   7.583  18.246  0.00  0.00    +0.000 A 
ATOM     25  C   UNL     1       2.705   6.682  19.318  0.00  0.00    +0.000 A 
ATOM     26  C   UNL     1       1.948   6.986  20.452  0.00  0.00    +0.000 A 
ATOM     27  C   UNL     1       1.251   8.189  20.529  0.00  0.00    +0.000 A 
ATOM     28  C   UNL     1       1.305   9.090  19.467  0.00  0.00    +0.000 A 
ATOM     29  C   UNL     1       2.062   8.787  18.330  0.00  0.00    +0.000 A 
ENDBRANCH  23  24
ENDBRANCH  22  23
ENDBRANCH   1  22
TORSDOF 8
ENDMDL
MODEL 5
REMARK VINA RESULT:      -7.1      4.026      8.217
REMARK  Name = 
REMARK  8 active torsions:
REMARK  status: ('A' for Active; 'I' for Inactive)
REMARK    1  A    between atoms: C_2  and  O_24
REMARK    2  A    between atoms: N_3  and  C_4
REMARK    3  A    between atoms: C_4  and  C_5
REMARK    4  A    between atoms: C_4  and  C_13
REMARK    5  A    between atoms: C_5  and  C_6
REMARK    6  A    between atoms: C_6  and  C_7
REMARK    7  A    between atoms: O_24  and  C_25
REMARK    8  A    between atoms: C_25  and  C_26
REMARK                            x       y       z     vdW  Elec       q    Type
REMARK                         _______ _______ _______ _____ _____    ______ ____
ROOT
ATOM      1  C   UNL     1       6.190   5.458  17.674  0.00  0.00    +0.000 C 
ENDROOT
BRANCH   1   2
ATOM      2  C   UNL     1       5.198   4.898  18.718  0.00  0.00    +0.000 C 
ATOM      3  O   UNL     1       5.419   3.817  19.273  0.00  0.00    +0.000 OA
ATOM      4  N   UNL     1       4.054   5.619  18.999  0.00  0.00    +0.000 N 
ATOM      5  C   UNL     1       3.197   5.239  20.120  0.00  0.00    +0.000 C 
ATOM      6  C   UNL     1       2.015   6.204  20.080  0.00  0.00    +0.000 C 
ATOM      7  O   UNL     1       2.158   7.270  21.035  0.00  0.00    +0.000 OA
ATOM      8  N   UNL     1       1.664   8.455  20.424  0.00  0.00    +0.000 NA
ATOM      9  C   UNL     1       1.641   8.224  19.153  0.00  0.00    +0.000 C 
ATOM     10 BR   UNL     1       1.061   9.518  17.965  0.00  0.00    +0.000 Br
ATOM     11  C   UNL     1       2.113   6.892  18.736  0.00  0.00    +0.000 C 
ATOM     12  C   UNL     1       3.597   6.869  18.415  0.00  0.00    +0.000 C 
ENDBRANCH   1   2
BRANCH   1  15
ATOM     13  O   UNL     1       7.065   8.018  16.794  0.00  0.00    +0.000 OA
ATOM     14  C   UNL     1       7.512   7.547  17.829  0.00  0.00    +0.000 C 
ATOM     15  N   UNL     1       7.129   6.351  18.353  0.00  0.00    +0.000 N 
ATOM     16  H   UNL     1       7.588   6.030  19.197  0.00  0.00    +0.000 HD
BRANCH  14  17
ATOM     17  O   UNL     1       8.494   8.097  18.585  0.00  0.00    +0.000 OA
BRANCH  17  18
ATOM     18  C   UNL     1       8.621   9.525  18.490  0.00  0.00    +0.000 C 
BRANCH  18  19
ATOM     19  C   UNL     1       9.681  10.051  19.410  0.00  0.00    +0.000 C 
ATOM     20  C   UNL     1      10.170  11.477  19.369  0.00  0.00    +0.000 C 
ATOM     21  C   UNL     1       9.286  11.027  20.496  0.00  0.00    +0.000 C 
ENDBRANCH  18  19
ENDBRANCH  17  18
ENDBRANCH  14  17
ENDBRANCH   1  15
BRANCH   1  22
ATOM     22  C   UNL     1       6.919   4.367  16.868  0.00  0.00    +0.000 C 
BRANCH  22  23
ATOM     23  C   UNL     1       6.078   3.684  15.782  0.00  0.00    +0.000 C 
BRANCH  23  24
ATOM     24  C   UNL     1       6.546   4.066  14.395  0.00  0.00    +0.000 A 
ATOM     25  C   UNL     1       6.055   3.389  13.269  0.00  0.00    +0.000 A 
ATOM     26  C   UNL     1       6.491   3.733  11.988  0.00  0.00    +0.000 A 
ATOM     27  C   UNL     1       7.424   4.752  11.813  0.00  0.00    +0.000 A 
ATOM     28  C   UNL     1       7.928   5.427  12.924  0.00  0.00    +0.000 A 
ATOM     29  C   UNL     1       7.493   5.083  14.209  0.00  0.00    +0.000 A 
ENDBRANCH  23  24
ENDBRANCH  22  23
ENDBRANCH   1  22
TORSDOF 8
ENDMDL
MODEL 6
REMARK VINA RESULT:      -7.1      4.057      8.127
REMARK  Name = 
REMARK  8 active torsions:
REMARK  status: ('A' for Active; 'I' for Inactive)
REMARK    1  A    between atoms: C_2  and  O_24
REMARK    2  A    between atoms: N_3  and  C_4
REMARK    3  A    between atoms: C_4  and  C_5
REMARK    4  A    between atoms: C_4  and  C_13
REMARK    5  A    between atoms: C_5  and  C_6
REMARK    6  A    between atoms: C_6  and  C_7
REMARK    7  A    between atoms: O_24  and  C_25
REMARK    8  A    between atoms: C_25  and  C_26
REMARK                            x       y       z     vdW  Elec       q    Type
REMARK                         _______ _______ _______ _____ _____    ______ ____
ROOT
ATOM      1  C   UNL     1       2.619   6.786  18.497  0.00  0.00    +0.000 C 
ENDROOT
BRANCH   1   2
ATOM      2  C   UNL     1       2.158   7.111  19.935  0.00  0.00    +0.000 C 
ATOM      3  O   UNL     1       2.363   6.311  20.854  0.00  0.00    +0.000 OA
ATOM      4  N   UNL     1       1.495   8.300  20.166  0.00  0.00    +0.000 N 
ATOM      5  C   UNL     1       1.227   8.745  21.532  0.00  0.00    +0.000 C 
ATOM      6  C   UNL     1       0.433  10.041  21.394  0.00  0.00    +0.000 C 
ATOM      7  O   UNL     1       1.261  11.202  21.578  0.00  0.00    +0.000 OA
ATOM      8  N   UNL     1       0.822  12.186  20.649  0.00  0.00    +0.000 NA
ATOM      9  C   UNL     1       0.134  11.558  19.755  0.00  0.00    +0.000 C 
ATOM     10 BR   UNL     1      -0.632  12.467  18.338  0.00  0.00    +0.000 Br
ATOM     11  C   UNL     1       0.023  10.100  19.939  0.00  0.00    +0.000 C 
ATOM     12  C   UNL     1       1.115   9.332  19.215  0.00  0.00    +0.000 C 
ENDBRANCH   1   2
BRANCH   1  15
ATOM     13  O   UNL     1       4.564   7.146  16.452  0.00  0.00    +0.000 OA
ATOM     14  C   UNL     1       4.870   6.572  17.486  0.00  0.00    +0.000 C 
ATOM     15  N   UNL     1       4.025   6.384  18.536  0.00  0.00    +0.000 N 
ATOM     16  H   UNL     1       4.364   5.861  19.335  0.00  0.00    +0.000 HD
BRANCH  14  17
ATOM     17  O   UNL     1       6.064   5.978  17.734  0.00  0.00    +0.000 OA
BRANCH  17  18
ATOM     18  C   UNL     1       6.971   5.926  16.620  0.00  0.00    +0.000 C 
BRANCH  18  19
ATOM     19  C   UNL     1       7.016   4.560  16.005  0.00  0.00    +0.000 C 
ATOM     20  C   UNL     1       5.777   3.754  15.707  0.00  0.00    +0.000 C 
ATOM     21  C   UNL     1       6.540   4.387  14.579  0.00  0.00    +0.000 C 
ENDBRANCH  18  19
ENDBRANCH  17  18
ENDBRANCH  14  17
ENDBRANCH   1  15
BRANCH   1  22
ATOM     22  C   UNL     1       1.744   5.733  17.791  0.00  0.00    +0.000 C 
BRANCH  22  23
ATOM     23  C   UNL     1       2.338   4.320  17.738  0.00  0.00    +0.000 C 
BRANCH  23  24
ATOM     24  C   UNL     1       2.268   3.637  19.086  0.00  0.00    +0.000 A 
ATOM     25  C   UNL     1       1.043   3.511  19.755  0.00  0.00    +0.000 A 
ATOM     26  C   UNL     1       0.975   2.889  21.003  0.00  0.00    +0.000 A 
ATOM     27  C   UNL     1       2.129   2.388  21.601  0.00  0.00    +0.000 A 
ATOM     28  C   UNL     1       3.356   2.514  20.952  0.00  0.00    +0.000 A 
ATOM     29  C   UNL     1       3.426   3.138  19.702  0.00  0.00    +0.000 A 
ENDBRANCH  23  24
ENDBRANCH  22  23
ENDBRANCH   1  22
TORSDOF 8
ENDMDL
MODEL 7
REMARK VINA RESULT:      -6.8      4.788      7.440
REMARK  Name = 
REMARK  8 active torsions:
REMARK  status: ('A' for Active; 'I' for Inactive)
REMARK    1  A    between atoms: C_2  and  O_24
REMARK    2  A    between atoms: N_3  and  C_4
REMARK    3  A    between atoms: C_4  and  C_5
REMARK    4  A    between atoms: C_4  and  C_13
REMARK    5  A    between atoms: C_5  and  C_6
REMARK    6  A    between atoms: C_6  and  C_7
REMARK    7  A    between atoms: O_24  and  C_25
REMARK    8  A    between atoms: C_25  and  C_26
REMARK                            x       y       z     vdW  Elec       q    Type
REMARK                         _______ _______ _______ _____ _____    ______ ____
ROOT
ATOM      1  C   UNL     1       0.610   9.200  18.790  0.00  0.00    +0.000 C 
ENDROOT
BRANCH   1   2
ATOM      2  C   UNL     1       1.974   9.003  18.092  0.00  0.00    +0.000 C 
ATOM      3  O   UNL     1       2.535   9.954  17.535  0.00  0.00    +0.000 OA
ATOM      4  N   UNL     1       2.541   7.744  18.085  0.00  0.00    +0.000 N 
ATOM      5  C   UNL     1       3.914   7.552  17.625  0.00  0.00    +0.000 C 
ATOM      6  C   UNL     1       4.166   6.049  17.695  0.00  0.00    +0.000 C 
ATOM      7  O   UNL     1       4.906   5.681  18.872  0.00  0.00    +0.000 OA
ATOM      8  N   UNL     1       4.371   4.449  19.339  0.00  0.00    +0.000 NA
ATOM      9  C   UNL     1       3.211   4.324  18.787  0.00  0.00    +0.000 C 
ATOM     10 BR   UNL     1       2.153   2.845  19.127  0.00  0.00    +0.000 Br
ATOM     11  C   UNL     1       2.801   5.429  17.902  0.00  0.00    +0.000 C 
ATOM     12  C   UNL     1       2.014   6.504  18.631  0.00  0.00    +0.000 C 
ENDBRANCH   1   2
BRANCH   1  15
ATOM     13  O   UNL     1       0.191   8.128  21.392  0.00  0.00    +0.000 OA
ATOM     14  C   UNL     1       0.568   9.284  21.266  0.00  0.00    +0.000 C 
ATOM     15  N   UNL     1       0.833   9.876  20.069  0.00  0.00    +0.000 N 
ATOM     16  H   UNL     1       1.103  10.851  20.068  0.00  0.00    +0.000 HD
BRANCH  14  17
ATOM     17  O   UNL     1       0.721  10.177  22.274  0.00  0.00    +0.000 OA
BRANCH  17  18
ATOM     18  C   UNL     1      -0.459  10.442  23.051  0.00  0.00    +0.000 C 
BRANCH  18  19
ATOM     19  C   UNL     1      -1.305  11.511  22.428  0.00  0.00    +0.000 C 
ATOM     20  C   UNL     1      -2.570  12.029  23.064  0.00  0.00    +0.000 C 
ATOM     21  C   UNL     1      -1.334  12.882  23.066  0.00  0.00    +0.000 C 
ENDBRANCH  18  19
ENDBRANCH  17  18
ENDBRANCH  14  17
ENDBRANCH   1  15
BRANCH   1  22
ATOM     22  C   UNL     1      -0.425   9.942  17.925  0.00  0.00    +0.000 C 
BRANCH  22  23
ATOM     23  C   UNL     1      -0.983  11.233  18.537  0.00  0.00    +0.000 C 
BRANCH  23  24
ATOM     24  C   UNL     1      -2.450  11.413  18.214  0.00  0.00    +0.000 A 
ATOM     25  C   UNL     1      -2.938  11.107  16.936  0.00  0.00    +0.000 A 
ATOM     26  C   UNL     1      -4.289  11.280  16.631  0.00  0.00    +0.000 A 
ATOM     27  C   UNL     1      -5.171  11.762  17.596  0.00  0.00    +0.000 A 
ATOM     28  C   UNL     1      -4.698  12.079  18.869  0.00  0.00    +0.000 A 
ATOM     29  C   UNL     1      -3.344  11.908  19.175  0.00  0.00    +0.000 A 
ENDBRANCH  23  24
ENDBRANCH  22  23
ENDBRANCH   1  22
TORSDOF 8
ENDMDL
MODEL 8
REMARK VINA RESULT:      -6.8      3.434      7.998
REMARK  Name = 
REMARK  8 active torsions:
REMARK  status: ('A' for Active; 'I' for Inactive)
REMARK    1  A    between atoms: C_2  and  O_24
REMARK    2  A    between atoms: N_3  and  C_4
REMARK    3  A    between atoms: C_4  and  C_5
REMARK    4  A    between atoms: C_4  and  C_13
REMARK    5  A    between atoms: C_5  and  C_6
REMARK    6  A    between atoms: C_6  and  C_7
REMARK    7  A    between atoms: O_24  and  C_25
REMARK    8  A    between atoms: C_25  and  C_26
REMARK                            x       y       z     vdW  Elec       q    Type
REMARK                         _______ _______ _______ _____ _____    ______ ____
ROOT
ATOM      1  C   UNL     1       6.065   5.596  15.693  0.00  0.00    +0.000 C 
ENDROOT
BRANCH   1   2
ATOM      2  C   UNL     1       5.055   4.762  16.512  0.00  0.00    +0.000 C 
ATOM      3  O   UNL     1       5.133   3.529  16.532  0.00  0.00    +0.000 OA
ATOM      4  N   UNL     1       4.054   5.420  17.199  0.00  0.00    +0.000 N 
ATOM      5  C   UNL     1       3.209   4.698  18.148  0.00  0.00    +0.000 C 
ATOM      6  C   UNL     1       2.193   5.718  18.653  0.00  0.00    +0.000 C 
ATOM      7  O   UNL     1       2.551   6.241  19.944  0.00  0.00    +0.000 OA
ATOM      8  N   UNL     1       2.218   7.624  19.948  0.00  0.00    +0.000 NA
ATOM      9  C   UNL     1       2.090   7.969  18.710  0.00  0.00    +0.000 C 
ATOM     10 BR   UNL     1       1.658   9.708  18.251  0.00  0.00    +0.000 Br
ATOM     11  C   UNL     1       2.326   6.903  17.721  0.00  0.00    +0.000 C 
ATOM     12  C   UNL     1       3.769   6.845  17.251  0.00  0.00    +0.000 C 
ENDBRANCH   1   2
BRANCH   1  15
ATOM     13  O   UNL     1       7.873   4.906  17.779  0.00  0.00    +0.000 OA
ATOM     14  C   UNL     1       7.581   6.077  17.592  0.00  0.00    +0.000 C 
ATOM     15  N   UNL     1       6.758   6.512  16.599  0.00  0.00    +0.000 N 
ATOM     16  H   UNL     1       6.548   7.502  16.552  0.00  0.00    +0.000 HD
BRANCH  14  17
ATOM     17  O   UNL     1       7.970   7.119  18.368  0.00  0.00    +0.000 OA
BRANCH  17  18
ATOM     18  C   UNL     1       7.716   8.425  17.822  0.00  0.00    +0.000 C 
BRANCH  18  19
ATOM     19  C   UNL     1       8.895   9.335  17.990  0.00  0.00    +0.000 C 
ATOM     20  C   UNL     1       8.768  10.837  18.056  0.00  0.00    +0.000 C 
ATOM     21  C   UNL     1       9.073  10.061  19.306  0.00  0.00    +0.000 C 
ENDBRANCH  18  19
ENDBRANCH  17  18
ENDBRANCH  14  17
ENDBRANCH   1  15
BRANCH   1  22
ATOM     22  C   UNL     1       7.055   4.741  14.879  0.00  0.00    +0.000 C 
BRANCH  22  23
ATOM     23  C   UNL     1       7.091   5.041  13.375  0.00  0.00    +0.000 C 
BRANCH  23  24
ATOM     24  C   UNL     1       6.554   3.881  12.565  0.00  0.00    +0.000 A 
ATOM     25  C   UNL     1       7.432   2.972  11.958  0.00  0.00    +0.000 A 
ATOM     26  C   UNL     1       6.941   1.905  11.203  0.00  0.00    +0.000 A 
ATOM     27  C   UNL     1       5.568   1.735  11.039  0.00  0.00    +0.000 A 
ATOM     28  C   UNL     1       4.683   2.636  11.628  0.00  0.00    +0.000 A 
ATOM     29  C   UNL     1       5.174   3.706  12.385  0.00  0.00    +0.000 A 
ENDBRANCH  23  24
ENDBRANCH  22  23
ENDBRANCH   1  22
TORSDOF 8
ENDMDL
MODEL 9
REMARK VINA RESULT:      -6.7      4.407      8.322
REMARK  Name = 
REMARK  8 active torsions:
REMARK  status: ('A' for Active; 'I' for Inactive)
REMARK    1  A    between atoms: C_2  and  O_24
REMARK    2  A    between atoms: N_3  and  C_4
REMARK    3  A    between atoms: C_4  and  C_5
REMARK    4  A    between atoms: C_4  and  C_13
REMARK    5  A    between atoms: C_5  and  C_6
REMARK    6  A    between atoms: C_6  and  C_7
REMARK    7  A    between atoms: O_24  and  C_25
REMARK    8  A    between atoms: C_25  and  C_26
REMARK                            x       y       z     vdW  Elec       q    Type
REMARK                         _______ _______ _______ _____ _____    ______ ____
ROOT
ATOM      1  C   UNL     1       1.574   7.161  20.183  0.00  0.00    +0.000 C 
ENDROOT
BRANCH   1   2
ATOM      2  C   UNL     1       1.351   8.426  21.041  0.00  0.00    +0.000 C 
ATOM      3  O   UNL     1       1.839   8.508  22.173  0.00  0.00    +0.000 OA
ATOM      4  N   UNL     1       0.579   9.449  20.527  0.00  0.00    +0.000 N 
ATOM      5  C   UNL     1       0.513  10.740  21.207  0.00  0.00    +0.000 C 
ATOM      6  C   UNL     1      -0.471  11.582  20.399  0.00  0.00    +0.000 C 
ATOM      7  O   UNL     1       0.202  12.501  19.521  0.00  0.00    +0.000 OA
ATOM      8  N   UNL     1      -0.541  12.550  18.310  0.00  0.00    +0.000 NA
ATOM      9  C   UNL     1      -1.289  11.496  18.301  0.00  0.00    +0.000 C 
ATOM     10 BR   UNL     1      -2.431  11.157  16.886  0.00  0.00    +0.000 Br
ATOM     11  C   UNL     1      -1.152  10.604  19.466  0.00  0.00    +0.000 C 
ATOM     12  C   UNL     1      -0.117   9.513  19.253  0.00  0.00    +0.000 C 
ENDBRANCH   1   2
BRANCH   1  15
ATOM     13  O   UNL     1       1.903   6.525  17.429  0.00  0.00    +0.000 OA
ATOM     14  C   UNL     1       2.843   6.982  18.063  0.00  0.00    +0.000 C 
ATOM     15  N   UNL     1       2.776   7.353  19.371  0.00  0.00    +0.000 N 
ATOM     16  H   UNL     1       3.622   7.685  19.817  0.00  0.00    +0.000 HD
BRANCH  14  17
ATOM     17  O   UNL     1       4.107   7.135  17.597  0.00  0.00    +0.000 OA
BRANCH  17  18
ATOM     18  C   UNL     1       4.987   6.020  17.818  0.00  0.00    +0.000 C 
BRANCH  18  19
ATOM     19  C   UNL     1       4.926   5.033  16.691  0.00  0.00    +0.000 C 
ATOM     20  C   UNL     1       5.497   5.313  15.324  0.00  0.00    +0.000 C 
ATOM     21  C   UNL     1       6.204   4.359  16.243  0.00  0.00    +0.000 C 
ENDBRANCH  18  19
ENDBRANCH  17  18
ENDBRANCH  14  17
ENDBRANCH   1  15
BRANCH   1  22
ATOM     22  C   UNL     1       1.643   5.860  21.005  0.00  0.00    +0.000 C 
BRANCH  22  23
ATOM     23  C   UNL     1       0.912   4.660  20.390  0.00  0.00    +0.000 C 
BRANCH  23  24
ATOM     24  C   UNL     1       1.866   3.753  19.644  0.00  0.00    +0.000 A 
ATOM     25  C   UNL     1       1.485   3.169  18.427  0.00  0.00    +0.000 A 
ATOM     26  C   UNL     1       2.358   2.325  17.740  0.00  0.00    +0.000 A 
ATOM     27  C   UNL     1       3.622   2.049  18.258  0.00  0.00    +0.000 A 
ATOM     28  C   UNL     1       4.011   2.615  19.471  0.00  0.00    +0.000 A 
ATOM     29  C   UNL     1       3.136   3.460  20.162  0.00  0.00    +0.000 A 
ENDBRANCH  23  24
ENDBRANCH  22  23
ENDBRANCH   1  22
TORSDOF 8
ENDMDL
