MODEL 1
REMARK VINA RESULT:      -8.7      0.000      0.000
REMARK  Name = 
REMARK  4 active torsions:
REMARK  status: ('A' for Active; 'I' for Inactive)
REMARK    1  A    between atoms: C_5  and  N_6
REMARK    2  A    between atoms: N_6  and  C_7
REMARK    3  A    between atoms: C_10  and  O_11
REMARK    4  A    between atoms: O_11  and  C_12
REMARK                            x       y       z     vdW  Elec       q    Type
REMARK                         _______ _______ _______ _____ _____    ______ ____
ROOT
ATOM      1  O   UNL     1      -0.151   9.329  22.108  0.00  0.00    +0.000 OA
ATOM      2  C   UNL     1       0.083   9.976  21.094  0.00  0.00    +0.000 A 
ATOM      3  C   UNL     1       0.941   9.353  20.055  0.00  0.00    +0.000 A 
ATOM      4  C   UNL     1       1.473   8.071  20.252  0.00  0.00    +0.000 A 
ATOM      5  C   UNL     1       2.269   7.481  19.270  0.00  0.00    +0.000 A 
ATOM      6  C   UNL     1       2.512   8.207  18.090  0.00  0.00    +0.000 A 
ATOM      7  C   UNL     1       1.973   9.474  17.887  0.00  0.00    +0.000 A 
ATOM      8  C   UNL     1       1.193  10.067  18.877  0.00  0.00    +0.000 A 
ATOM      9  N   UNL     1       0.615  11.319  18.667  0.00  0.00    +0.000 N 
ATOM     10  C   UNL     1      -0.129  11.989  19.653  0.00  0.00    +0.000 A 
ATOM     11  C   UNL     1      -0.599  13.280  19.388  0.00  0.00    +0.000 A 
ATOM     12  C   UNL     1      -1.369  13.950  20.333  0.00  0.00    +0.000 A 
ATOM     13 CL   UNL     1      -1.926  15.542  20.001  0.00  0.00    +0.000 Cl
ATOM     14  C   UNL     1      -1.684  13.343  21.541  0.00  0.00    +0.000 A 
ATOM     15  C   UNL     1      -1.233  12.050  21.818  0.00  0.00    +0.000 A 
ATOM     16 CL   UNL     1      -1.696  11.408  23.358  0.00  0.00    +0.000 Cl
ATOM     17  C   UNL     1      -0.449  11.358  20.874  0.00  0.00    +0.000 A 
ATOM     18  H   UNL     1       0.956  11.859  17.884  0.00  0.00    +0.000 HD
ENDROOT
BRANCH   5  19
ATOM     19  N   UNL     1       2.713   6.155  19.432  0.00  0.00    +0.000 N 
ATOM     20  H   UNL     1       2.437   5.699  20.293  0.00  0.00    +0.000 HD
BRANCH  19  21
ATOM     21  C   UNL     1       3.519   5.389  18.573  0.00  0.00    +0.000 A 
ATOM     22  C   UNL     1       4.881   5.660  18.461  0.00  0.00    +0.000 A 
ATOM     23  C   UNL     1       5.659   4.990  17.503  0.00  0.00    +0.000 A 
ATOM     24  C   UNL     1       5.087   4.041  16.648  0.00  0.00    +0.000 A 
ATOM     25  C   UNL     1       3.726   3.780  16.745  0.00  0.00    +0.000 A 
ATOM     26  C   UNL     1       2.962   4.430  17.717  0.00  0.00    +0.000 A 
BRANCH  24  27
ATOM     27  O   UNL     1       5.951   3.485  15.757  0.00  0.00    +0.000 OA
BRANCH  27  28
ATOM     28  C   UNL     1       6.289   4.187  14.570  0.00  0.00    +0.000 C 
ATOM     29  F   UNL     1       7.483   4.812  14.615  0.00  0.00    +0.000 F 
ATOM     30  F   UNL     1       6.277   3.337  13.521  0.00  0.00    +0.000 F 
ATOM     31  F   UNL     1       5.343   5.131  14.356  0.00  0.00    +0.000 F 
ENDBRANCH  27  28
ENDBRANCH  24  27
ENDBRANCH  19  21
ENDBRANCH   5  19
TORSDOF 4
ENDMDL
MODEL 2
REMARK VINA RESULT:      -8.4      2.424      3.911
REMARK  Name = 
REMARK  4 active torsions:
REMARK  status: ('A' for Active; 'I' for Inactive)
REMARK    1  A    between atoms: C_5  and  N_6
REMARK    2  A    between atoms: N_6  and  C_7
REMARK    3  A    between atoms: C_10  and  O_11
REMARK    4  A    between atoms: O_11  and  C_12
REMARK                            x       y       z     vdW  Elec       q    Type
REMARK                         _______ _______ _______ _____ _____    ______ ____
ROOT
ATOM      1  O   UNL     1       2.638   8.422  17.876  0.00  0.00    +0.000 OA
ATOM      2  C   UNL     1       2.187   7.984  18.928  0.00  0.00    +0.000 A 
ATOM      3  C   UNL     1       2.426   6.553  19.245  0.00  0.00    +0.000 A 
ATOM      4  C   UNL     1       3.131   5.738  18.348  0.00  0.00    +0.000 A 
ATOM      5  C   UNL     1       3.366   4.397  18.652  0.00  0.00    +0.000 A 
ATOM      6  C   UNL     1       2.879   3.899  19.873  0.00  0.00    +0.000 A 
ATOM      7  C   UNL     1       2.189   4.710  20.771  0.00  0.00    +0.000 A 
ATOM      8  C   UNL     1       1.942   6.045  20.456  0.00  0.00    +0.000 A 
ATOM      9  N   UNL     1       1.288   6.876  21.366  0.00  0.00    +0.000 N 
ATOM     10  C   UNL     1       0.959   8.211  21.077  0.00  0.00    +0.000 A 
ATOM     11  C   UNL     1       0.226   8.948  22.013  0.00  0.00    +0.000 A 
ATOM     12  C   UNL     1      -0.081  10.281  21.766  0.00  0.00    +0.000 A 
ATOM     13 CL   UNL     1      -0.998  11.170  22.918  0.00  0.00    +0.000 Cl
ATOM     14  C   UNL     1       0.344  10.896  20.596  0.00  0.00    +0.000 A 
ATOM     15  C   UNL     1       1.088  10.179  19.655  0.00  0.00    +0.000 A 
ATOM     16 CL   UNL     1       1.557  11.061  18.241  0.00  0.00    +0.000 Cl
ATOM     17  C   UNL     1       1.404   8.826  19.887  0.00  0.00    +0.000 A 
ATOM     18  H   UNL     1       0.819   6.431  22.142  0.00  0.00    +0.000 HD
ENDROOT
BRANCH   5  19
ATOM     19  N   UNL     1       4.163   3.614  17.796  0.00  0.00    +0.000 N 
ATOM     20  H   UNL     1       4.045   2.611  17.876  0.00  0.00    +0.000 HD
BRANCH  19  21
ATOM     21  C   UNL     1       5.129   4.037  16.867  0.00  0.00    +0.000 A 
ATOM     22  C   UNL     1       6.417   4.358  17.291  0.00  0.00    +0.000 A 
ATOM     23  C   UNL     1       7.340   4.912  16.391  0.00  0.00    +0.000 A 
ATOM     24  C   UNL     1       6.990   5.150  15.057  0.00  0.00    +0.000 A 
ATOM     25  C   UNL     1       5.702   4.847  14.634  0.00  0.00    +0.000 A 
ATOM     26  C   UNL     1       4.795   4.272  15.527  0.00  0.00    +0.000 A 
BRANCH  24  27
ATOM     27  O   UNL     1       7.974   5.709  14.302  0.00  0.00    +0.000 OA
BRANCH  27  28
ATOM     28  C   UNL     1       8.133   5.315  12.946  0.00  0.00    +0.000 C 
ATOM     29  F   UNL     1       7.329   4.302  12.564  0.00  0.00    +0.000 F 
ATOM     30  F   UNL     1       7.919   6.374  12.138  0.00  0.00    +0.000 F 
ATOM     31  F   UNL     1       9.412   4.907  12.775  0.00  0.00    +0.000 F 
ENDBRANCH  27  28
ENDBRANCH  24  27
ENDBRANCH  19  21
ENDBRANCH   5  19
TORSDOF 4
ENDMDL
MODEL 3
REMARK VINA RESULT:      -8.3      5.971      9.916
REMARK  Name = 
REMARK  4 active torsions:
REMARK  status: ('A' for Active; 'I' for Inactive)
REMARK    1  A    between atoms: C_5  and  N_6
REMARK    2  A    between atoms: N_6  and  C_7
REMARK    3  A    between atoms: C_10  and  O_11
REMARK    4  A    between atoms: O_11  and  C_12
REMARK                            x       y       z     vdW  Elec       q    Type
REMARK                         _______ _______ _______ _____ _____    ______ ____
ROOT
ATOM      1  O   UNL     1       3.135   7.751  17.146  0.00  0.00    +0.000 OA
ATOM      2  C   UNL     1       2.852   7.234  18.220  0.00  0.00    +0.000 A 
ATOM      3  C   UNL     1       1.985   7.998  19.152  0.00  0.00    +0.000 A 
ATOM      4  C   UNL     1       1.529   9.277  18.806  0.00  0.00    +0.000 A 
ATOM      5  C   UNL     1       0.704   9.990  19.678  0.00  0.00    +0.000 A 
ATOM      6  C   UNL     1       0.350   9.386  20.897  0.00  0.00    +0.000 A 
ATOM      7  C   UNL     1       0.792   8.109  21.236  0.00  0.00    +0.000 A 
ATOM      8  C   UNL     1       1.629   7.409  20.371  0.00  0.00    +0.000 A 
ATOM      9  N   UNL     1       2.044   6.114  20.683  0.00  0.00    +0.000 N 
ATOM     10  C   UNL     1       2.936   5.385  19.879  0.00  0.00    +0.000 A 
ATOM     11  C   UNL     1       3.368   4.127  20.311  0.00  0.00    +0.000 A 
ATOM     12  C   UNL     1       4.222   3.371  19.516  0.00  0.00    +0.000 A 
ATOM     13 CL   UNL     1       4.758   1.833  20.067  0.00  0.00    +0.000 Cl
ATOM     14  C   UNL     1       4.645   3.851  18.284  0.00  0.00    +0.000 A 
ATOM     15  C   UNL     1       4.214   5.102  17.831  0.00  0.00    +0.000 A 
ATOM     16 CL   UNL     1       4.814   5.583  16.280  0.00  0.00    +0.000 Cl
ATOM     17  C   UNL     1       3.352   5.882  18.625  0.00  0.00    +0.000 A 
ATOM     18  H   UNL     1       1.901   5.800  21.633  0.00  0.00    +0.000 HD
ENDROOT
BRANCH   5  19
ATOM     19  N   UNL     1       0.167  11.228  19.278  0.00  0.00    +0.000 N 
ATOM     20  H   UNL     1       0.817  12.004  19.253  0.00  0.00    +0.000 HD
BRANCH  19  21
ATOM     21  C   UNL     1      -1.161  11.540  18.941  0.00  0.00    +0.000 A 
ATOM     22  C   UNL     1      -1.994  12.160  19.869  0.00  0.00    +0.000 A 
ATOM     23  C   UNL     1      -3.356  12.346  19.585  0.00  0.00    +0.000 A 
ATOM     24  C   UNL     1      -3.902  11.918  18.370  0.00  0.00    +0.000 A 
ATOM     25  C   UNL     1      -3.079  11.284  17.447  0.00  0.00    +0.000 A 
ATOM     26  C   UNL     1      -1.719  11.124  17.725  0.00  0.00    +0.000 A 
BRANCH  24  27
ATOM     27  O   UNL     1      -5.236  12.143  18.235  0.00  0.00    +0.000 OA
BRANCH  27  28
ATOM     28  C   UNL     1      -6.166  11.192  18.735  0.00  0.00    +0.000 C 
ATOM     29  F   UNL     1      -6.507  11.374  20.027  0.00  0.00    +0.000 F 
ATOM     30  F   UNL     1      -7.284  11.211  17.979  0.00  0.00    +0.000 F 
ATOM     31  F   UNL     1      -5.608   9.964  18.630  0.00  0.00    +0.000 F 
ENDBRANCH  27  28
ENDBRANCH  24  27
ENDBRANCH  19  21
ENDBRANCH   5  19
TORSDOF 4
ENDMDL
MODEL 4
REMARK VINA RESULT:      -8.3      0.698      1.061
REMARK  Name = 
REMARK  4 active torsions:
REMARK  status: ('A' for Active; 'I' for Inactive)
REMARK    1  A    between atoms: C_5  and  N_6
REMARK    2  A    between atoms: N_6  and  C_7
REMARK    3  A    between atoms: C_10  and  O_11
REMARK    4  A    between atoms: O_11  and  C_12
REMARK                            x       y       z     vdW  Elec       q    Type
REMARK                         _______ _______ _______ _____ _____    ______ ____
ROOT
ATOM      1  O   UNL     1      -0.012   9.096  21.935  0.00  0.00    +0.000 OA
ATOM      2  C   UNL     1       0.121   9.852  20.980  0.00  0.00    +0.000 A 
ATOM      3  C   UNL     1       0.960   9.396  19.843  0.00  0.00    +0.000 A 
ATOM      4  C   UNL     1       1.590   8.145  19.886  0.00  0.00    +0.000 A 
ATOM      5  C   UNL     1       2.369   7.712  18.812  0.00  0.00    +0.000 A 
ATOM      6  C   UNL     1       2.496   8.563  17.701  0.00  0.00    +0.000 A 
ATOM      7  C   UNL     1       1.860   9.801  17.651  0.00  0.00    +0.000 A 
ATOM      8  C   UNL     1       1.097  10.237  18.732  0.00  0.00    +0.000 A 
ATOM      9  N   UNL     1       0.423  11.457  18.676  0.00  0.00    +0.000 N 
ATOM     10  C   UNL     1      -0.309  11.973  19.758  0.00  0.00    +0.000 A 
ATOM     11  C   UNL     1      -0.881  13.245  19.646  0.00  0.00    +0.000 A 
ATOM     12  C   UNL     1      -1.641  13.762  20.689  0.00  0.00    +0.000 A 
ATOM     13 CL   UNL     1      -2.325  15.334  20.545  0.00  0.00    +0.000 Cl
ATOM     14  C   UNL     1      -1.847  13.021  21.845  0.00  0.00    +0.000 A 
ATOM     15  C   UNL     1      -1.292  11.744  21.969  0.00  0.00    +0.000 A 
ATOM     16 CL   UNL     1      -1.624  10.926  23.459  0.00  0.00    +0.000 Cl
ATOM     17  C   UNL     1      -0.517  11.206  20.924  0.00  0.00    +0.000 A 
ATOM     18  H   UNL     1       0.683  12.093  17.935  0.00  0.00    +0.000 HD
ENDROOT
BRANCH   5  19
ATOM     19  N   UNL     1       2.911   6.413  18.820  0.00  0.00    +0.000 N 
ATOM     20  H   UNL     1       2.760   5.876  19.666  0.00  0.00    +0.000 HD
BRANCH  19  21
ATOM     21  C   UNL     1       3.666   5.772  17.824  0.00  0.00    +0.000 A 
ATOM     22  C   UNL     1       3.461   4.422  17.547  0.00  0.00    +0.000 A 
ATOM     23  C   UNL     1       4.307   3.747  16.653  0.00  0.00    +0.000 A 
ATOM     24  C   UNL     1       5.366   4.411  16.023  0.00  0.00    +0.000 A 
ATOM     25  C   UNL     1       5.585   5.753  16.309  0.00  0.00    +0.000 A 
ATOM     26  C   UNL     1       4.725   6.427  17.180  0.00  0.00    +0.000 A 
BRANCH  24  27
ATOM     27  O   UNL     1       6.116   3.632  15.199  0.00  0.00    +0.000 OA
BRANCH  27  28
ATOM     28  C   UNL     1       6.168   3.920  13.809  0.00  0.00    +0.000 C 
ATOM     29  F   UNL     1       7.039   4.895  13.476  0.00  0.00    +0.000 F 
ATOM     30  F   UNL     1       6.482   2.799  13.126  0.00  0.00    +0.000 F 
ATOM     31  F   UNL     1       4.937   4.322  13.417  0.00  0.00    +0.000 F 
ENDBRANCH  27  28
ENDBRANCH  24  27
ENDBRANCH  19  21
ENDBRANCH   5  19
TORSDOF 4
ENDMDL
MODEL 5
REMARK VINA RESULT:      -8.2      3.476      4.411
REMARK  Name = 
REMARK  4 active torsions:
REMARK  status: ('A' for Active; 'I' for Inactive)
REMARK    1  A    between atoms: C_5  and  N_6
REMARK    2  A    between atoms: N_6  and  C_7
REMARK    3  A    between atoms: C_10  and  O_11
REMARK    4  A    between atoms: O_11  and  C_12
REMARK                            x       y       z     vdW  Elec       q    Type
REMARK                         _______ _______ _______ _____ _____    ______ ____
ROOT
ATOM      1  O   UNL     1      -0.073  12.133  22.113  0.00  0.00    +0.000 OA
ATOM      2  C   UNL     1      -0.956  12.096  21.265  0.00  0.00    +0.000 A 
ATOM      3  C   UNL     1      -0.715  11.288  20.043  0.00  0.00    +0.000 A 
ATOM      4  C   UNL     1       0.500  10.610  19.873  0.00  0.00    +0.000 A 
ATOM      5  C   UNL     1       0.722   9.841  18.730  0.00  0.00    +0.000 A 
ATOM      6  C   UNL     1      -0.303   9.769  17.770  0.00  0.00    +0.000 A 
ATOM      7  C   UNL     1      -1.515  10.432  17.944  0.00  0.00    +0.000 A 
ATOM      8  C   UNL     1      -1.726  11.213  19.078  0.00  0.00    +0.000 A 
ATOM      9  N   UNL     1      -2.952  11.848  19.282  0.00  0.00    +0.000 N 
ATOM     10  C   UNL     1      -3.198  12.695  20.375  0.00  0.00    +0.000 A 
ATOM     11  C   UNL     1      -4.426  13.360  20.455  0.00  0.00    +0.000 A 
ATOM     12  C   UNL     1      -4.708  14.176  21.545  0.00  0.00    +0.000 A 
ATOM     13 CL   UNL     1      -6.215  15.001  21.623  0.00  0.00    +0.000 Cl
ATOM     14  C   UNL     1      -3.781  14.330  22.567  0.00  0.00    +0.000 A 
ATOM     15  C   UNL     1      -2.553  13.664  22.509  0.00  0.00    +0.000 A 
ATOM     16 CL   UNL     1      -1.487  13.941  23.845  0.00  0.00    +0.000 Cl
ATOM     17  C   UNL     1      -2.250  12.837  21.410  0.00  0.00    +0.000 A 
ATOM     18  H   UNL     1      -3.580  11.900  18.492  0.00  0.00    +0.000 HD
ENDROOT
BRANCH   5  19
ATOM     19  N   UNL     1       1.901   9.080  18.616  0.00  0.00    +0.000 N 
ATOM     20  H   UNL     1       2.673   9.532  18.139  0.00  0.00    +0.000 HD
BRANCH  19  21
ATOM     21  C   UNL     1       2.141   7.764  19.043  0.00  0.00    +0.000 A 
ATOM     22  C   UNL     1       2.631   6.813  18.150  0.00  0.00    +0.000 A 
ATOM     23  C   UNL     1       2.738   5.469  18.537  0.00  0.00    +0.000 A 
ATOM     24  C   UNL     1       2.360   5.057  19.820  0.00  0.00    +0.000 A 
ATOM     25  C   UNL     1       1.855   5.997  20.708  0.00  0.00    +0.000 A 
ATOM     26  C   UNL     1       1.774   7.339  20.327  0.00  0.00    +0.000 A 
BRANCH  24  27
ATOM     27  O   UNL     1       2.498   3.724  20.052  0.00  0.00    +0.000 OA
BRANCH  27  28
ATOM     28  C   UNL     1       1.343   2.907  20.181  0.00  0.00    +0.000 C 
ATOM     29  F   UNL     1       0.245   3.397  19.571  0.00  0.00    +0.000 F 
ATOM     30  F   UNL     1       1.603   1.675  19.695  0.00  0.00    +0.000 F 
ATOM     31  F   UNL     1       1.058   2.787  21.499  0.00  0.00    +0.000 F 
ENDBRANCH  27  28
ENDBRANCH  24  27
ENDBRANCH  19  21
ENDBRANCH   5  19
TORSDOF 4
ENDMDL
MODEL 6
REMARK VINA RESULT:      -8.1      1.439      1.999
REMARK  Name = 
REMARK  4 active torsions:
REMARK  status: ('A' for Active; 'I' for Inactive)
REMARK    1  A    between atoms: C_5  and  N_6
REMARK    2  A    between atoms: N_6  and  C_7
REMARK    3  A    between atoms: C_10  and  O_11
REMARK    4  A    between atoms: O_11  and  C_12
REMARK                            x       y       z     vdW  Elec       q    Type
REMARK                         _______ _______ _______ _____ _____    ______ ____
ROOT
ATOM      1  O   UNL     1       1.129   8.060  21.955  0.00  0.00    +0.000 OA
ATOM      2  C   UNL     1       0.949   8.823  21.013  0.00  0.00    +0.000 A 
ATOM      3  C   UNL     1       1.602   8.497  19.720  0.00  0.00    +0.000 A 
ATOM      4  C   UNL     1       2.411   7.359  19.603  0.00  0.00    +0.000 A 
ATOM      5  C   UNL     1       3.015   7.047  18.384  0.00  0.00    +0.000 A 
ATOM      6  C   UNL     1       2.784   7.902  17.293  0.00  0.00    +0.000 A 
ATOM      7  C   UNL     1       1.970   9.026  17.404  0.00  0.00    +0.000 A 
ATOM      8  C   UNL     1       1.383   9.344  18.627  0.00  0.00    +0.000 A 
ATOM      9  N   UNL     1       0.533  10.445  18.738  0.00  0.00    +0.000 N 
ATOM     10  C   UNL     1      -0.036  10.846  19.958  0.00  0.00    +0.000 A 
ATOM     11  C   UNL     1      -0.807  12.013  19.996  0.00  0.00    +0.000 A 
ATOM     12  C   UNL     1      -1.411  12.412  21.184  0.00  0.00    +0.000 A 
ATOM     13 CL   UNL     1      -2.341  13.857  21.221  0.00  0.00    +0.000 Cl
ATOM     14  C   UNL     1      -1.264  11.653  22.337  0.00  0.00    +0.000 A 
ATOM     15  C   UNL     1      -0.508  10.478  22.314  0.00  0.00    +0.000 A 
ATOM     16 CL   UNL     1      -0.404   9.625  23.818  0.00  0.00    +0.000 Cl
ATOM     17  C   UNL     1       0.114  10.061  21.122  0.00  0.00    +0.000 A 
ATOM     18  H   UNL     1       0.538  11.109  17.978  0.00  0.00    +0.000 HD
ENDROOT
BRANCH   5  19
ATOM     19  N   UNL     1       3.740   5.848  18.249  0.00  0.00    +0.000 N 
ATOM     20  H   UNL     1       3.861   5.307  19.098  0.00  0.00    +0.000 HD
BRANCH  19  21
ATOM     21  C   UNL     1       4.349   5.316  17.101  0.00  0.00    +0.000 A 
ATOM     22  C   UNL     1       4.359   3.939  16.884  0.00  0.00    +0.000 A 
ATOM     23  C   UNL     1       5.085   3.397  15.813  0.00  0.00    +0.000 A 
ATOM     24  C   UNL     1       5.808   4.221  14.943  0.00  0.00    +0.000 A 
ATOM     25  C   UNL     1       5.815   5.593  15.165  0.00  0.00    +0.000 A 
ATOM     26  C   UNL     1       5.070   6.130  16.217  0.00  0.00    +0.000 A 
BRANCH  24  27
ATOM     27  O   UNL     1       6.481   3.562  13.963  0.00  0.00    +0.000 OA
BRANCH  27  28
ATOM     28  C   UNL     1       5.947   3.516  12.647  0.00  0.00    +0.000 C 
ATOM     29  F   UNL     1       4.661   3.910  12.556  0.00  0.00    +0.000 F 
ATOM     30  F   UNL     1       6.700   4.279  11.826  0.00  0.00    +0.000 F 
ATOM     31  F   UNL     1       6.014   2.236  12.212  0.00  0.00    +0.000 F 
ENDBRANCH  27  28
ENDBRANCH  24  27
ENDBRANCH  19  21
ENDBRANCH   5  19
TORSDOF 4
ENDMDL
MODEL 7
REMARK VINA RESULT:      -8.0      6.086     10.037
REMARK  Name = 
REMARK  4 active torsions:
REMARK  status: ('A' for Active; 'I' for Inactive)
REMARK    1  A    between atoms: C_5  and  N_6
REMARK    2  A    between atoms: N_6  and  C_7
REMARK    3  A    between atoms: C_10  and  O_11
REMARK    4  A    between atoms: O_11  and  C_12
REMARK                            x       y       z     vdW  Elec       q    Type
REMARK                         _______ _______ _______ _____ _____    ______ ____
ROOT
ATOM      1  O   UNL     1       2.986   7.882  17.235  0.00  0.00    +0.000 OA
ATOM      2  C   UNL     1       2.726   7.336  18.301  0.00  0.00    +0.000 A 
ATOM      3  C   UNL     1       1.833   8.050  19.248  0.00  0.00    +0.000 A 
ATOM      4  C   UNL     1       1.328   9.317  18.925  0.00  0.00    +0.000 A 
ATOM      5  C   UNL     1       0.479   9.983  19.810  0.00  0.00    +0.000 A 
ATOM      6  C   UNL     1       0.151   9.345  21.020  0.00  0.00    +0.000 A 
ATOM      7  C   UNL     1       0.642   8.081  21.336  0.00  0.00    +0.000 A 
ATOM      8  C   UNL     1       1.503   7.427  20.458  0.00  0.00    +0.000 A 
ATOM      9  N   UNL     1       1.968   6.144  20.747  0.00  0.00    +0.000 N 
ATOM     10  C   UNL     1       2.884   5.464  19.928  0.00  0.00    +0.000 A 
ATOM     11  C   UNL     1       3.364   4.215  20.337  0.00  0.00    +0.000 A 
ATOM     12  C   UNL     1       4.244   3.506  19.527  0.00  0.00    +0.000 A 
ATOM     13 CL   UNL     1       4.840   1.980  20.051  0.00  0.00    +0.000 Cl
ATOM     14  C   UNL     1       4.645   4.023  18.303  0.00  0.00    +0.000 A 
ATOM     15  C   UNL     1       4.166   5.263  17.872  0.00  0.00    +0.000 A 
ATOM     16 CL   UNL     1       4.744   5.794  16.328  0.00  0.00    +0.000 Cl
ATOM     17  C   UNL     1       3.278   5.997  18.682  0.00  0.00    +0.000 A 
ATOM     18  H   UNL     1       1.839   5.809  21.691  0.00  0.00    +0.000 HD
ENDROOT
BRANCH   5  19
ATOM     19  N   UNL     1      -0.106  11.207  19.433  0.00  0.00    +0.000 N 
ATOM     20  H   UNL     1       0.526  11.997  19.371  0.00  0.00    +0.000 HD
BRANCH  19  21
ATOM     21  C   UNL     1      -1.455  11.488  19.165  0.00  0.00    +0.000 A 
ATOM     22  C   UNL     1      -2.158  12.388  19.963  0.00  0.00    +0.000 A 
ATOM     23  C   UNL     1      -3.538  12.565  19.784  0.00  0.00    +0.000 A 
ATOM     24  C   UNL     1      -4.234  11.847  18.805  0.00  0.00    +0.000 A 
ATOM     25  C   UNL     1      -3.542  10.935  18.018  0.00  0.00    +0.000 A 
ATOM     26  C   UNL     1      -2.163  10.782  18.183  0.00  0.00    +0.000 A 
BRANCH  24  27
ATOM     27  O   UNL     1      -5.569  12.101  18.755  0.00  0.00    +0.000 OA
BRANCH  27  28
ATOM     28  C   UNL     1      -6.122  12.754  17.622  0.00  0.00    +0.000 C 
ATOM     29  F   UNL     1      -5.351  12.696  16.516  0.00  0.00    +0.000 F 
ATOM     30  F   UNL     1      -7.333  12.228  17.341  0.00  0.00    +0.000 F 
ATOM     31  F   UNL     1      -6.293  14.061  17.931  0.00  0.00    +0.000 F 
ENDBRANCH  27  28
ENDBRANCH  24  27
ENDBRANCH  19  21
ENDBRANCH   5  19
TORSDOF 4
ENDMDL
MODEL 8
REMARK VINA RESULT:      -8.0      6.153     10.170
REMARK  Name = 
REMARK  4 active torsions:
REMARK  status: ('A' for Active; 'I' for Inactive)
REMARK    1  A    between atoms: C_5  and  N_6
REMARK    2  A    between atoms: N_6  and  C_7
REMARK    3  A    between atoms: C_10  and  O_11
REMARK    4  A    between atoms: O_11  and  C_12
REMARK                            x       y       z     vdW  Elec       q    Type
REMARK                         _______ _______ _______ _____ _____    ______ ____
ROOT
ATOM      1  O   UNL     1       2.944   7.928  17.369  0.00  0.00    +0.000 OA
ATOM      2  C   UNL     1       2.677   7.352  18.417  0.00  0.00    +0.000 A 
ATOM      3  C   UNL     1       1.764   8.031  19.371  0.00  0.00    +0.000 A 
ATOM      4  C   UNL     1       1.248   9.300  19.074  0.00  0.00    +0.000 A 
ATOM      5  C   UNL     1       0.381   9.933  19.966  0.00  0.00    +0.000 A 
ATOM      6  C   UNL     1       0.046   9.260  21.154  0.00  0.00    +0.000 A 
ATOM      7  C   UNL     1       0.547   7.994  21.444  0.00  0.00    +0.000 A 
ATOM      8  C   UNL     1       1.427   7.373  20.559  0.00  0.00    +0.000 A 
ATOM      9  N   UNL     1       1.903   6.088  20.821  0.00  0.00    +0.000 N 
ATOM     10  C   UNL     1       2.837   5.440  19.996  0.00  0.00    +0.000 A 
ATOM     11  C   UNL     1       3.326   4.186  20.379  0.00  0.00    +0.000 A 
ATOM     12  C   UNL     1       4.224   3.508  19.562  0.00  0.00    +0.000 A 
ATOM     13 CL   UNL     1       4.831   1.976  20.053  0.00  0.00    +0.000 Cl
ATOM     14  C   UNL     1       4.635   4.062  18.357  0.00  0.00    +0.000 A 
ATOM     15  C   UNL     1       4.147   5.308  17.953  0.00  0.00    +0.000 A 
ATOM     16 CL   UNL     1       4.737   5.885  16.431  0.00  0.00    +0.000 Cl
ATOM     17  C   UNL     1       3.240   6.010  18.770  0.00  0.00    +0.000 A 
ATOM     18  H   UNL     1       1.766   5.727  21.755  0.00  0.00    +0.000 HD
ENDROOT
BRANCH   5  19
ATOM     19  N   UNL     1      -0.213  11.159  19.613  0.00  0.00    +0.000 N 
ATOM     20  H   UNL     1       0.423  11.938  19.485  0.00  0.00    +0.000 HD
BRANCH  19  21
ATOM     21  C   UNL     1      -1.576  11.458  19.448  0.00  0.00    +0.000 A 
ATOM     22  C   UNL     1      -2.263  11.006  18.323  0.00  0.00    +0.000 A 
ATOM     23  C   UNL     1      -3.583  11.419  18.087  0.00  0.00    +0.000 A 
ATOM     24  C   UNL     1      -4.234  12.286  18.971  0.00  0.00    +0.000 A 
ATOM     25  C   UNL     1      -3.548  12.753  20.085  0.00  0.00    +0.000 A 
ATOM     26  C   UNL     1      -2.243  12.319  20.329  0.00  0.00    +0.000 A 
BRANCH  24  27
ATOM     27  O   UNL     1      -5.502  12.620  18.610  0.00  0.00    +0.000 OA
BRANCH  27  28
ATOM     28  C   UNL     1      -6.588  11.788  18.992  0.00  0.00    +0.000 C 
ATOM     29  F   UNL     1      -6.416  11.158  20.172  0.00  0.00    +0.000 F 
ATOM     30  F   UNL     1      -7.722  12.518  19.044  0.00  0.00    +0.000 F 
ATOM     31  F   UNL     1      -6.743  10.837  18.041  0.00  0.00    +0.000 F 
ENDBRANCH  27  28
ENDBRANCH  24  27
ENDBRANCH  19  21
ENDBRANCH   5  19
TORSDOF 4
ENDMDL
MODEL 9
REMARK VINA RESULT:      -8.0      5.466      9.336
REMARK  Name = 
REMARK  4 active torsions:
REMARK  status: ('A' for Active; 'I' for Inactive)
REMARK    1  A    between atoms: C_5  and  N_6
REMARK    2  A    between atoms: N_6  and  C_7
REMARK    3  A    between atoms: C_10  and  O_11
REMARK    4  A    between atoms: O_11  and  C_12
REMARK                            x       y       z     vdW  Elec       q    Type
REMARK                         _______ _______ _______ _____ _____    ______ ____
ROOT
ATOM      1  O   UNL     1       2.789   8.528  17.397  0.00  0.00    +0.000 OA
ATOM      2  C   UNL     1       2.517   7.903  18.415  0.00  0.00    +0.000 A 
ATOM      3  C   UNL     1       1.631   8.552  19.414  0.00  0.00    +0.000 A 
ATOM      4  C   UNL     1       1.146   9.849  19.192  0.00  0.00    +0.000 A 
ATOM      5  C   UNL     1       0.304  10.454  20.125  0.00  0.00    +0.000 A 
ATOM      6  C   UNL     1      -0.038   9.727  21.279  0.00  0.00    +0.000 A 
ATOM      7  C   UNL     1       0.432   8.434  21.495  0.00  0.00    +0.000 A 
ATOM      8  C   UNL     1       1.287   7.840  20.569  0.00  0.00    +0.000 A 
ATOM      9  N   UNL     1       1.731   6.530  20.755  0.00  0.00    +0.000 N 
ATOM     10  C   UNL     1       2.640   5.904  19.887  0.00  0.00    +0.000 A 
ATOM     11  C   UNL     1       3.100   4.620  20.196  0.00  0.00    +0.000 A 
ATOM     12  C   UNL     1       3.972   3.964  19.335  0.00  0.00    +0.000 A 
ATOM     13 CL   UNL     1       4.544   2.392  19.736  0.00  0.00    +0.000 Cl
ATOM     14  C   UNL     1       4.386   4.571  18.157  0.00  0.00    +0.000 A 
ATOM     15  C   UNL     1       3.927   5.849  17.825  0.00  0.00    +0.000 A 
ATOM     16 CL   UNL     1       4.519   6.493  16.331  0.00  0.00    +0.000 Cl
ATOM     17  C   UNL     1       3.047   6.529  18.689  0.00  0.00    +0.000 A 
ATOM     18  H   UNL     1       1.594   6.123  21.670  0.00  0.00    +0.000 HD
ENDROOT
BRANCH   5  19
ATOM     19  N   UNL     1      -0.261  11.713  19.845  0.00  0.00    +0.000 N 
ATOM     20  H   UNL     1      -1.264  11.724  19.699  0.00  0.00    +0.000 HD
BRANCH  19  21
ATOM     21  C   UNL     1       0.384  12.952  19.706  0.00  0.00    +0.000 A 
ATOM     22  C   UNL     1      -0.162  13.941  18.890  0.00  0.00    +0.000 A 
ATOM     23  C   UNL     1       0.550  15.124  18.640  0.00  0.00    +0.000 A 
ATOM     24  C   UNL     1       1.814  15.337  19.203  0.00  0.00    +0.000 A 
ATOM     25  C   UNL     1       2.369  14.347  20.004  0.00  0.00    +0.000 A 
ATOM     26  C   UNL     1       1.646  13.182  20.271  0.00  0.00    +0.000 A 
BRANCH  24  27
ATOM     27  O   UNL     1       2.398  16.516  18.860  0.00  0.00    +0.000 OA
BRANCH  27  28
ATOM     28  C   UNL     1       3.266  16.574  17.738  0.00  0.00    +0.000 C 
ATOM     29  F   UNL     1       4.510  17.016  18.019  0.00  0.00    +0.000 F 
ATOM     30  F   UNL     1       3.353  15.354  17.167  0.00  0.00    +0.000 F 
ATOM     31  F   UNL     1       2.727  17.425  16.834  0.00  0.00    +0.000 F 
ENDBRANCH  27  28
ENDBRANCH  24  27
ENDBRANCH  19  21
ENDBRANCH   5  19
TORSDOF 4
ENDMDL
