MODEL 1
REMARK VINA RESULT:      -7.2      0.000      0.000
REMARK  Name = 
REMARK  2 active torsions:
REMARK  status: ('A' for Active; 'I' for Inactive)
REMARK    1  A    between atoms: C_1  and  N_2
REMARK    2  A    between atoms: C_16  and  C_17
REMARK                            x       y       z     vdW  Elec       q    Type
REMARK                         _______ _______ _______ _____ _____    ______ ____
ROOT
ATOM      1  C   UNL     1      -3.669  16.813  24.346  0.00  0.00    +0.000 C 
ATOM      2  N   UNL     1      -3.151  15.404  24.445  0.00  0.00    +0.000 N 
ATOM      3  O   UNL     1      -2.940  15.116  25.772  0.00  0.00    +0.000 OA
ATOM      4  C   UNL     1      -4.183  14.457  23.851  0.00  0.00    +0.000 C 
ATOM      5  C   UNL     1      -3.660  13.032  23.749  0.00  0.00    +0.000 C 
ATOM      6  N   UNL     1      -2.391  12.990  23.023  0.00  0.00    +0.000 N 
ATOM      7  C   UNL     1      -2.245  12.371  21.791  0.00  0.00    +0.000 C 
ATOM      8  N   UNL     1      -3.072  12.685  20.821  0.00  0.00    +0.000 NA
ATOM      9  C   UNL     1      -3.040  12.133  19.518  0.00  0.00    +0.000 A 
ATOM     10  C   UNL     1      -4.271  11.861  18.906  0.00  0.00    +0.000 A 
ATOM     11  C   UNL     1      -4.342  11.348  17.605  0.00  0.00    +0.000 A 
ATOM     12  C   UNL     1      -3.177  11.114  16.879  0.00  0.00    +0.000 A 
ATOM     13  C   UNL     1      -1.942  11.403  17.452  0.00  0.00    +0.000 A 
ATOM     14  C   UNL     1      -1.873  11.922  18.757  0.00  0.00    +0.000 A 
ATOM     15  C   UNL     1      -0.561  12.075  19.398  0.00  0.00    +0.000 C 
ATOM     16  C   UNL     1       0.319  12.985  18.932  0.00  0.00    +0.000 C 
ATOM     17  C   UNL     1      -0.298  11.252  20.596  0.00  0.00    +0.000 A 
ATOM     18  C   UNL     1       0.731  10.295  20.599  0.00  0.00    +0.000 A 
ATOM     19  C   UNL     1       0.935   9.475  21.710  0.00  0.00    +0.000 A 
ATOM     20  C   UNL     1       0.107   9.590  22.823  0.00  0.00    +0.000 A 
ATOM     21  C   UNL     1      -0.928  10.523  22.823  0.00  0.00    +0.000 A 
ATOM     22  C   UNL     1      -1.140  11.353  21.708  0.00  0.00    +0.000 A 
ATOM     23  C   UNL     1      -1.350  13.848  23.600  0.00  0.00    +0.000 C 
ATOM     24  C   UNL     1      -1.849  15.292  23.670  0.00  0.00    +0.000 C 
ENDROOT
BRANCH  16  25
ATOM     25  C   UNL     1       1.634  13.199  19.663  0.00  0.00    +0.000 C 
ATOM     26  N   UNL     1       2.724  13.376  20.270  0.00  0.00    +0.000 NA
ENDBRANCH  16  25
TORSDOF 1
ENDMDL
MODEL 2
REMARK VINA RESULT:      -6.7      2.115      4.449
REMARK  Name = 
REMARK  2 active torsions:
REMARK  status: ('A' for Active; 'I' for Inactive)
REMARK    1  A    between atoms: C_1  and  N_2
REMARK    2  A    between atoms: C_16  and  C_17
REMARK                            x       y       z     vdW  Elec       q    Type
REMARK                         _______ _______ _______ _____ _____    ______ ____
ROOT
ATOM      1  C   UNL     1      -7.157  12.486  23.495  0.00  0.00    +0.000 C 
ATOM      2  N   UNL     1      -6.019  13.323  22.977  0.00  0.00    +0.000 N 
ATOM      3  O   UNL     1      -6.411  14.640  22.992  0.00  0.00    +0.000 OA
ATOM      4  C   UNL     1      -4.808  13.117  23.876  0.00  0.00    +0.000 C 
ATOM      5  C   UNL     1      -3.561  13.788  23.319  0.00  0.00    +0.000 C 
ATOM      6  N   UNL     1      -3.306  13.361  21.944  0.00  0.00    +0.000 N 
ATOM      7  C   UNL     1      -2.197  12.613  21.579  0.00  0.00    +0.000 C 
ATOM      8  N   UNL     1      -1.935  11.505  22.232  0.00  0.00    +0.000 NA
ATOM      9  C   UNL     1      -0.841  10.647  21.968  0.00  0.00    +0.000 A 
ATOM     10  C   UNL     1      -0.194  10.074  23.070  0.00  0.00    +0.000 A 
ATOM     11  C   UNL     1       0.876   9.185  22.908  0.00  0.00    +0.000 A 
ATOM     12  C   UNL     1       1.309   8.834  21.633  0.00  0.00    +0.000 A 
ATOM     13  C   UNL     1       0.666   9.367  20.520  0.00  0.00    +0.000 A 
ATOM     14  C   UNL     1      -0.410  10.257  20.684  0.00  0.00    +0.000 A 
ATOM     15  C   UNL     1      -0.974  10.924  19.504  0.00  0.00    +0.000 C 
ATOM     16  C   UNL     1      -1.638  10.208  18.573  0.00  0.00    +0.000 C 
ATOM     17  C   UNL     1      -0.842  12.394  19.436  0.00  0.00    +0.000 A 
ATOM     18  C   UNL     1      -0.104  13.003  18.407  0.00  0.00    +0.000 A 
ATOM     19  C   UNL     1       0.071  14.387  18.382  0.00  0.00    +0.000 A 
ATOM     20  C   UNL     1      -0.473  15.177  19.391  0.00  0.00    +0.000 A 
ATOM     21  C   UNL     1      -1.191  14.581  20.426  0.00  0.00    +0.000 A 
ATOM     22  C   UNL     1      -1.373  13.187  20.458  0.00  0.00    +0.000 A 
ATOM     23  C   UNL     1      -4.431  13.596  21.032  0.00  0.00    +0.000 C 
ATOM     24  C   UNL     1      -5.681  12.891  21.561  0.00  0.00    +0.000 C 
ENDROOT
BRANCH  16  25
ATOM     25  C   UNL     1      -2.298  10.926  17.406  0.00  0.00    +0.000 C 
ATOM     26  N   UNL     1      -2.845  11.519  16.439  0.00  0.00    +0.000 NA
ENDBRANCH  16  25
TORSDOF 1
ENDMDL
MODEL 3
REMARK VINA RESULT:      -6.7      1.870      3.997
REMARK  Name = 
REMARK  2 active torsions:
REMARK  status: ('A' for Active; 'I' for Inactive)
REMARK    1  A    between atoms: C_1  and  N_2
REMARK    2  A    between atoms: C_16  and  C_17
REMARK                            x       y       z     vdW  Elec       q    Type
REMARK                         _______ _______ _______ _____ _____    ______ ____
ROOT
ATOM      1  C   UNL     1      -3.422  15.310  25.009  0.00  0.00    +0.000 C 
ATOM      2  N   UNL     1      -3.827  14.698  23.696  0.00  0.00    +0.000 N 
ATOM      3  O   UNL     1      -5.199  14.624  23.661  0.00  0.00    +0.000 OA
ATOM      4  C   UNL     1      -3.310  15.573  22.564  0.00  0.00    +0.000 C 
ATOM      5  C   UNL     1      -3.523  14.932  21.201  0.00  0.00    +0.000 C 
ATOM      6  N   UNL     1      -2.951  13.586  21.161  0.00  0.00    +0.000 N 
ATOM      7  C   UNL     1      -1.873  13.246  20.358  0.00  0.00    +0.000 C 
ATOM      8  N   UNL     1      -0.783  13.973  20.419  0.00  0.00    +0.000 NA
ATOM      9  C   UNL     1       0.389  13.743  19.658  0.00  0.00    +0.000 A 
ATOM     10  C   UNL     1       1.066  14.866  19.165  0.00  0.00    +0.000 A 
ATOM     11  C   UNL     1       2.252  14.741  18.433  0.00  0.00    +0.000 A 
ATOM     12  C   UNL     1       2.800  13.484  18.194  0.00  0.00    +0.000 A 
ATOM     13  C   UNL     1       2.164  12.353  18.698  0.00  0.00    +0.000 A 
ATOM     14  C   UNL     1       0.975  12.481  19.436  0.00  0.00    +0.000 A 
ATOM     15  C   UNL     1       0.240  11.270  19.825  0.00  0.00    +0.000 C 
ATOM     16  C   UNL     1       0.770  10.416  20.725  0.00  0.00    +0.000 C 
ATOM     17  C   UNL     1      -1.108  11.088  19.249  0.00  0.00    +0.000 A 
ATOM     18  C   UNL     1      -1.390   9.994  18.413  0.00  0.00    +0.000 A 
ATOM     19  C   UNL     1      -2.646   9.860  17.819  0.00  0.00    +0.000 A 
ATOM     20  C   UNL     1      -3.628  10.821  18.040  0.00  0.00    +0.000 A 
ATOM     21  C   UNL     1      -3.353  11.919  18.853  0.00  0.00    +0.000 A 
ATOM     22  C   UNL     1      -2.090  12.062  19.455  0.00  0.00    +0.000 A 
ATOM     23  C   UNL     1      -3.468  12.692  22.204  0.00  0.00    +0.000 C 
ATOM     24  C   UNL     1      -3.223  13.308  23.581  0.00  0.00    +0.000 C 
ENDROOT
BRANCH  16  25
ATOM     25  C   UNL     1      -0.043   9.218  21.189  0.00  0.00    +0.000 C 
ATOM     26  N   UNL     1      -0.716   8.225  21.575  0.00  0.00    +0.000 NA
ENDBRANCH  16  25
TORSDOF 1
ENDMDL
MODEL 4
REMARK VINA RESULT:      -6.6      8.365     11.130
REMARK  Name = 
REMARK  2 active torsions:
REMARK  status: ('A' for Active; 'I' for Inactive)
REMARK    1  A    between atoms: C_1  and  N_2
REMARK    2  A    between atoms: C_16  and  C_17
REMARK                            x       y       z     vdW  Elec       q    Type
REMARK                         _______ _______ _______ _____ _____    ______ ____
ROOT
ATOM      1  C   UNL     1       5.842  11.251  24.993  0.00  0.00    +0.000 C 
ATOM      2  N   UNL     1       6.413  12.582  24.584  0.00  0.00    +0.000 N 
ATOM      3  O   UNL     1       6.048  13.514  25.526  0.00  0.00    +0.000 OA
ATOM      4  C   UNL     1       7.928  12.465  24.508  0.00  0.00    +0.000 C 
ATOM      5  C   UNL     1       8.571  13.717  23.928  0.00  0.00    +0.000 C 
ATOM      6  N   UNL     1       7.978  14.057  22.635  0.00  0.00    +0.000 N 
ATOM      7  C   UNL     1       8.685  14.008  21.444  0.00  0.00    +0.000 C 
ATOM      8  N   UNL     1       9.332  12.909  21.134  0.00  0.00    +0.000 NA
ATOM      9  C   UNL     1      10.093  12.720  19.956  0.00  0.00    +0.000 A 
ATOM     10  C   UNL     1      11.292  12.005  20.073  0.00  0.00    +0.000 A 
ATOM     11  C   UNL     1      12.094  11.737  18.957  0.00  0.00    +0.000 A 
ATOM     12  C   UNL     1      11.702  12.164  17.692  0.00  0.00    +0.000 A 
ATOM     13  C   UNL     1      10.501  12.850  17.542  0.00  0.00    +0.000 A 
ATOM     14  C   UNL     1       9.694  13.116  18.663  0.00  0.00    +0.000 A 
ATOM     15  C   UNL     1       8.512  13.972  18.508  0.00  0.00    +0.000 C 
ATOM     16  C   UNL     1       7.457  13.546  17.782  0.00  0.00    +0.000 C 
ATOM     17  C   UNL     1       8.512  15.258  19.234  0.00  0.00    +0.000 A 
ATOM     18  C   UNL     1       8.468  16.477  18.537  0.00  0.00    +0.000 A 
ATOM     19  C   UNL     1       8.534  17.691  19.224  0.00  0.00    +0.000 A 
ATOM     20  C   UNL     1       8.660  17.701  20.610  0.00  0.00    +0.000 A 
ATOM     21  C   UNL     1       8.724  16.497  21.310  0.00  0.00    +0.000 A 
ATOM     22  C   UNL     1       8.658  15.271  20.625  0.00  0.00    +0.000 A 
ATOM     23  C   UNL     1       6.522  14.235  22.679  0.00  0.00    +0.000 C 
ATOM     24  C   UNL     1       5.863  12.968  23.222  0.00  0.00    +0.000 C 
ENDROOT
BRANCH  16  25
ATOM     25  C   UNL     1       6.203  14.402  17.709  0.00  0.00    +0.000 C 
ATOM     26  N   UNL     1       5.163  15.112  17.647  0.00  0.00    +0.000 NA
ENDBRANCH  16  25
TORSDOF 1
ENDMDL
MODEL 5
REMARK VINA RESULT:      -6.3      1.343      1.564
REMARK  Name = 
REMARK  2 active torsions:
REMARK  status: ('A' for Active; 'I' for Inactive)
REMARK    1  A    between atoms: C_1  and  N_2
REMARK    2  A    between atoms: C_16  and  C_17
REMARK                            x       y       z     vdW  Elec       q    Type
REMARK                         _______ _______ _______ _____ _____    ______ ____
ROOT
ATOM      1  C   UNL     1      -1.981  18.366  23.158  0.00  0.00    +0.000 C 
ATOM      2  N   UNL     1      -1.771  16.931  23.559  0.00  0.00    +0.000 N 
ATOM      3  O   UNL     1      -1.243  16.911  24.827  0.00  0.00    +0.000 OA
ATOM      4  C   UNL     1      -3.111  16.210  23.528  0.00  0.00    +0.000 C 
ATOM      5  C   UNL     1      -2.961  14.712  23.746  0.00  0.00    +0.000 C 
ATOM      6  N   UNL     1      -2.004  14.139  22.799  0.00  0.00    +0.000 N 
ATOM      7  C   UNL     1      -2.367  13.235  21.813  0.00  0.00    +0.000 C 
ATOM      8  N   UNL     1      -3.357  13.539  21.006  0.00  0.00    +0.000 NA
ATOM      9  C   UNL     1      -3.833  12.714  19.959  0.00  0.00    +0.000 A 
ATOM     10  C   UNL     1      -5.218  12.673  19.753  0.00  0.00    +0.000 A 
ATOM     11  C   UNL     1      -5.780  11.914  18.719  0.00  0.00    +0.000 A 
ATOM     12  C   UNL     1      -4.963  11.192  17.854  0.00  0.00    +0.000 A 
ATOM     13  C   UNL     1      -3.582  11.238  18.018  0.00  0.00    +0.000 A 
ATOM     14  C   UNL     1      -3.018  12.004  19.054  0.00  0.00    +0.000 A 
ATOM     15  C   UNL     1      -1.574  11.917  19.305  0.00  0.00    +0.000 C 
ATOM     16  C   UNL     1      -0.699  12.401  18.400  0.00  0.00    +0.000 C 
ATOM     17  C   UNL     1      -1.150  11.356  20.604  0.00  0.00    +0.000 A 
ATOM     18  C   UNL     1      -0.397  10.171  20.663  0.00  0.00    +0.000 A 
ATOM     19  C   UNL     1      -0.052   9.609  21.894  0.00  0.00    +0.000 A 
ATOM     20  C   UNL     1      -0.468  10.213  23.076  0.00  0.00    +0.000 A 
ATOM     21  C   UNL     1      -1.231  11.379  23.029  0.00  0.00    +0.000 A 
ATOM     22  C   UNL     1      -1.582  11.951  21.793  0.00  0.00    +0.000 A 
ATOM     23  C   UNL     1      -0.680  14.770  22.839  0.00  0.00    +0.000 C 
ATOM     24  C   UNL     1      -0.815  16.270  22.580  0.00  0.00    +0.000 C 
ENDROOT
BRANCH  16  25
ATOM     25  C   UNL     1       0.788  12.390  18.715  0.00  0.00    +0.000 C 
ATOM     26  N   UNL     1       2.021  12.382  18.976  0.00  0.00    +0.000 NA
ENDBRANCH  16  25
TORSDOF 1
ENDMDL
MODEL 6
REMARK VINA RESULT:      -6.2      2.731      3.603
REMARK  Name = 
REMARK  2 active torsions:
REMARK  status: ('A' for Active; 'I' for Inactive)
REMARK    1  A    between atoms: C_1  and  N_2
REMARK    2  A    between atoms: C_16  and  C_17
REMARK                            x       y       z     vdW  Elec       q    Type
REMARK                         _______ _______ _______ _____ _____    ______ ____
ROOT
ATOM      1  C   UNL     1       1.638  17.125  19.132  0.00  0.00    +0.000 C 
ATOM      2  N   UNL     1       1.364  16.055  20.154  0.00  0.00    +0.000 N 
ATOM      3  O   UNL     1       2.025  16.388  21.312  0.00  0.00    +0.000 OA
ATOM      4  C   UNL     1      -0.136  15.980  20.399  0.00  0.00    +0.000 C 
ATOM      5  C   UNL     1      -0.513  14.803  21.286  0.00  0.00    +0.000 C 
ATOM      6  N   UNL     1       0.022  13.552  20.750  0.00  0.00    +0.000 N 
ATOM      7  C   UNL     1      -0.784  12.529  20.273  0.00  0.00    +0.000 C 
ATOM      8  N   UNL     1      -1.699  12.808  19.375  0.00  0.00    +0.000 NA
ATOM      9  C   UNL     1      -2.588  11.867  18.803  0.00  0.00    +0.000 A 
ATOM     10  C   UNL     1      -3.906  12.284  18.578  0.00  0.00    +0.000 A 
ATOM     11  C   UNL     1      -4.849  11.436  17.984  0.00  0.00    +0.000 A 
ATOM     12  C   UNL     1      -4.485  10.154  17.583  0.00  0.00    +0.000 A 
ATOM     13  C   UNL     1      -3.174   9.724  17.767  0.00  0.00    +0.000 A 
ATOM     14  C   UNL     1      -2.228  10.579  18.360  0.00  0.00    +0.000 A 
ATOM     15  C   UNL     1      -0.895  10.055  18.686  0.00  0.00    +0.000 C 
ATOM     16  C   UNL     1      -0.044   9.709  17.698  0.00  0.00    +0.000 C 
ATOM     17  C   UNL     1      -0.523  10.003  20.114  0.00  0.00    +0.000 A 
ATOM     18  C   UNL     1      -0.255   8.775  20.743  0.00  0.00    +0.000 A 
ATOM     19  C   UNL     1       0.034   8.724  22.107  0.00  0.00    +0.000 A 
ATOM     20  C   UNL     1       0.042   9.893  22.862  0.00  0.00    +0.000 A 
ATOM     21  C   UNL     1      -0.241  11.114  22.252  0.00  0.00    +0.000 A 
ATOM     22  C   UNL     1      -0.532  11.174  20.878  0.00  0.00    +0.000 A 
ATOM     23  C   UNL     1       1.476  13.564  20.553  0.00  0.00    +0.000 C 
ATOM     24  C   UNL     1       1.862  14.720  19.630  0.00  0.00    +0.000 C 
ENDROOT
BRANCH  16  25
ATOM     25  C   UNL     1       1.366   9.259  18.047  0.00  0.00    +0.000 C 
ATOM     26  N   UNL     1       2.534   8.885  18.337  0.00  0.00    +0.000 NA
ENDBRANCH  16  25
TORSDOF 1
ENDMDL
MODEL 7
REMARK VINA RESULT:      -6.2      2.974      5.057
REMARK  Name = 
REMARK  2 active torsions:
REMARK  status: ('A' for Active; 'I' for Inactive)
REMARK    1  A    between atoms: C_1  and  N_2
REMARK    2  A    between atoms: C_16  and  C_17
REMARK                            x       y       z     vdW  Elec       q    Type
REMARK                         _______ _______ _______ _____ _____    ______ ____
ROOT
ATOM      1  C   UNL     1       4.729  15.392  17.969  0.00  0.00    +0.000 C 
ATOM      2  N   UNL     1       3.599  15.482  18.958  0.00  0.00    +0.000 N 
ATOM      3  O   UNL     1       3.830  16.558  19.779  0.00  0.00    +0.000 OA
ATOM      4  C   UNL     1       2.293  15.662  18.198  0.00  0.00    +0.000 C 
ATOM      5  C   UNL     1       1.081  15.582  19.114  0.00  0.00    +0.000 C 
ATOM      6  N   UNL     1       1.098  14.346  19.897  0.00  0.00    +0.000 N 
ATOM      7  C   UNL     1       0.154  13.342  19.744  0.00  0.00    +0.000 C 
ATOM      8  N   UNL     1      -0.080  12.868  18.543  0.00  0.00    +0.000 NA
ATOM      9  C   UNL     1      -1.013  11.848  18.240  0.00  0.00    +0.000 A 
ATOM     10  C   UNL     1      -1.756  11.986  17.061  0.00  0.00    +0.000 A 
ATOM     11  C   UNL     1      -2.678  11.011  16.660  0.00  0.00    +0.000 A 
ATOM     12  C   UNL     1      -2.861   9.862  17.424  0.00  0.00    +0.000 A 
ATOM     13  C   UNL     1      -2.115   9.686  18.585  0.00  0.00    +0.000 A 
ATOM     14  C   UNL     1      -1.187  10.664  18.985  0.00  0.00    +0.000 A 
ATOM     15  C   UNL     1      -0.524  10.533  20.288  0.00  0.00    +0.000 C 
ATOM     16  C   UNL     1       0.356   9.533  20.503  0.00  0.00    +0.000 C 
ATOM     17  C   UNL     1      -0.811  11.573  21.297  0.00  0.00    +0.000 A 
ATOM     18  C   UNL     1      -1.442  11.245  22.509  0.00  0.00    +0.000 A 
ATOM     19  C   UNL     1      -1.768  12.240  23.432  0.00  0.00    +0.000 A 
ATOM     20  C   UNL     1      -1.485  13.573  23.149  0.00  0.00    +0.000 A 
ATOM     21  C   UNL     1      -0.876  13.911  21.941  0.00  0.00    +0.000 A 
ATOM     22  C   UNL     1      -0.543  12.914  21.007  0.00  0.00    +0.000 A 
ATOM     23  C   UNL     1       2.319  14.163  20.690  0.00  0.00    +0.000 C 
ATOM     24  C   UNL     1       3.541  14.201  19.773  0.00  0.00    +0.000 C 
ENDROOT
BRANCH  16  25
ATOM     25  C   UNL     1       1.106   9.465  21.824  0.00  0.00    +0.000 C 
ATOM     26  N   UNL     1       1.727   9.408  22.919  0.00  0.00    +0.000 NA
ENDBRANCH  16  25
TORSDOF 1
ENDMDL
MODEL 8
REMARK VINA RESULT:      -6.2      2.835      4.402
REMARK  Name = 
REMARK  2 active torsions:
REMARK  status: ('A' for Active; 'I' for Inactive)
REMARK    1  A    between atoms: C_1  and  N_2
REMARK    2  A    between atoms: C_16  and  C_17
REMARK                            x       y       z     vdW  Elec       q    Type
REMARK                         _______ _______ _______ _____ _____    ______ ____
ROOT
ATOM      1  C   UNL     1      -3.586  14.170  24.496  0.00  0.00    +0.000 C 
ATOM      2  N   UNL     1      -3.020  13.377  23.350  0.00  0.00    +0.000 N 
ATOM      3  O   UNL     1      -3.417  12.069  23.494  0.00  0.00    +0.000 OA
ATOM      4  C   UNL     1      -3.548  13.954  22.044  0.00  0.00    +0.000 C 
ATOM      5  C   UNL     1      -2.884  13.323  20.829  0.00  0.00    +0.000 C 
ATOM      6  N   UNL     1      -1.427  13.415  20.923  0.00  0.00    +0.000 N 
ATOM      7  C   UNL     1      -0.660  14.176  20.055  0.00  0.00    +0.000 C 
ATOM      8  N   UNL     1      -0.973  15.438  19.872  0.00  0.00    +0.000 NA
ATOM      9  C   UNL     1      -0.282  16.329  19.017  0.00  0.00    +0.000 A 
ATOM     10  C   UNL     1      -1.051  17.241  18.282  0.00  0.00    +0.000 A 
ATOM     11  C   UNL     1      -0.454  18.185  17.437  0.00  0.00    +0.000 A 
ATOM     12  C   UNL     1       0.932  18.250  17.325  0.00  0.00    +0.000 A 
ATOM     13  C   UNL     1       1.721  17.376  18.067  0.00  0.00    +0.000 A 
ATOM     14  C   UNL     1       1.120  16.431  18.918  0.00  0.00    +0.000 A 
ATOM     15  C   UNL     1       1.961  15.419  19.571  0.00  0.00    +0.000 C 
ATOM     16  C   UNL     1       2.850  15.786  20.517  0.00  0.00    +0.000 C 
ATOM     17  C   UNL     1       1.729  14.009  19.198  0.00  0.00    +0.000 A 
ATOM     18  C   UNL     1       2.739  13.255  18.576  0.00  0.00    +0.000 A 
ATOM     19  C   UNL     1       2.495  11.943  18.168  0.00  0.00    +0.000 A 
ATOM     20  C   UNL     1       1.239  11.375  18.360  0.00  0.00    +0.000 A 
ATOM     21  C   UNL     1       0.225  12.121  18.959  0.00  0.00    +0.000 A 
ATOM     22  C   UNL     1       0.463  13.443  19.374  0.00  0.00    +0.000 A 
ATOM     23  C   UNL     1      -0.873  12.817  22.144  0.00  0.00    +0.000 C 
ATOM     24  C   UNL     1      -1.504  13.472  23.372  0.00  0.00    +0.000 C 
ENDROOT
BRANCH  16  25
ATOM     25  C   UNL     1       3.645  14.719  21.252  0.00  0.00    +0.000 C 
ATOM     26  N   UNL     1       4.304  13.834  21.861  0.00  0.00    +0.000 NA
ENDBRANCH  16  25
TORSDOF 1
ENDMDL
MODEL 9
REMARK VINA RESULT:      -6.1      3.135      6.295
REMARK  Name = 
REMARK  2 active torsions:
REMARK  status: ('A' for Active; 'I' for Inactive)
REMARK    1  A    between atoms: C_1  and  N_2
REMARK    2  A    between atoms: C_16  and  C_17
REMARK                            x       y       z     vdW  Elec       q    Type
REMARK                         _______ _______ _______ _____ _____    ______ ____
ROOT
ATOM      1  C   UNL     1      -3.037  10.018  15.677  0.00  0.00    +0.000 C 
ATOM      2  N   UNL     1      -2.750  10.182  17.145  0.00  0.00    +0.000 N 
ATOM      3  O   UNL     1      -3.515   9.274  17.837  0.00  0.00    +0.000 OA
ATOM      4  C   UNL     1      -1.270   9.930  17.389  0.00  0.00    +0.000 C 
ATOM      5  C   UNL     1      -0.862  10.252  18.819  0.00  0.00    +0.000 C 
ATOM      6  N   UNL     1      -1.257  11.613  19.182  0.00  0.00    +0.000 N 
ATOM      7  C   UNL     1      -0.341  12.618  19.453  0.00  0.00    +0.000 C 
ATOM      8  N   UNL     1       0.609  12.863  18.581  0.00  0.00    +0.000 NA
ATOM      9  C   UNL     1       1.608  13.855  18.728  0.00  0.00    +0.000 A 
ATOM     10  C   UNL     1       2.901  13.532  18.297  0.00  0.00    +0.000 A 
ATOM     11  C   UNL     1       3.948  14.459  18.369  0.00  0.00    +0.000 A 
ATOM     12  C   UNL     1       3.716  15.742  18.856  0.00  0.00    +0.000 A 
ATOM     13  C   UNL     1       2.434  16.099  19.263  0.00  0.00    +0.000 A 
ATOM     14  C   UNL     1       1.383  15.168  19.187  0.00  0.00    +0.000 A 
ATOM     15  C   UNL     1       0.077  15.513  19.763  0.00  0.00    +0.000 C 
ATOM     16  C   UNL     1      -0.673  16.485  19.205  0.00  0.00    +0.000 C 
ATOM     17  C   UNL     1      -0.388  14.704  20.908  0.00  0.00    +0.000 A 
ATOM     18  C   UNL     1      -0.600  15.295  22.166  0.00  0.00    +0.000 A 
ATOM     19  C   UNL     1      -0.978  14.516  23.261  0.00  0.00    +0.000 A 
ATOM     20  C   UNL     1      -1.132  13.140  23.118  0.00  0.00    +0.000 A 
ATOM     21  C   UNL     1      -0.905  12.542  21.880  0.00  0.00    +0.000 A 
ATOM     22  C   UNL     1      -0.525  13.320  20.771  0.00  0.00    +0.000 A 
ATOM     23  C   UNL     1      -2.690  11.879  19.014  0.00  0.00    +0.000 C 
ATOM     24  C   UNL     1      -3.103  11.598  17.569  0.00  0.00    +0.000 C 
ENDROOT
BRANCH  16  25
ATOM     25  C   UNL     1      -2.063  16.767  19.753  0.00  0.00    +0.000 C 
ATOM     26  N   UNL     1      -3.215  17.000  20.208  0.00  0.00    +0.000 NA
ENDBRANCH  16  25
TORSDOF 1
ENDMDL
