MODEL 1
REMARK VINA RESULT:      -8.1      0.000      0.000
REMARK  Name = 
REMARK  10 active torsions:
REMARK  status: ('A' for Active; 'I' for Inactive)
REMARK    1  A    between atoms: C_1  and  C_2
REMARK    2  A    between atoms: C_2  and  C_3
REMARK    3  A    between atoms: C_2  and  C_4
REMARK    4  A    between atoms: C_7  and  C_8
REMARK    5  A    between atoms: C_8  and  C_9
REMARK    6  A    between atoms: C_8  and  N_10
REMARK    7  A    between atoms: C_15  and  N_16
REMARK    8  A    between atoms: C_21  and  C_22
REMARK    9  A    between atoms: C_22  and  C_23
REMARK   10  A    between atoms: C_22  and  O_24
REMARK                            x       y       z     vdW  Elec       q    Type
REMARK                         _______ _______ _______ _____ _____    ______ ____
ROOT
ATOM      1  N   UNL     1       2.157   6.756  20.393  0.00  0.00    +0.000 N 
ATOM      2  C   UNL     1       2.884   5.642  20.021  0.00  0.00    +0.000 A 
ATOM      3  N   UNL     1       2.342   4.462  20.332  0.00  0.00    +0.000 NA
ATOM      4  C   UNL     1       2.983   3.362  19.901  0.00  0.00    +0.000 A 
ATOM      5  C   UNL     1       4.114   3.405  19.130  0.00  0.00    +0.000 A 
ATOM      6  C   UNL     1       4.623   4.662  18.901  0.00  0.00    +0.000 A 
ATOM      7  N   UNL     1       4.059   5.782  19.389  0.00  0.00    +0.000 NA
ATOM      8  H   UNL     1       1.242   6.427  20.684  0.00  0.00    +0.000 HD
ENDROOT
BRANCH   6   9
ATOM      9  N   UNL     1       5.827   4.790  18.194  0.00  0.00    +0.000 N 
ATOM     10  C   UNL     1       7.031   4.913  18.855  0.00  0.00    +0.000 C 
ATOM     11  O   UNL     1       7.210   5.183  20.032  0.00  0.00    +0.000 OA
ATOM     12  O   UNL     1       8.057   4.634  17.993  0.00  0.00    +0.000 OA
ATOM     13  C   UNL     1       7.506   4.505  16.678  0.00  0.00    +0.000 C 
ATOM     14  C   UNL     1       6.027   4.227  16.885  0.00  0.00    +0.000 C 
BRANCH  14  15
ATOM     15  C   UNL     1       5.136   4.898  15.811  0.00  0.00    +0.000 C 
ATOM     16  C   UNL     1       5.221   6.419  15.802  0.00  0.00    +0.000 C 
BRANCH  15  17
ATOM     17  O   UNL     1       5.469   4.484  14.482  0.00  0.00    +0.000 OA
ATOM     18  H   UNL     1       6.373   4.110  14.471  0.00  0.00    +0.000 HD
ENDBRANCH  15  17
ENDBRANCH  14  15
ENDBRANCH   6   9
BRANCH   1  19
ATOM     19  C   UNL     1       2.119   7.860  19.440  0.00  0.00    +0.000 C 
ATOM     20  C   UNL     1       1.683   7.375  18.052  0.00  0.00    +0.000 C 
BRANCH  19  24
ATOM     21  C   UNL     1      -0.476  10.866  21.236  0.00  0.00    +0.000 A 
ATOM     22  C   UNL     1      -0.240   9.633  21.856  0.00  0.00    +0.000 A 
ATOM     23  C   UNL     1       0.606   8.687  21.270  0.00  0.00    +0.000 A 
ATOM     24  C   UNL     1       1.253   8.949  20.047  0.00  0.00    +0.000 A 
ATOM     25  C   UNL     1       1.013  10.181  19.442  0.00  0.00    +0.000 A 
ATOM     26  F   UNL     1       1.580  10.492  18.266  0.00  0.00    +0.000 F 
ATOM     27  C   UNL     1       0.178  11.134  20.025  0.00  0.00    +0.000 A 
BRANCH  21  29
ATOM     28  C   UNL     1      -1.812  11.379  23.286  0.00  0.00    +0.000 C 
ATOM     29  C   UNL     1      -1.400  11.874  21.898  0.00  0.00    +0.000 C 
ATOM     30  C   UNL     1      -0.806  13.284  21.979  0.00  0.00    +0.000 C 
ENDBRANCH  21  29
ENDBRANCH  19  24
ENDBRANCH   1  19
TORSDOF 6
ENDMDL
MODEL 2
REMARK VINA RESULT:      -7.9      1.070      1.367
REMARK  Name = 
REMARK  10 active torsions:
REMARK  status: ('A' for Active; 'I' for Inactive)
REMARK    1  A    between atoms: C_1  and  C_2
REMARK    2  A    between atoms: C_2  and  C_3
REMARK    3  A    between atoms: C_2  and  C_4
REMARK    4  A    between atoms: C_7  and  C_8
REMARK    5  A    between atoms: C_8  and  C_9
REMARK    6  A    between atoms: C_8  and  N_10
REMARK    7  A    between atoms: C_15  and  N_16
REMARK    8  A    between atoms: C_21  and  C_22
REMARK    9  A    between atoms: C_22  and  C_23
REMARK   10  A    between atoms: C_22  and  O_24
REMARK                            x       y       z     vdW  Elec       q    Type
REMARK                         _______ _______ _______ _____ _____    ______ ____
ROOT
ATOM      1  N   UNL     1       1.926   6.837  20.364  0.00  0.00    +0.000 N 
ATOM      2  C   UNL     1       2.562   5.727  19.842  0.00  0.00    +0.000 A 
ATOM      3  N   UNL     1       1.868   4.586  19.882  0.00  0.00    +0.000 NA
ATOM      4  C   UNL     1       2.426   3.512  19.299  0.00  0.00    +0.000 A 
ATOM      5  C   UNL     1       3.624   3.552  18.638  0.00  0.00    +0.000 A 
ATOM      6  C   UNL     1       4.285   4.757  18.690  0.00  0.00    +0.000 A 
ATOM      7  N   UNL     1       3.801   5.832  19.338  0.00  0.00    +0.000 NA
ATOM      8  H   UNL     1       0.957   6.576  20.518  0.00  0.00    +0.000 HD
ENDROOT
BRANCH   6   9
ATOM      9  N   UNL     1       5.559   4.860  18.114  0.00  0.00    +0.000 N 
ATOM     10  C   UNL     1       6.690   4.960  18.897  0.00  0.00    +0.000 C 
ATOM     11  O   UNL     1       6.750   5.228  20.086  0.00  0.00    +0.000 OA
ATOM     12  O   UNL     1       7.794   4.660  18.147  0.00  0.00    +0.000 OA
ATOM     13  C   UNL     1       7.381   4.540  16.781  0.00  0.00    +0.000 C 
ATOM     14  C   UNL     1       5.883   4.292  16.832  0.00  0.00    +0.000 C 
BRANCH  14  15
ATOM     15  C   UNL     1       5.123   4.979  15.671  0.00  0.00    +0.000 C 
ATOM     16  C   UNL     1       5.162   6.501  15.725  0.00  0.00    +0.000 C 
BRANCH  15  17
ATOM     17  O   UNL     1       5.643   4.624  14.386  0.00  0.00    +0.000 OA
ATOM     18  H   UNL     1       4.921   4.629  13.727  0.00  0.00    +0.000 HD
ENDBRANCH  15  17
ENDBRANCH  14  15
ENDBRANCH   6   9
BRANCH   1  19
ATOM     19  C   UNL     1       2.099   8.091  19.638  0.00  0.00    +0.000 C 
ATOM     20  C   UNL     1       2.005   7.868  18.124  0.00  0.00    +0.000 C 
BRANCH  19  24
ATOM     21  C   UNL     1      -0.733  11.040  21.146  0.00  0.00    +0.000 A 
ATOM     22  C   UNL     1      -0.639  10.742  19.781  0.00  0.00    +0.000 A 
ATOM     23  C   UNL     1       0.267   9.783  19.319  0.00  0.00    +0.000 A 
ATOM     24  C   UNL     1       1.103   9.083  20.209  0.00  0.00    +0.000 A 
ATOM     25  C   UNL     1       0.996   9.385  21.566  0.00  0.00    +0.000 A 
ATOM     26  F   UNL     1       1.775   8.772  22.471  0.00  0.00    +0.000 F 
ATOM     27  C   UNL     1       0.089  10.334  22.036  0.00  0.00    +0.000 A 
BRANCH  21  29
ATOM     28  C   UNL     1      -1.130  12.905  22.763  0.00  0.00    +0.000 C 
ATOM     29  C   UNL     1      -1.728  12.086  21.618  0.00  0.00    +0.000 C 
ATOM     30  C   UNL     1      -2.225  13.004  20.496  0.00  0.00    +0.000 C 
ENDBRANCH  21  29
ENDBRANCH  19  24
ENDBRANCH   1  19
TORSDOF 6
ENDMDL
MODEL 3
REMARK VINA RESULT:      -7.7      1.205      1.582
REMARK  Name = 
REMARK  10 active torsions:
REMARK  status: ('A' for Active; 'I' for Inactive)
REMARK    1  A    between atoms: C_1  and  C_2
REMARK    2  A    between atoms: C_2  and  C_3
REMARK    3  A    between atoms: C_2  and  C_4
REMARK    4  A    between atoms: C_7  and  C_8
REMARK    5  A    between atoms: C_8  and  C_9
REMARK    6  A    between atoms: C_8  and  N_10
REMARK    7  A    between atoms: C_15  and  N_16
REMARK    8  A    between atoms: C_21  and  C_22
REMARK    9  A    between atoms: C_22  and  C_23
REMARK   10  A    between atoms: C_22  and  O_24
REMARK                            x       y       z     vdW  Elec       q    Type
REMARK                         _______ _______ _______ _____ _____    ______ ____
ROOT
ATOM      1  N   UNL     1       2.045   7.284  20.147  0.00  0.00    +0.000 N 
ATOM      2  C   UNL     1       2.709   6.103  19.876  0.00  0.00    +0.000 A 
ATOM      3  N   UNL     1       2.078   4.984  20.239  0.00  0.00    +0.000 NA
ATOM      4  C   UNL     1       2.659   3.820  19.904  0.00  0.00    +0.000 A 
ATOM      5  C   UNL     1       3.818   3.739  19.180  0.00  0.00    +0.000 A 
ATOM      6  C   UNL     1       4.418   4.942  18.893  0.00  0.00    +0.000 A 
ATOM      7  N   UNL     1       3.913   6.126  19.285  0.00  0.00    +0.000 NA
ATOM      8  H   UNL     1       1.100   7.035  20.421  0.00  0.00    +0.000 HD
ENDROOT
BRANCH   6   9
ATOM      9  N   UNL     1       5.653   4.946  18.230  0.00  0.00    +0.000 N 
ATOM     10  C   UNL     1       6.839   5.004  18.932  0.00  0.00    +0.000 C 
ATOM     11  O   UNL     1       6.996   5.311  20.103  0.00  0.00    +0.000 OA
ATOM     12  O   UNL     1       7.870   4.609  18.124  0.00  0.00    +0.000 OA
ATOM     13  C   UNL     1       7.358   4.465  16.795  0.00  0.00    +0.000 C 
ATOM     14  C   UNL     1       5.856   4.312  16.953  0.00  0.00    +0.000 C 
BRANCH  14  15
ATOM     15  C   UNL     1       5.060   5.002  15.819  0.00  0.00    +0.000 C 
ATOM     16  C   UNL     1       5.183   6.520  15.815  0.00  0.00    +0.000 C 
BRANCH  15  17
ATOM     17  O   UNL     1       5.477   4.577  14.517  0.00  0.00    +0.000 OA
ATOM     18  H   UNL     1       5.908   3.701  14.580  0.00  0.00    +0.000 HD
ENDBRANCH  15  17
ENDBRANCH  14  15
ENDBRANCH   6   9
BRANCH   1  19
ATOM     19  C   UNL     1       2.116   8.324  19.126  0.00  0.00    +0.000 C 
ATOM     20  C   UNL     1       2.058   7.718  17.718  0.00  0.00    +0.000 C 
BRANCH  19  24
ATOM     21  C   UNL     1      -0.961  11.316  19.883  0.00  0.00    +0.000 A 
ATOM     22  C   UNL     1      -0.716  10.822  18.595  0.00  0.00    +0.000 A 
ATOM     23  C   UNL     1       0.266   9.853  18.376  0.00  0.00    +0.000 A 
ATOM     24  C   UNL     1       1.031   9.338  19.439  0.00  0.00    +0.000 A 
ATOM     25  C   UNL     1       0.776   9.835  20.716  0.00  0.00    +0.000 A 
ATOM     26  F   UNL     1       1.479   9.404  21.775  0.00  0.00    +0.000 F 
ATOM     27  C   UNL     1      -0.209  10.795  20.945  0.00  0.00    +0.000 A 
BRANCH  21  29
ATOM     28  C   UNL     1      -3.275  12.027  19.259  0.00  0.00    +0.000 C 
ATOM     29  C   UNL     1      -2.036  12.369  20.090  0.00  0.00    +0.000 C 
ATOM     30  C   UNL     1      -2.410  12.577  21.562  0.00  0.00    +0.000 C 
ENDBRANCH  21  29
ENDBRANCH  19  24
ENDBRANCH   1  19
TORSDOF 6
ENDMDL
MODEL 4
REMARK VINA RESULT:      -7.3      4.333      8.669
REMARK  Name = 
REMARK  10 active torsions:
REMARK  status: ('A' for Active; 'I' for Inactive)
REMARK    1  A    between atoms: C_1  and  C_2
REMARK    2  A    between atoms: C_2  and  C_3
REMARK    3  A    between atoms: C_2  and  C_4
REMARK    4  A    between atoms: C_7  and  C_8
REMARK    5  A    between atoms: C_8  and  C_9
REMARK    6  A    between atoms: C_8  and  N_10
REMARK    7  A    between atoms: C_15  and  N_16
REMARK    8  A    between atoms: C_21  and  C_22
REMARK    9  A    between atoms: C_22  and  C_23
REMARK   10  A    between atoms: C_22  and  O_24
REMARK                            x       y       z     vdW  Elec       q    Type
REMARK                         _______ _______ _______ _____ _____    ______ ____
ROOT
ATOM      1  N   UNL     1       1.436   8.567  17.815  0.00  0.00    +0.000 N 
ATOM      2  C   UNL     1       0.718   9.691  18.173  0.00  0.00    +0.000 A 
ATOM      3  N   UNL     1      -0.576   9.685  17.841  0.00  0.00    +0.000 NA
ATOM      4  C   UNL     1      -1.318  10.725  18.259  0.00  0.00    +0.000 A 
ATOM      5  C   UNL     1      -0.822  11.739  19.035  0.00  0.00    +0.000 A 
ATOM      6  C   UNL     1       0.529  11.682  19.285  0.00  0.00    +0.000 A 
ATOM      7  N   UNL     1       1.322  10.703  18.812  0.00  0.00    +0.000 NA
ATOM      8  H   UNL     1       0.762   7.870  17.515  0.00  0.00    +0.000 HD
ENDROOT
BRANCH   6   9
ATOM      9  N   UNL     1       1.133  12.726  19.999  0.00  0.00    +0.000 N 
ATOM     10  C   UNL     1       0.881  12.911  21.342  0.00  0.00    +0.000 C 
ATOM     11  O   UNL     1      -0.023  12.426  22.003  0.00  0.00    +0.000 OA
ATOM     12  O   UNL     1       1.850  13.711  21.885  0.00  0.00    +0.000 OA
ATOM     13  C   UNL     1       2.658  14.213  20.814  0.00  0.00    +0.000 C 
ATOM     14  C   UNL     1       2.421  13.267  19.650  0.00  0.00    +0.000 C 
BRANCH  14  15
ATOM     15  C   UNL     1       2.406  13.992  18.282  0.00  0.00    +0.000 C 
ATOM     16  C   UNL     1       3.573  14.949  18.079  0.00  0.00    +0.000 C 
BRANCH  15  17
ATOM     17  O   UNL     1       2.455  13.084  17.177  0.00  0.00    +0.000 OA
ATOM     18  H   UNL     1       1.616  12.582  17.127  0.00  0.00    +0.000 HD
ENDBRANCH  15  17
ENDBRANCH  14  15
ENDBRANCH   6   9
BRANCH   1  19
ATOM     19  C   UNL     1       2.410   8.076  18.784  0.00  0.00    +0.000 C 
ATOM     20  C   UNL     1       1.720   7.618  20.075  0.00  0.00    +0.000 C 
BRANCH  19  24
ATOM     21  C   UNL     1       4.854   5.156  16.664  0.00  0.00    +0.000 A 
ATOM     22  C   UNL     1       5.258   6.489  16.806  0.00  0.00    +0.000 A 
ATOM     23  C   UNL     1       4.466   7.407  17.501  0.00  0.00    +0.000 A 
ATOM     24  C   UNL     1       3.246   7.019  18.087  0.00  0.00    +0.000 A 
ATOM     25  C   UNL     1       2.857   5.689  17.943  0.00  0.00    +0.000 A 
ATOM     26  F   UNL     1       1.697   5.252  18.458  0.00  0.00    +0.000 F 
ATOM     27  C   UNL     1       3.646   4.764  17.259  0.00  0.00    +0.000 A 
BRANCH  21  29
ATOM     28  C   UNL     1       5.497   4.315  14.400  0.00  0.00    +0.000 C 
ATOM     29  C   UNL     1       5.737   4.181  15.905  0.00  0.00    +0.000 C 
ATOM     30  C   UNL     1       7.227   4.326  16.232  0.00  0.00    +0.000 C 
ENDBRANCH  21  29
ENDBRANCH  19  24
ENDBRANCH   1  19
TORSDOF 6
ENDMDL
MODEL 5
REMARK VINA RESULT:      -7.2      4.460      8.572
REMARK  Name = 
REMARK  10 active torsions:
REMARK  status: ('A' for Active; 'I' for Inactive)
REMARK    1  A    between atoms: C_1  and  C_2
REMARK    2  A    between atoms: C_2  and  C_3
REMARK    3  A    between atoms: C_2  and  C_4
REMARK    4  A    between atoms: C_7  and  C_8
REMARK    5  A    between atoms: C_8  and  C_9
REMARK    6  A    between atoms: C_8  and  N_10
REMARK    7  A    between atoms: C_15  and  N_16
REMARK    8  A    between atoms: C_21  and  C_22
REMARK    9  A    between atoms: C_22  and  C_23
REMARK   10  A    between atoms: C_22  and  O_24
REMARK                            x       y       z     vdW  Elec       q    Type
REMARK                         _______ _______ _______ _____ _____    ______ ____
ROOT
ATOM      1  N   UNL     1       1.114   8.901  18.499  0.00  0.00    +0.000 N 
ATOM      2  C   UNL     1       0.537  10.151  18.613  0.00  0.00    +0.000 A 
ATOM      3  N   UNL     1      -0.680  10.281  18.078  0.00  0.00    +0.000 NA
ATOM      4  C   UNL     1      -1.301  11.460  18.255  0.00  0.00    +0.000 A 
ATOM      5  C   UNL     1      -0.770  12.488  18.987  0.00  0.00    +0.000 A 
ATOM      6  C   UNL     1       0.505  12.278  19.459  0.00  0.00    +0.000 A 
ATOM      7  N   UNL     1       1.195  11.145  19.229  0.00  0.00    +0.000 NA
ATOM      8  H   UNL     1       0.389   8.271  18.170  0.00  0.00    +0.000 HD
ENDROOT
BRANCH   6   9
ATOM      9  N   UNL     1       1.156  13.312  20.144  0.00  0.00    +0.000 N 
ATOM     10  C   UNL     1       0.938  13.524  21.489  0.00  0.00    +0.000 C 
ATOM     11  O   UNL     1       0.032  13.078  22.176  0.00  0.00    +0.000 OA
ATOM     12  O   UNL     1       1.942  14.301  22.000  0.00  0.00    +0.000 OA
ATOM     13  C   UNL     1       2.743  14.762  20.906  0.00  0.00    +0.000 C 
ATOM     14  C   UNL     1       2.453  13.807  19.761  0.00  0.00    +0.000 C 
BRANCH  14  15
ATOM     15  C   UNL     1       2.432  14.512  18.383  0.00  0.00    +0.000 C 
ATOM     16  C   UNL     1       2.457  16.033  18.469  0.00  0.00    +0.000 C 
BRANCH  15  17
ATOM     17  O   UNL     1       3.550  14.153  17.564  0.00  0.00    +0.000 OA
ATOM     18  H   UNL     1       3.274  13.480  16.909  0.00  0.00    +0.000 HD
ENDBRANCH  15  17
ENDBRANCH  14  15
ENDBRANCH   6   9
BRANCH   1  19
ATOM     19  C   UNL     1       1.849   8.412  19.661  0.00  0.00    +0.000 C 
ATOM     20  C   UNL     1       0.991   8.493  20.929  0.00  0.00    +0.000 C 
BRANCH  19  24
ATOM     21  C   UNL     1       3.351   4.405  18.836  0.00  0.00    +0.000 A 
ATOM     22  C   UNL     1       2.489   4.661  19.910  0.00  0.00    +0.000 A 
ATOM     23  C   UNL     1       2.008   5.951  20.149  0.00  0.00    +0.000 A 
ATOM     24  C   UNL     1       2.366   7.027  19.316  0.00  0.00    +0.000 A 
ATOM     25  C   UNL     1       3.221   6.759  18.249  0.00  0.00    +0.000 A 
ATOM     26  F   UNL     1       3.620   7.740  17.424  0.00  0.00    +0.000 F 
ATOM     27  C   UNL     1       3.697   5.473  17.997  0.00  0.00    +0.000 A 
BRANCH  21  29
ATOM     28  C   UNL     1       4.352   2.384  19.914  0.00  0.00    +0.000 C 
ATOM     29  C   UNL     1       3.856   2.992  18.600  0.00  0.00    +0.000 C 
ATOM     30  C   UNL     1       2.821   2.077  17.935  0.00  0.00    +0.000 C 
ENDBRANCH  21  29
ENDBRANCH  19  24
ENDBRANCH   1  19
TORSDOF 6
ENDMDL
MODEL 6
REMARK VINA RESULT:      -7.1      0.822      1.075
REMARK  Name = 
REMARK  10 active torsions:
REMARK  status: ('A' for Active; 'I' for Inactive)
REMARK    1  A    between atoms: C_1  and  C_2
REMARK    2  A    between atoms: C_2  and  C_3
REMARK    3  A    between atoms: C_2  and  C_4
REMARK    4  A    between atoms: C_7  and  C_8
REMARK    5  A    between atoms: C_8  and  C_9
REMARK    6  A    between atoms: C_8  and  N_10
REMARK    7  A    between atoms: C_15  and  N_16
REMARK    8  A    between atoms: C_21  and  C_22
REMARK    9  A    between atoms: C_22  and  C_23
REMARK   10  A    between atoms: C_22  and  O_24
REMARK                            x       y       z     vdW  Elec       q    Type
REMARK                         _______ _______ _______ _____ _____    ______ ____
ROOT
ATOM      1  N   UNL     1       2.137   7.078  20.257  0.00  0.00    +0.000 N 
ATOM      2  C   UNL     1       2.875   5.932  20.031  0.00  0.00    +0.000 A 
ATOM      3  N   UNL     1       2.324   4.792  20.457  0.00  0.00    +0.000 NA
ATOM      4  C   UNL     1       2.978   3.654  20.168  0.00  0.00    +0.000 A 
ATOM      5  C   UNL     1       4.130   3.615  19.429  0.00  0.00    +0.000 A 
ATOM      6  C   UNL     1       4.644   4.840  19.075  0.00  0.00    +0.000 A 
ATOM      7  N   UNL     1       4.066   6.006  19.420  0.00  0.00    +0.000 NA
ATOM      8  H   UNL     1       1.215   6.780  20.558  0.00  0.00    +0.000 HD
ENDROOT
BRANCH   6   9
ATOM      9  N   UNL     1       5.867   4.894  18.392  0.00  0.00    +0.000 N 
ATOM     10  C   UNL     1       7.055   5.072  19.070  0.00  0.00    +0.000 C 
ATOM     11  O   UNL     1       7.206   5.452  20.220  0.00  0.00    +0.000 OA
ATOM     12  O   UNL     1       8.101   4.706  18.266  0.00  0.00    +0.000 OA
ATOM     13  C   UNL     1       7.583   4.455  16.955  0.00  0.00    +0.000 C 
ATOM     14  C   UNL     1       6.096   4.207  17.147  0.00  0.00    +0.000 C 
BRANCH  14  15
ATOM     15  C   UNL     1       5.240   4.778  15.991  0.00  0.00    +0.000 C 
ATOM     16  C   UNL     1       5.895   4.660  14.621  0.00  0.00    +0.000 C 
BRANCH  15  17
ATOM     17  O   UNL     1       3.972   4.125  15.871  0.00  0.00    +0.000 OA
ATOM     18  H   UNL     1       3.731   4.045  14.927  0.00  0.00    +0.000 HD
ENDBRANCH  15  17
ENDBRANCH  14  15
ENDBRANCH   6   9
BRANCH   1  19
ATOM     19  C   UNL     1       2.124   8.070  19.187  0.00  0.00    +0.000 C 
ATOM     20  C   UNL     1       1.693   7.439  17.857  0.00  0.00    +0.000 C 
BRANCH  19  24
ATOM     21  C   UNL     1      -0.450  11.296  20.587  0.00  0.00    +0.000 A 
ATOM     22  C   UNL     1      -0.376  10.069  21.259  0.00  0.00    +0.000 A 
ATOM     23  C   UNL     1       0.466   9.052  20.801  0.00  0.00    +0.000 A 
ATOM     24  C   UNL     1       1.270   9.231  19.660  0.00  0.00    +0.000 A 
ATOM     25  C   UNL     1       1.191  10.458  19.003  0.00  0.00    +0.000 A 
ATOM     26  F   UNL     1       1.915  10.693  17.897  0.00  0.00    +0.000 F 
ATOM     27  C   UNL     1       0.362  11.482  19.458  0.00  0.00    +0.000 A 
BRANCH  21  29
ATOM     28  C   UNL     1      -0.618  13.709  21.216  0.00  0.00    +0.000 C 
ATOM     29  C   UNL     1      -1.373  12.383  21.110  0.00  0.00    +0.000 C 
ATOM     30  C   UNL     1      -2.650  12.550  20.279  0.00  0.00    +0.000 C 
ENDBRANCH  21  29
ENDBRANCH  19  24
ENDBRANCH   1  19
TORSDOF 6
ENDMDL
MODEL 7
REMARK VINA RESULT:      -7.1      5.678     10.491
REMARK  Name = 
REMARK  10 active torsions:
REMARK  status: ('A' for Active; 'I' for Inactive)
REMARK    1  A    between atoms: C_1  and  C_2
REMARK    2  A    between atoms: C_2  and  C_3
REMARK    3  A    between atoms: C_2  and  C_4
REMARK    4  A    between atoms: C_7  and  C_8
REMARK    5  A    between atoms: C_8  and  C_9
REMARK    6  A    between atoms: C_8  and  N_10
REMARK    7  A    between atoms: C_15  and  N_16
REMARK    8  A    between atoms: C_21  and  C_22
REMARK    9  A    between atoms: C_22  and  C_23
REMARK   10  A    between atoms: C_22  and  O_24
REMARK                            x       y       z     vdW  Elec       q    Type
REMARK                         _______ _______ _______ _____ _____    ______ ____
ROOT
ATOM      1  N   UNL     1       0.551  11.639  19.691  0.00  0.00    +0.000 N 
ATOM      2  C   UNL     1      -0.208  12.719  20.099  0.00  0.00    +0.000 A 
ATOM      3  N   UNL     1       0.062  13.881  19.497  0.00  0.00    +0.000 NA
ATOM      4  C   UNL     1      -0.724  14.926  19.809  0.00  0.00    +0.000 A 
ATOM      5  C   UNL     1      -1.793  14.836  20.660  0.00  0.00    +0.000 A 
ATOM      6  C   UNL     1      -1.962  13.613  21.266  0.00  0.00    +0.000 A 
ATOM      7  N   UNL     1      -1.145  12.566  21.046  0.00  0.00    +0.000 NA
ATOM      8  H   UNL     1       1.058  11.932  18.862  0.00  0.00    +0.000 HD
ENDROOT
BRANCH   6   9
ATOM      9  N   UNL     1      -2.980  13.460  22.217  0.00  0.00    +0.000 N 
ATOM     10  C   UNL     1      -4.152  12.802  21.906  0.00  0.00    +0.000 C 
ATOM     11  O   UNL     1      -4.575  12.517  20.797  0.00  0.00    +0.000 OA
ATOM     12  O   UNL     1      -4.797  12.445  23.059  0.00  0.00    +0.000 OA
ATOM     13  C   UNL     1      -4.109  13.056  24.156  0.00  0.00    +0.000 C 
ATOM     14  C   UNL     1      -2.723  13.388  23.631  0.00  0.00    +0.000 C 
BRANCH  14  15
ATOM     15  C   UNL     1      -2.170  14.717  24.199  0.00  0.00    +0.000 C 
ATOM     16  C   UNL     1      -2.725  15.080  25.570  0.00  0.00    +0.000 C 
BRANCH  15  17
ATOM     17  O   UNL     1      -0.747  14.701  24.350  0.00  0.00    +0.000 OA
ATOM     18  H   UNL     1      -0.436  13.778  24.443  0.00  0.00    +0.000 HD
ENDBRANCH  15  17
ENDBRANCH  14  15
ENDBRANCH   6   9
BRANCH   1  19
ATOM     19  C   UNL     1      -0.147  10.366  19.546  0.00  0.00    +0.000 C 
ATOM     20  C   UNL     1      -1.278  10.473  18.517  0.00  0.00    +0.000 C 
BRANCH  19  24
ATOM     21  C   UNL     1       2.798   7.316  18.538  0.00  0.00    +0.000 A 
ATOM     22  C   UNL     1       2.407   8.295  17.615  0.00  0.00    +0.000 A 
ATOM     23  C   UNL     1       1.471   9.273  17.962  0.00  0.00    +0.000 A 
ATOM     24  C   UNL     1       0.901   9.310  19.249  0.00  0.00    +0.000 A 
ATOM     25  C   UNL     1       1.302   8.333  20.159  0.00  0.00    +0.000 A 
ATOM     26  F   UNL     1       0.786   8.295  21.398  0.00  0.00    +0.000 F 
ATOM     27  C   UNL     1       2.243   7.360  19.824  0.00  0.00    +0.000 A 
BRANCH  21  29
ATOM     28  C   UNL     1       3.113   4.969  17.740  0.00  0.00    +0.000 C 
ATOM     29  C   UNL     1       3.819   6.268  18.130  0.00  0.00    +0.000 C 
ATOM     30  C   UNL     1       4.758   6.734  17.012  0.00  0.00    +0.000 C 
ENDBRANCH  21  29
ENDBRANCH  19  24
ENDBRANCH   1  19
TORSDOF 6
ENDMDL
MODEL 8
REMARK VINA RESULT:      -7.1      4.612      8.560
REMARK  Name = 
REMARK  10 active torsions:
REMARK  status: ('A' for Active; 'I' for Inactive)
REMARK    1  A    between atoms: C_1  and  C_2
REMARK    2  A    between atoms: C_2  and  C_3
REMARK    3  A    between atoms: C_2  and  C_4
REMARK    4  A    between atoms: C_7  and  C_8
REMARK    5  A    between atoms: C_8  and  C_9
REMARK    6  A    between atoms: C_8  and  N_10
REMARK    7  A    between atoms: C_15  and  N_16
REMARK    8  A    between atoms: C_21  and  C_22
REMARK    9  A    between atoms: C_22  and  C_23
REMARK   10  A    between atoms: C_22  and  O_24
REMARK                            x       y       z     vdW  Elec       q    Type
REMARK                         _______ _______ _______ _____ _____    ______ ____
ROOT
ATOM      1  N   UNL     1       0.723   9.386  18.802  0.00  0.00    +0.000 N 
ATOM      2  C   UNL     1       0.409  10.729  18.879  0.00  0.00    +0.000 A 
ATOM      3  N   UNL     1      -0.802  11.071  18.432  0.00  0.00    +0.000 NA
ATOM      4  C   UNL     1      -1.168  12.356  18.581  0.00  0.00    +0.000 A 
ATOM      5  C   UNL     1      -0.387  13.292  19.203  0.00  0.00    +0.000 A 
ATOM      6  C   UNL     1       0.859  12.858  19.589  0.00  0.00    +0.000 A 
ATOM      7  N   UNL     1       1.296  11.602  19.379  0.00  0.00    +0.000 NA
ATOM      8  H   UNL     1      -0.136   8.896  18.570  0.00  0.00    +0.000 HD
ENDROOT
BRANCH   6   9
ATOM      9  N   UNL     1       1.755  13.776  20.156  0.00  0.00    +0.000 N 
ATOM     10  C   UNL     1       1.679  14.113  21.491  0.00  0.00    +0.000 C 
ATOM     11  O   UNL     1       0.751  13.911  22.258  0.00  0.00    +0.000 OA
ATOM     12  O   UNL     1       2.854  14.694  21.884  0.00  0.00    +0.000 OA
ATOM     13  C   UNL     1       3.653  14.907  20.715  0.00  0.00    +0.000 C 
ATOM     14  C   UNL     1       3.095  13.963  19.665  0.00  0.00    +0.000 C 
BRANCH  14  15
ATOM     15  C   UNL     1       3.123  14.568  18.240  0.00  0.00    +0.000 C 
ATOM     16  C   UNL     1       2.789  16.053  18.194  0.00  0.00    +0.000 C 
BRANCH  15  17
ATOM     17  O   UNL     1       4.403  14.439  17.613  0.00  0.00    +0.000 OA
ATOM     18  H   UNL     1       4.433  13.611  17.094  0.00  0.00    +0.000 HD
ENDBRANCH  15  17
ENDBRANCH  14  15
ENDBRANCH   6   9
BRANCH   1  19
ATOM     19  C   UNL     1       1.448   8.817  19.933  0.00  0.00    +0.000 C 
ATOM     20  C   UNL     1       0.565   8.770  21.185  0.00  0.00    +0.000 C 
BRANCH  19  24
ATOM     21  C   UNL     1       3.089   4.942  18.801  0.00  0.00    +0.000 A 
ATOM     22  C   UNL     1       2.346   5.111  19.977  0.00  0.00    +0.000 A 
ATOM     23  C   UNL     1       1.817   6.360  20.315  0.00  0.00    +0.000 A 
ATOM     24  C   UNL     1       2.006   7.480  19.483  0.00  0.00    +0.000 A 
ATOM     25  C   UNL     1       2.743   7.297  18.314  0.00  0.00    +0.000 A 
ATOM     26  F   UNL     1       2.980   8.324  17.483  0.00  0.00    +0.000 F 
ATOM     27  C   UNL     1       3.266   6.053  17.965  0.00  0.00    +0.000 A 
BRANCH  21  29
ATOM     28  C   UNL     1       4.468   3.644  17.170  0.00  0.00    +0.000 C 
ATOM     29  C   UNL     1       3.650   3.572  18.460  0.00  0.00    +0.000 C 
ATOM     30  C   UNL     1       4.476   2.952  19.593  0.00  0.00    +0.000 C 
ENDBRANCH  21  29
ENDBRANCH  19  24
ENDBRANCH   1  19
TORSDOF 6
ENDMDL
MODEL 9
REMARK VINA RESULT:      -7.0      5.551     10.053
REMARK  Name = 
REMARK  10 active torsions:
REMARK  status: ('A' for Active; 'I' for Inactive)
REMARK    1  A    between atoms: C_1  and  C_2
REMARK    2  A    between atoms: C_2  and  C_3
REMARK    3  A    between atoms: C_2  and  C_4
REMARK    4  A    between atoms: C_7  and  C_8
REMARK    5  A    between atoms: C_8  and  C_9
REMARK    6  A    between atoms: C_8  and  N_10
REMARK    7  A    between atoms: C_15  and  N_16
REMARK    8  A    between atoms: C_21  and  C_22
REMARK    9  A    between atoms: C_22  and  C_23
REMARK   10  A    between atoms: C_22  and  O_24
REMARK                            x       y       z     vdW  Elec       q    Type
REMARK                         _______ _______ _______ _____ _____    ______ ____
ROOT
ATOM      1  N   UNL     1       0.970  11.597  19.004  0.00  0.00    +0.000 N 
ATOM      2  C   UNL     1       0.439  12.798  19.435  0.00  0.00    +0.000 A 
ATOM      3  N   UNL     1       0.364  13.764  18.516  0.00  0.00    +0.000 NA
ATOM      4  C   UNL     1      -0.232  14.911  18.885  0.00  0.00    +0.000 A 
ATOM      5  C   UNL     1      -0.796  15.103  20.117  0.00  0.00    +0.000 A 
ATOM      6  C   UNL     1      -0.628  14.070  21.010  0.00  0.00    +0.000 A 
ATOM      7  N   UNL     1       0.039  12.941  20.707  0.00  0.00    +0.000 NA
ATOM      8  H   UNL     1       1.034  11.650  17.992  0.00  0.00    +0.000 HD
ENDROOT
BRANCH   6   9
ATOM      9  N   UNL     1      -1.099  14.220  22.321  0.00  0.00    +0.000 N 
ATOM     10  C   UNL     1      -0.472  15.068  23.210  0.00  0.00    +0.000 C 
ATOM     11  O   UNL     1       0.638  15.565  23.109  0.00  0.00    +0.000 OA
ATOM     12  O   UNL     1      -1.313  15.338  24.256  0.00  0.00    +0.000 OA
ATOM     13  C   UNL     1      -2.458  14.487  24.132  0.00  0.00    +0.000 C 
ATOM     14  C   UNL     1      -2.483  14.051  22.678  0.00  0.00    +0.000 C 
BRANCH  14  15
ATOM     15  C   UNL     1      -2.965  12.591  22.498  0.00  0.00    +0.000 C 
ATOM     16  C   UNL     1      -2.127  11.568  23.254  0.00  0.00    +0.000 C 
BRANCH  15  17
ATOM     17  O   UNL     1      -4.310  12.396  22.946  0.00  0.00    +0.000 OA
ATOM     18  H   UNL     1      -4.767  13.260  22.999  0.00  0.00    +0.000 HD
ENDBRANCH  15  17
ENDBRANCH  14  15
ENDBRANCH   6   9
BRANCH   1  19
ATOM     19  C   UNL     1       0.329  10.383  19.498  0.00  0.00    +0.000 C 
ATOM     20  C   UNL     1      -1.096  10.250  18.948  0.00  0.00    +0.000 C 
BRANCH  19  24
ATOM     21  C   UNL     1       2.932   7.055  18.433  0.00  0.00    +0.000 A 
ATOM     22  C   UNL     1       2.699   8.118  17.551  0.00  0.00    +0.000 A 
ATOM     23  C   UNL     1       1.871   9.182  17.917  0.00  0.00    +0.000 A 
ATOM     24  C   UNL     1       1.256   9.224  19.182  0.00  0.00    +0.000 A 
ATOM     25  C   UNL     1       1.499   8.163  20.052  0.00  0.00    +0.000 A 
ATOM     26  F   UNL     1       0.931   8.125  21.268  0.00  0.00    +0.000 F 
ATOM     27  C   UNL     1       2.331   7.102  19.699  0.00  0.00    +0.000 A 
BRANCH  21  29
ATOM     28  C   UNL     1       3.009   4.657  17.731  0.00  0.00    +0.000 C 
ATOM     29  C   UNL     1       3.838   5.912  18.007  0.00  0.00    +0.000 C 
ATOM     30  C   UNL     1       4.724   6.253  16.804  0.00  0.00    +0.000 C 
ENDBRANCH  21  29
ENDBRANCH  19  24
ENDBRANCH   1  19
TORSDOF 6
ENDMDL
