MODEL 1
REMARK VINA RESULT:      -8.8      0.000      0.000
REMARK  Name = 
REMARK  2 active torsions:
REMARK  status: ('A' for Active; 'I' for Inactive)
REMARK    1  A    between atoms: C_8  and  C_9
REMARK    2  A    between atoms: N_13  and  C_14
REMARK                            x       y       z     vdW  Elec       q    Type
REMARK                         _______ _______ _______ _____ _____    ______ ____
ROOT
ATOM      1  C   UNL     1       0.164  12.035  18.447  0.00  0.00    +0.000 A 
ATOM      2  N   UNL     1       0.374  13.320  18.369  0.00  0.00    +0.000 NA
ATOM      3  N   UNL     1       1.703  13.449  18.315  0.00  0.00    +0.000 NA
ATOM      4  N   UNL     1       2.430  12.269  18.415  0.00  0.00    +0.000 NA
ATOM      5  N   UNL     1       1.523  11.075  18.687  0.00  0.00    +0.000 N 
ENDROOT
BRANCH   1  13
ATOM      6  O   UNL     1      -7.162  10.130  19.147  0.00  0.00    +0.000 OA
ATOM      7  S   UNL     1      -6.473  11.228  18.501  0.00  0.00    +0.000 S 
ATOM      8  O   UNL     1      -7.142  12.103  17.557  0.00  0.00    +0.000 OA
ATOM      9  C   UNL     1      -5.895  12.243  19.745  0.00  0.00    +0.000 C 
ATOM     10  C   UNL     1      -4.606  12.495  19.937  0.00  0.00    +0.000 C 
ATOM     11  C   UNL     1      -3.561  11.862  19.138  0.00  0.00    +0.000 A 
ATOM     12  C   UNL     1      -2.207  12.142  19.388  0.00  0.00    +0.000 A 
ATOM     13  C   UNL     1      -1.222  11.525  18.593  0.00  0.00    +0.000 A 
ATOM     14  C   UNL     1      -1.585  10.534  17.679  0.00  0.00    +0.000 A 
ATOM     15  C   UNL     1      -2.912  10.325  17.372  0.00  0.00    +0.000 A 
ATOM     16  C   UNL     1      -3.893  10.973  18.109  0.00  0.00    +0.000 A 
ATOM     17  O   UNL     1      -5.162  10.632  17.761  0.00  0.00    +0.000 OA
ENDBRANCH   1  13
BRANCH   5  18
ATOM     18  C   UNL     1       1.505   9.238  18.935  0.00  0.00    +0.000 A 
ATOM     19  C   UNL     1       1.902   9.183  17.757  0.00  0.00    +0.000 A 
ATOM     20  C   UNL     1       2.886   8.492  18.068  0.00  0.00    +0.000 A 
ATOM     21  C   UNL     1       2.319   7.335  17.623  0.00  0.00    +0.000 A 
ATOM     22  C   UNL     1       1.906   6.536  18.590  0.00  0.00    +0.000 A 
ATOM     23  C   UNL     1       1.886   4.962  17.933  0.00  0.00    +0.000 A 
ATOM     24  C   UNL     1       1.879   3.750  18.552  0.00  0.00    +0.000 A 
ATOM     25  C   UNL     1       2.222   4.068  19.839  0.00  0.00    +0.000 A 
ATOM     26  C   UNL     1       2.238   5.756  20.355  0.00  0.00    +0.000 A 
ATOM     27  C   UNL     1       1.883   7.450  19.665  0.00  0.00    +0.000 A 
ENDBRANCH   5  18
TORSDOF 2
ENDMDL
MODEL 2
REMARK VINA RESULT:      -8.6      5.230      8.268
REMARK  Name = 
REMARK  2 active torsions:
REMARK  status: ('A' for Active; 'I' for Inactive)
REMARK    1  A    between atoms: C_8  and  C_9
REMARK    2  A    between atoms: N_13  and  C_14
REMARK                            x       y       z     vdW  Elec       q    Type
REMARK                         _______ _______ _______ _____ _____    ______ ____
ROOT
ATOM      1  C   UNL     1       0.991   8.755  21.408  0.00  0.00    +0.000 A 
ATOM      2  N   UNL     1       1.641   8.965  22.518  0.00  0.00    +0.000 NA
ATOM      3  N   UNL     1       1.008   9.990  23.099  0.00  0.00    +0.000 NA
ATOM      4  N   UNL     1      -0.044  10.539  22.376  0.00  0.00    +0.000 NA
ATOM      5  N   UNL     1      -0.165   9.904  20.996  0.00  0.00    +0.000 N 
ENDROOT
BRANCH   1  13
ATOM      6  O   UNL     1       4.082   3.798  16.543  0.00  0.00    +0.000 OA
ATOM      7  S   UNL     1       4.628   4.676  17.556  0.00  0.00    +0.000 S 
ATOM      8  O   UNL     1       5.993   4.542  18.030  0.00  0.00    +0.000 OA
ATOM      9  C   UNL     1       4.503   6.265  16.946  0.00  0.00    +0.000 C 
ATOM     10  C   UNL     1       3.788   7.215  17.537  0.00  0.00    +0.000 C 
ATOM     11  C   UNL     1       2.984   6.959  18.727  0.00  0.00    +0.000 A 
ATOM     12  C   UNL     1       2.225   7.989  19.308  0.00  0.00    +0.000 A 
ATOM     13  C   UNL     1       1.468   7.715  20.464  0.00  0.00    +0.000 A 
ATOM     14  C   UNL     1       1.353   6.402  20.924  0.00  0.00    +0.000 A 
ATOM     15  C   UNL     1       2.164   5.412  20.412  0.00  0.00    +0.000 A 
ATOM     16  C   UNL     1       2.961   5.686  19.309  0.00  0.00    +0.000 A 
ATOM     17  O   UNL     1       3.659   4.614  18.851  0.00  0.00    +0.000 OA
ENDBRANCH   1  13
BRANCH   5  18
ATOM     18  C   UNL     1      -1.159   9.909  19.431  0.00  0.00    +0.000 A 
ATOM     19  C   UNL     1      -1.265  11.133  19.629  0.00  0.00    +0.000 A 
ATOM     20  C   UNL     1      -0.824  11.404  18.500  0.00  0.00    +0.000 A 
ATOM     21  C   UNL     1      -2.059  11.676  17.992  0.00  0.00    +0.000 A 
ATOM     22  C   UNL     1      -2.524  10.738  17.188  0.00  0.00    +0.000 A 
ATOM     23  C   UNL     1      -3.655  11.502  16.165  0.00  0.00    +0.000 A 
ATOM     24  C   UNL     1      -4.162  11.108  14.965  0.00  0.00    +0.000 A 
ATOM     25  C   UNL     1      -3.314  10.100  14.595  0.00  0.00    +0.000 A 
ATOM     26  C   UNL     1      -2.164   9.444  15.763  0.00  0.00    +0.000 A 
ATOM     27  C   UNL     1      -1.674   9.670  17.547  0.00  0.00    +0.000 A 
ENDBRANCH   5  18
TORSDOF 2
ENDMDL
MODEL 3
REMARK VINA RESULT:      -8.2      4.662      7.753
REMARK  Name = 
REMARK  2 active torsions:
REMARK  status: ('A' for Active; 'I' for Inactive)
REMARK    1  A    between atoms: C_8  and  C_9
REMARK    2  A    between atoms: N_13  and  C_14
REMARK                            x       y       z     vdW  Elec       q    Type
REMARK                         _______ _______ _______ _____ _____    ______ ____
ROOT
ATOM      1  C   UNL     1       0.648   9.235  21.719  0.00  0.00    +0.000 A 
ATOM      2  N   UNL     1       1.103   9.529  22.906  0.00  0.00    +0.000 NA
ATOM      3  N   UNL     1       0.212  10.386  23.414  0.00  0.00    +0.000 NA
ATOM      4  N   UNL     1      -0.833  10.744  22.569  0.00  0.00    +0.000 NA
ATOM      5  N   UNL     1      -0.656  10.147  21.178  0.00  0.00    +0.000 N 
ENDROOT
BRANCH   1  13
ATOM      6  O   UNL     1       4.183   4.143  17.320  0.00  0.00    +0.000 OA
ATOM      7  S   UNL     1       2.806   4.326  17.727  0.00  0.00    +0.000 S 
ATOM      8  O   UNL     1       1.715   3.628  17.072  0.00  0.00    +0.000 OA
ATOM      9  C   UNL     1       2.718   3.883  19.372  0.00  0.00    +0.000 C 
ATOM     10  C   UNL     1       2.357   4.726  20.332  0.00  0.00    +0.000 C 
ATOM     11  C   UNL     1       2.074   6.133  20.069  0.00  0.00    +0.000 A 
ATOM     12  C   UNL     1       1.715   6.995  21.119  0.00  0.00    +0.000 A 
ATOM     13  C   UNL     1       1.436   8.345  20.831  0.00  0.00    +0.000 A 
ATOM     14  C   UNL     1       1.667   8.846  19.549  0.00  0.00    +0.000 A 
ATOM     15  C   UNL     1       1.931   7.987  18.504  0.00  0.00    +0.000 A 
ATOM     16  C   UNL     1       2.149   6.641  18.767  0.00  0.00    +0.000 A 
ATOM     17  O   UNL     1       2.471   5.909  17.668  0.00  0.00    +0.000 OA
ENDBRANCH   1  13
BRANCH   5  18
ATOM     18  C   UNL     1      -1.433  10.014  19.500  0.00  0.00    +0.000 A 
ATOM     19  C   UNL     1      -1.632  11.237  19.613  0.00  0.00    +0.000 A 
ATOM     20  C   UNL     1      -1.062  11.480  18.537  0.00  0.00    +0.000 A 
ATOM     21  C   UNL     1      -2.232  11.648  17.859  0.00  0.00    +0.000 A 
ATOM     22  C   UNL     1      -2.533  10.644  17.056  0.00  0.00    +0.000 A 
ATOM     23  C   UNL     1      -3.560  11.285  15.854  0.00  0.00    +0.000 A 
ATOM     24  C   UNL     1      -3.882  10.802  14.623  0.00  0.00    +0.000 A 
ATOM     25  C   UNL     1      -2.936   9.833  14.424  0.00  0.00    +0.000 A 
ATOM     26  C   UNL     1      -1.916   9.307  15.766  0.00  0.00    +0.000 A 
ATOM     27  C   UNL     1      -1.680   9.651  17.582  0.00  0.00    +0.000 A 
ENDBRANCH   5  18
TORSDOF 2
ENDMDL
MODEL 4
REMARK VINA RESULT:      -8.1      1.183      1.281
REMARK  Name = 
REMARK  2 active torsions:
REMARK  status: ('A' for Active; 'I' for Inactive)
REMARK    1  A    between atoms: C_8  and  C_9
REMARK    2  A    between atoms: N_13  and  C_14
REMARK                            x       y       z     vdW  Elec       q    Type
REMARK                         _______ _______ _______ _____ _____    ______ ____
ROOT
ATOM      1  C   UNL     1       0.545  12.257  18.521  0.00  0.00    +0.000 A 
ATOM      2  N   UNL     1       0.883  13.505  18.352  0.00  0.00    +0.000 NA
ATOM      3  N   UNL     1       2.179  13.471  18.030  0.00  0.00    +0.000 NA
ATOM      4  N   UNL     1       2.770  12.213  18.029  0.00  0.00    +0.000 NA
ATOM      5  N   UNL     1       1.804  11.142  18.523  0.00  0.00    +0.000 N 
ENDROOT
BRANCH   1  13
ATOM      6  O   UNL     1      -6.569  11.243  21.001  0.00  0.00    +0.000 OA
ATOM      7  S   UNL     1      -5.837  12.391  20.508  0.00  0.00    +0.000 S 
ATOM      8  O   UNL     1      -6.508  13.620  20.126  0.00  0.00    +0.000 OA
ATOM      9  C   UNL     1      -4.729  12.828  21.730  0.00  0.00    +0.000 C 
ATOM     10  C   UNL     1      -3.413  12.820  21.553  0.00  0.00    +0.000 C 
ATOM     11  C   UNL     1      -2.796  12.365  20.311  0.00  0.00    +0.000 A 
ATOM     12  C   UNL     1      -1.398  12.354  20.174  0.00  0.00    +0.000 A 
ATOM     13  C   UNL     1      -0.832  11.921  18.959  0.00  0.00    +0.000 A 
ATOM     14  C   UNL     1      -1.646  11.364  17.971  0.00  0.00    +0.000 A 
ATOM     15  C   UNL     1      -3.018  11.456  18.069  0.00  0.00    +0.000 A 
ATOM     16  C   UNL     1      -3.588  11.938  19.239  0.00  0.00    +0.000 A 
ATOM     17  O   UNL     1      -4.947  11.914  19.242  0.00  0.00    +0.000 OA
ENDBRANCH   1  13
BRANCH   5  18
ATOM     18  C   UNL     1       1.623   9.325  18.842  0.00  0.00    +0.000 A 
ATOM     19  C   UNL     1       2.079   9.187  17.692  0.00  0.00    +0.000 A 
ATOM     20  C   UNL     1       2.985   8.435  18.087  0.00  0.00    +0.000 A 
ATOM     21  C   UNL     1       2.351   7.308  17.656  0.00  0.00    +0.000 A 
ATOM     22  C   UNL     1       1.823   6.587  18.627  0.00  0.00    +0.000 A 
ATOM     23  C   UNL     1       1.711   4.992  18.033  0.00  0.00    +0.000 A 
ATOM     24  C   UNL     1       1.572   3.813  18.698  0.00  0.00    +0.000 A 
ATOM     25  C   UNL     1       1.868   4.159  19.989  0.00  0.00    +0.000 A 
ATOM     26  C   UNL     1       1.993   5.862  20.438  0.00  0.00    +0.000 A 
ATOM     27  C   UNL     1       1.814   7.547  19.662  0.00  0.00    +0.000 A 
ENDBRANCH   5  18
TORSDOF 2
ENDMDL
MODEL 5
REMARK VINA RESULT:      -8.1      3.871      5.325
REMARK  Name = 
REMARK  2 active torsions:
REMARK  status: ('A' for Active; 'I' for Inactive)
REMARK    1  A    between atoms: C_8  and  C_9
REMARK    2  A    between atoms: N_13  and  C_14
REMARK                            x       y       z     vdW  Elec       q    Type
REMARK                         _______ _______ _______ _____ _____    ______ ____
ROOT
ATOM      1  C   UNL     1       0.452  14.005  21.750  0.00  0.00    +0.000 A 
ATOM      2  N   UNL     1       1.444  14.413  22.491  0.00  0.00    +0.000 NA
ATOM      3  N   UNL     1       2.497  14.447  21.668  0.00  0.00    +0.000 NA
ATOM      4  N   UNL     1       2.265  14.009  20.370  0.00  0.00    +0.000 NA
ATOM      5  N   UNL     1       0.850  13.466  20.208  0.00  0.00    +0.000 N 
ENDROOT
BRANCH   1  13
ATOM      6  O   UNL     1      -6.669  13.097  24.251  0.00  0.00    +0.000 OA
ATOM      7  S   UNL     1      -6.056  13.039  22.941  0.00  0.00    +0.000 S 
ATOM      8  O   UNL     1      -6.749  12.480  21.795  0.00  0.00    +0.000 OA
ATOM      9  C   UNL     1      -5.668  14.644  22.510  0.00  0.00    +0.000 C 
ATOM     10  C   UNL     1      -4.427  15.054  22.278  0.00  0.00    +0.000 C 
ATOM     11  C   UNL     1      -3.273  14.177  22.444  0.00  0.00    +0.000 A 
ATOM     12  C   UNL     1      -1.974  14.658  22.207  0.00  0.00    +0.000 A 
ATOM     13  C   UNL     1      -0.880  13.783  22.364  0.00  0.00    +0.000 A 
ATOM     14  C   UNL     1      -1.079  12.509  22.899  0.00  0.00    +0.000 A 
ATOM     15  C   UNL     1      -2.355  12.009  23.045  0.00  0.00    +0.000 A 
ATOM     16  C   UNL     1      -3.443  12.844  22.835  0.00  0.00    +0.000 A 
ATOM     17  O   UNL     1      -4.645  12.257  23.080  0.00  0.00    +0.000 OA
ENDBRANCH   1  13
BRANCH   5  18
ATOM     18  C   UNL     1      -0.341  12.740  18.987  0.00  0.00    +0.000 A 
ATOM     19  C   UNL     1       0.288  11.681  19.165  0.00  0.00    +0.000 A 
ATOM     20  C   UNL     1      -0.745  11.057  19.456  0.00  0.00    +0.000 A 
ATOM     21  C   UNL     1      -0.828  10.460  18.233  0.00  0.00    +0.000 A 
ATOM     22  C   UNL     1      -1.777  10.954  17.460  0.00  0.00    +0.000 A 
ATOM     23  C   UNL     1      -2.180   9.723  16.351  0.00  0.00    +0.000 A 
ATOM     24  C   UNL     1      -3.290   9.562  15.580  0.00  0.00    +0.000 A 
ATOM     25  C   UNL     1      -4.172  10.450  16.133  0.00  0.00    +0.000 A 
ATOM     26  C   UNL     1      -3.604  11.641  17.307  0.00  0.00    +0.000 A 
ATOM     27  C   UNL     1      -2.017  12.175  18.125  0.00  0.00    +0.000 A 
ENDBRANCH   5  18
TORSDOF 2
ENDMDL
MODEL 6
REMARK VINA RESULT:      -8.0      4.316      8.023
REMARK  Name = 
REMARK  2 active torsions:
REMARK  status: ('A' for Active; 'I' for Inactive)
REMARK    1  A    between atoms: C_8  and  C_9
REMARK    2  A    between atoms: N_13  and  C_14
REMARK                            x       y       z     vdW  Elec       q    Type
REMARK                         _______ _______ _______ _____ _____    ______ ____
ROOT
ATOM      1  C   UNL     1       0.846  12.064  20.923  0.00  0.00    +0.000 A 
ATOM      2  N   UNL     1       1.970  12.674  21.179  0.00  0.00    +0.000 NA
ATOM      3  N   UNL     1       1.633  13.955  21.361  0.00  0.00    +0.000 NA
ATOM      4  N   UNL     1       0.290  14.260  21.175  0.00  0.00    +0.000 NA
ATOM      5  N   UNL     1      -0.494  13.050  20.680  0.00  0.00    +0.000 N 
ENDROOT
BRANCH   1  13
ATOM      6  O   UNL     1       1.560   4.753  18.966  0.00  0.00    +0.000 OA
ATOM      7  S   UNL     1       2.508   5.792  19.312  0.00  0.00    +0.000 S 
ATOM      8  O   UNL     1       3.893   5.492  19.623  0.00  0.00    +0.000 OA
ATOM      9  C   UNL     1       2.553   6.874  17.993  0.00  0.00    +0.000 C 
ATOM     10  C   UNL     1       2.213   8.153  18.092  0.00  0.00    +0.000 C 
ATOM     11  C   UNL     1       1.700   8.730  19.330  0.00  0.00    +0.000 A 
ATOM     12  C   UNL     1       1.333  10.086  19.385  0.00  0.00    +0.000 A 
ATOM     13  C   UNL     1       0.853  10.617  20.598  0.00  0.00    +0.000 A 
ATOM     14  C   UNL     1       0.598   9.768  21.677  0.00  0.00    +0.000 A 
ATOM     15  C   UNL     1       1.040   8.463  21.653  0.00  0.00    +0.000 A 
ATOM     16  C   UNL     1       1.571   7.944  20.481  0.00  0.00    +0.000 A 
ATOM     17  O   UNL     1       1.903   6.629  20.560  0.00  0.00    +0.000 OA
ENDBRANCH   1  13
BRANCH   5  18
ATOM     18  C   UNL     1      -2.185  12.460  20.203  0.00  0.00    +0.000 A 
ATOM     19  C   UNL     1      -2.554  12.993  21.266  0.00  0.00    +0.000 A 
ATOM     20  C   UNL     1      -3.414  13.674  20.684  0.00  0.00    +0.000 A 
ATOM     21  C   UNL     1      -4.439  12.866  21.075  0.00  0.00    +0.000 A 
ATOM     22  C   UNL     1      -4.914  12.100  20.110  0.00  0.00    +0.000 A 
ATOM     23  C   UNL     1      -6.517  11.718  20.548  0.00  0.00    +0.000 A 
ATOM     24  C   UNL     1      -7.552  11.265  19.789  0.00  0.00    +0.000 A 
ATOM     25  C   UNL     1      -7.112  11.492  18.513  0.00  0.00    +0.000 A 
ATOM     26  C   UNL     1      -5.424  11.926  18.228  0.00  0.00    +0.000 A 
ATOM     27  C   UNL     1      -3.848  12.187  19.188  0.00  0.00    +0.000 A 
ENDBRANCH   5  18
TORSDOF 2
ENDMDL
MODEL 7
REMARK VINA RESULT:      -7.9      5.358      8.145
REMARK  Name = 
REMARK  2 active torsions:
REMARK  status: ('A' for Active; 'I' for Inactive)
REMARK    1  A    between atoms: C_8  and  C_9
REMARK    2  A    between atoms: N_13  and  C_14
REMARK                            x       y       z     vdW  Elec       q    Type
REMARK                         _______ _______ _______ _____ _____    ______ ____
ROOT
ATOM      1  C   UNL     1       0.014  10.763  19.186  0.00  0.00    +0.000 A 
ATOM      2  N   UNL     1      -1.240  10.409  19.245  0.00  0.00    +0.000 NA
ATOM      3  N   UNL     1      -1.920  11.557  19.319  0.00  0.00    +0.000 NA
ATOM      4  N   UNL     1      -1.150  12.713  19.373  0.00  0.00    +0.000 NA
ATOM      5  N   UNL     1       0.338  12.391  19.455  0.00  0.00    +0.000 N 
ENDROOT
BRANCH   1  13
ATOM      6  O   UNL     1       4.892   4.933  19.213  0.00  0.00    +0.000 OA
ATOM      7  S   UNL     1       3.483   5.055  18.901  0.00  0.00    +0.000 S 
ATOM      8  O   UNL     1       2.756   4.002  18.217  0.00  0.00    +0.000 OA
ATOM      9  C   UNL     1       2.672   5.291  20.384  0.00  0.00    +0.000 C 
ATOM     10  C   UNL     1       1.966   6.382  20.659  0.00  0.00    +0.000 C 
ATOM     11  C   UNL     1       1.884   7.510  19.738  0.00  0.00    +0.000 A 
ATOM     12  C   UNL     1       1.142   8.654  20.079  0.00  0.00    +0.000 A 
ATOM     13  C   UNL     1       1.071   9.722  19.164  0.00  0.00    +0.000 A 
ATOM     14  C   UNL     1       1.856   9.704  18.010  0.00  0.00    +0.000 A 
ATOM     15  C   UNL     1       2.510   8.550  17.633  0.00  0.00    +0.000 A 
ATOM     16  C   UNL     1       2.537   7.468  18.501  0.00  0.00    +0.000 A 
ATOM     17  O   UNL     1       3.273   6.417  18.051  0.00  0.00    +0.000 OA
ENDBRANCH   1  13
BRANCH   5  18
ATOM     18  C   UNL     1       2.028  13.147  19.531  0.00  0.00    +0.000 A 
ATOM     19  C   UNL     1       1.819  13.472  18.348  0.00  0.00    +0.000 A 
ATOM     20  C   UNL     1       2.060  14.668  18.581  0.00  0.00    +0.000 A 
ATOM     21  C   UNL     1       3.308  14.609  18.038  0.00  0.00    +0.000 A 
ATOM     22  C   UNL     1       4.281  14.613  18.931  0.00  0.00    +0.000 A 
ATOM     23  C   UNL     1       5.662  15.213  18.130  0.00  0.00    +0.000 A 
ATOM     24  C   UNL     1       6.812  15.739  18.634  0.00  0.00    +0.000 A 
ATOM     25  C   UNL     1       6.484  15.984  19.940  0.00  0.00    +0.000 A 
ATOM     26  C   UNL     1       4.988  15.326  20.611  0.00  0.00    +0.000 A 
ATOM     27  C   UNL     1       3.548  14.267  20.086  0.00  0.00    +0.000 A 
ENDBRANCH   5  18
TORSDOF 2
ENDMDL
MODEL 8
REMARK VINA RESULT:      -7.9      9.341     11.763
REMARK  Name = 
REMARK  2 active torsions:
REMARK  status: ('A' for Active; 'I' for Inactive)
REMARK    1  A    between atoms: C_8  and  C_9
REMARK    2  A    between atoms: N_13  and  C_14
REMARK                            x       y       z     vdW  Elec       q    Type
REMARK                         _______ _______ _______ _____ _____    ______ ____
ROOT
ATOM      1  C   UNL     1      10.896  14.606  19.278  0.00  0.00    +0.000 A 
ATOM      2  N   UNL     1      12.129  14.362  18.930  0.00  0.00    +0.000 NA
ATOM      3  N   UNL     1      12.318  15.069  17.811  0.00  0.00    +0.000 NA
ATOM      4  N   UNL     1      11.208  15.759  17.337  0.00  0.00    +0.000 NA
ATOM      5  N   UNL     1       9.964  15.450  18.162  0.00  0.00    +0.000 N 
ENDROOT
BRANCH   1  13
ATOM      6  O   UNL     1       7.321  11.514  25.232  0.00  0.00    +0.000 OA
ATOM      7  S   UNL     1       6.867  12.110  23.993  0.00  0.00    +0.000 S 
ATOM      8  O   UNL     1       5.501  11.959  23.527  0.00  0.00    +0.000 OA
ATOM      9  C   UNL     1       7.127  13.790  24.132  0.00  0.00    +0.000 C 
ATOM     10  C   UNL     1       7.930  14.470  23.323  0.00  0.00    +0.000 C 
ATOM     11  C   UNL     1       8.721  13.820  22.284  0.00  0.00    +0.000 A 
ATOM     12  C   UNL     1       9.576  14.575  21.462  0.00  0.00    +0.000 A 
ATOM     13  C   UNL     1      10.317  13.921  20.460  0.00  0.00    +0.000 A 
ATOM     14  C   UNL     1      10.320  12.526  20.394  0.00  0.00    +0.000 A 
ATOM     15  C   UNL     1       9.418  11.794  21.136  0.00  0.00    +0.000 A 
ATOM     16  C   UNL     1       8.637  12.437  22.086  0.00  0.00    +0.000 A 
ATOM     17  O   UNL     1       7.841  11.600  22.803  0.00  0.00    +0.000 OA
ENDBRANCH   1  13
BRANCH   5  18
ATOM     18  C   UNL     1       8.162  15.842  18.350  0.00  0.00    +0.000 A 
ATOM     19  C   UNL     1       7.979  14.833  17.644  0.00  0.00    +0.000 A 
ATOM     20  C   UNL     1       7.218  14.323  18.482  0.00  0.00    +0.000 A 
ATOM     21  C   UNL     1       6.095  14.655  17.786  0.00  0.00    +0.000 A 
ATOM     22  C   UNL     1       5.415  15.656  18.314  0.00  0.00    +0.000 A 
ATOM     23  C   UNL     1       3.807  15.480  17.775  0.00  0.00    +0.000 A 
ATOM     24  C   UNL     1       2.651  16.005  18.268  0.00  0.00    +0.000 A 
ATOM     25  C   UNL     1       3.028  16.456  19.503  0.00  0.00    +0.000 A 
ATOM     26  C   UNL     1       4.741  16.538  19.927  0.00  0.00    +0.000 A 
ATOM     27  C   UNL     1       6.406  16.198  19.161  0.00  0.00    +0.000 A 
ENDBRANCH   5  18
TORSDOF 2
ENDMDL
MODEL 9
REMARK VINA RESULT:      -7.9      5.044      8.202
REMARK  Name = 
REMARK  2 active torsions:
REMARK  status: ('A' for Active; 'I' for Inactive)
REMARK    1  A    between atoms: C_8  and  C_9
REMARK    2  A    between atoms: N_13  and  C_14
REMARK                            x       y       z     vdW  Elec       q    Type
REMARK                         _______ _______ _______ _____ _____    ______ ____
ROOT
ATOM      1  C   UNL     1      -5.127  11.814  18.543  0.00  0.00    +0.000 A 
ATOM      2  N   UNL     1      -6.052  11.175  17.882  0.00  0.00    +0.000 NA
ATOM      3  N   UNL     1      -7.204  11.572  18.431  0.00  0.00    +0.000 NA
ATOM      4  N   UNL     1      -7.093  12.439  19.512  0.00  0.00    +0.000 NA
ATOM      5  N   UNL     1      -5.636  12.654  19.907  0.00  0.00    +0.000 N 
ENDROOT
BRANCH   1  13
ATOM      6  O   UNL     1       2.286  10.351  17.707  0.00  0.00    +0.000 OA
ATOM      7  S   UNL     1       1.274   9.887  18.633  0.00  0.00    +0.000 S 
ATOM      8  O   UNL     1       1.492   8.737  19.491  0.00  0.00    +0.000 OA
ATOM      9  C   UNL     1       0.935  11.190  19.682  0.00  0.00    +0.000 C 
ATOM     10  C   UNL     1      -0.264  11.751  19.778  0.00  0.00    +0.000 C 
ATOM     11  C   UNL     1      -1.384  11.345  18.936  0.00  0.00    +0.000 A 
ATOM     12  C   UNL     1      -2.632  11.981  19.056  0.00  0.00    +0.000 A 
ATOM     13  C   UNL     1      -3.698  11.559  18.238  0.00  0.00    +0.000 A 
ATOM     14  C   UNL     1      -3.468  10.634  17.217  0.00  0.00    +0.000 A 
ATOM     15  C   UNL     1      -2.274   9.949  17.157  0.00  0.00    +0.000 A 
ATOM     16  C   UNL     1      -1.234  10.315  18.000  0.00  0.00    +0.000 A 
ATOM     17  O   UNL     1      -0.086   9.616  17.798  0.00  0.00    +0.000 OA
ENDBRANCH   1  13
BRANCH   5  18
ATOM     18  C   UNL     1      -4.526  13.560  21.083  0.00  0.00    +0.000 A 
ATOM     19  C   UNL     1      -5.115  12.914  21.969  0.00  0.00    +0.000 A 
ATOM     20  C   UNL     1      -4.049  12.476  22.430  0.00  0.00    +0.000 A 
ATOM     21  C   UNL     1      -4.046  13.349  23.476  0.00  0.00    +0.000 A 
ATOM     22  C   UNL     1      -3.170  14.329  23.353  0.00  0.00    +0.000 A 
ATOM     23  C   UNL     1      -2.825  14.864  24.935  0.00  0.00    +0.000 A 
ATOM     24  C   UNL     1      -1.774  15.587  25.410  0.00  0.00    +0.000 A 
ATOM     25  C   UNL     1      -0.873  15.517  24.383  0.00  0.00    +0.000 A 
ATOM     26  C   UNL     1      -1.377  14.894  22.809  0.00  0.00    +0.000 A 
ATOM     27  C   UNL     1      -2.908  14.244  21.969  0.00  0.00    +0.000 A 
ENDBRANCH   5  18
TORSDOF 2
ENDMDL
