MODEL 1
REMARK VINA RESULT:      -6.4      0.000      0.000
REMARK  Name = 
REMARK  4 active torsions:
REMARK  status: ('A' for Active; 'I' for Inactive)
REMARK    1  A    between atoms: C_2  and  C_15
REMARK    2  A    between atoms: N_3  and  C_4
REMARK    3  A    between atoms: C_8  and  C_9
REMARK    4  A    between atoms: C_9  and  O_11
REMARK                            x       y       z     vdW  Elec       q    Type
REMARK                         _______ _______ _______ _____ _____    ______ ____
ROOT
ATOM      1  C   UNL     1       4.054   3.739  17.382  0.00  0.00    +0.000 A 
ATOM      2  S   UNL     1       2.402   3.360  17.156  0.00  0.00    +0.000 S 
ATOM      3  C   UNL     1       2.171   3.388  18.809  0.00  0.00    +0.000 A 
ATOM      4  C   UNL     1       3.266   3.792  19.529  0.00  0.00    +0.000 A 
ATOM      5  C   UNL     1       4.400   4.053  18.695  0.00  0.00    +0.000 A 
ATOM      6  C   UNL     1       2.909   3.910  20.971  0.00  0.00    +0.000 C 
ATOM      7  C   UNL     1       1.561   3.126  21.052  0.00  0.00    +0.000 C 
ATOM      8  C   UNL     1       0.959   3.122  19.617  0.00  0.00    +0.000 C 
ENDROOT
BRANCH   1  11
ATOM      9  O   UNL     1       4.865   5.955  15.982  0.00  0.00    +0.000 OA
ATOM     10  C   UNL     1       5.160   4.831  15.568  0.00  0.00    +0.000 C 
ATOM     11  N   UNL     1       4.790   3.666  16.228  0.00  0.00    +0.000 N 
ATOM     12  H   UNL     1       5.415   2.877  16.112  0.00  0.00    +0.000 HD
BRANCH  10  13
ATOM     13  C   UNL     1       6.021   4.636  14.405  0.00  0.00    +0.000 A 
ATOM     14  C   UNL     1       7.243   5.237  14.166  0.00  0.00    +0.000 A 
ATOM     15  C   UNL     1       7.792   4.883  12.899  0.00  0.00    +0.000 A 
ATOM     16  C   UNL     1       6.977   4.011  12.213  0.00  0.00    +0.000 A 
ATOM     17  S   UNL     1       5.582   3.600  13.109  0.00  0.00    +0.000 S 
ENDBRANCH  10  13
ENDBRANCH   1  11
BRANCH   5  18
ATOM     18  C   UNL     1       5.692   4.636  19.053  0.00  0.00    +0.000 C 
ATOM     19  O   UNL     1       5.823   5.578  19.826  0.00  0.00    +0.000 OA
BRANCH  18  20
ATOM     20  O   UNL     1       6.775   4.010  18.523  0.00  0.00    +0.000 OA
ATOM     21  H   UNL     1       6.621   3.764  17.597  0.00  0.00    +0.000 HD
ENDBRANCH  18  20
ENDBRANCH   5  18
TORSDOF 4
ENDMDL
MODEL 2
REMARK VINA RESULT:      -6.3      1.621      2.056
REMARK  Name = 
REMARK  4 active torsions:
REMARK  status: ('A' for Active; 'I' for Inactive)
REMARK    1  A    between atoms: C_2  and  C_15
REMARK    2  A    between atoms: N_3  and  C_4
REMARK    3  A    between atoms: C_8  and  C_9
REMARK    4  A    between atoms: C_9  and  O_11
REMARK                            x       y       z     vdW  Elec       q    Type
REMARK                         _______ _______ _______ _____ _____    ______ ____
ROOT
ATOM      1  C   UNL     1       3.351   4.156  17.382  0.00  0.00    +0.000 A 
ATOM      2  S   UNL     1       2.844   2.583  17.821  0.00  0.00    +0.000 S 
ATOM      3  C   UNL     1       2.461   3.134  19.349  0.00  0.00    +0.000 A 
ATOM      4  C   UNL     1       2.587   4.491  19.512  0.00  0.00    +0.000 A 
ATOM      5  C   UNL     1       3.078   5.137  18.333  0.00  0.00    +0.000 A 
ATOM      6  C   UNL     1       2.093   4.887  20.861  0.00  0.00    +0.000 C 
ATOM      7  C   UNL     1       2.039   3.522  21.617  0.00  0.00    +0.000 C 
ATOM      8  C   UNL     1       1.937   2.413  20.531  0.00  0.00    +0.000 C 
ENDROOT
BRANCH   1  11
ATOM      9  O   UNL     1       6.076   4.257  17.073  0.00  0.00    +0.000 OA
ATOM     10  C   UNL     1       5.349   4.262  16.076  0.00  0.00    +0.000 C 
ATOM     11  N   UNL     1       3.963   4.206  16.156  0.00  0.00    +0.000 N 
ATOM     12  H   UNL     1       3.495   3.766  15.372  0.00  0.00    +0.000 HD
BRANCH  10  13
ATOM     13  C   UNL     1       5.892   4.216  14.722  0.00  0.00    +0.000 A 
ATOM     14  C   UNL     1       5.393   3.497  13.651  0.00  0.00    +0.000 A 
ATOM     15  C   UNL     1       6.203   3.614  12.484  0.00  0.00    +0.000 A 
ATOM     16  C   UNL     1       7.291   4.429  12.695  0.00  0.00    +0.000 A 
ATOM     17  S   UNL     1       7.311   5.073  14.278  0.00  0.00    +0.000 S 
ENDBRANCH  10  13
ENDBRANCH   1  11
BRANCH   5  18
ATOM     18  C   UNL     1       3.208   6.567  18.052  0.00  0.00    +0.000 C 
ATOM     19  O   UNL     1       2.339   7.393  18.308  0.00  0.00    +0.000 OA
BRANCH  18  20
ATOM     20  O   UNL     1       4.408   6.949  17.543  0.00  0.00    +0.000 OA
ATOM     21  H   UNL     1       5.091   6.280  17.714  0.00  0.00    +0.000 HD
ENDBRANCH  18  20
ENDBRANCH   5  18
TORSDOF 4
ENDMDL
MODEL 3
REMARK VINA RESULT:      -6.0      1.987      2.268
REMARK  Name = 
REMARK  4 active torsions:
REMARK  status: ('A' for Active; 'I' for Inactive)
REMARK    1  A    between atoms: C_2  and  C_15
REMARK    2  A    between atoms: N_3  and  C_4
REMARK    3  A    between atoms: C_8  and  C_9
REMARK    4  A    between atoms: C_9  and  O_11
REMARK                            x       y       z     vdW  Elec       q    Type
REMARK                         _______ _______ _______ _____ _____    ______ ____
ROOT
ATOM      1  C   UNL     1       4.053   5.215  17.330  0.00  0.00    +0.000 A 
ATOM      2  S   UNL     1       3.688   6.861  17.617  0.00  0.00    +0.000 S 
ATOM      3  C   UNL     1       2.896   6.439  19.024  0.00  0.00    +0.000 A 
ATOM      4  C   UNL     1       2.995   5.111  19.355  0.00  0.00    +0.000 A 
ATOM      5  C   UNL     1       3.723   4.360  18.379  0.00  0.00    +0.000 A 
ATOM      6  C   UNL     1       2.372   4.875  20.688  0.00  0.00    +0.000 C 
ATOM      7  C   UNL     1       1.533   6.173  20.907  0.00  0.00    +0.000 C 
ATOM      8  C   UNL     1       2.169   7.273  20.008  0.00  0.00    +0.000 C 
ENDROOT
BRANCH   1  11
ATOM      9  O   UNL     1       6.729   5.537  16.815  0.00  0.00    +0.000 OA
ATOM     10  C   UNL     1       5.973   5.179  15.909  0.00  0.00    +0.000 C 
ATOM     11  N   UNL     1       4.609   4.990  16.098  0.00  0.00    +0.000 N 
ATOM     12  H   UNL     1       4.174   4.298  15.498  0.00  0.00    +0.000 HD
BRANCH  10  13
ATOM     13  C   UNL     1       6.469   4.819  14.584  0.00  0.00    +0.000 A 
ATOM     14  C   UNL     1       7.579   5.338  13.943  0.00  0.00    +0.000 A 
ATOM     15  C   UNL     1       7.745   4.821  12.625  0.00  0.00    +0.000 A 
ATOM     16  C   UNL     1       6.763   3.912  12.303  0.00  0.00    +0.000 A 
ATOM     17  S   UNL     1       5.674   3.663  13.596  0.00  0.00    +0.000 S 
ENDBRANCH  10  13
ENDBRANCH   1  11
BRANCH   5  18
ATOM     18  C   UNL     1       4.170   2.968  18.433  0.00  0.00    +0.000 C 
ATOM     19  O   UNL     1       3.820   2.109  17.631  0.00  0.00    +0.000 OA
BRANCH  18  20
ATOM     20  O   UNL     1       5.076   2.690  19.405  0.00  0.00    +0.000 OA
ATOM     21  H   UNL     1       5.049   3.354  20.112  0.00  0.00    +0.000 HD
ENDBRANCH  18  20
ENDBRANCH   5  18
TORSDOF 4
ENDMDL
MODEL 4
REMARK VINA RESULT:      -6.0      2.243      2.659
REMARK  Name = 
REMARK  4 active torsions:
REMARK  status: ('A' for Active; 'I' for Inactive)
REMARK    1  A    between atoms: C_2  and  C_15
REMARK    2  A    between atoms: N_3  and  C_4
REMARK    3  A    between atoms: C_8  and  C_9
REMARK    4  A    between atoms: C_9  and  O_11
REMARK                            x       y       z     vdW  Elec       q    Type
REMARK                         _______ _______ _______ _____ _____    ______ ____
ROOT
ATOM      1  C   UNL     1       3.802   5.037  17.115  0.00  0.00    +0.000 A 
ATOM      2  S   UNL     1       3.913   6.623  17.744  0.00  0.00    +0.000 S 
ATOM      3  C   UNL     1       2.931   6.185  19.020  0.00  0.00    +0.000 A 
ATOM      4  C   UNL     1       2.614   4.850  19.061  0.00  0.00    +0.000 A 
ATOM      5  C   UNL     1       3.160   4.127  17.953  0.00  0.00    +0.000 A 
ATOM      6  C   UNL     1       1.853   4.549  20.306  0.00  0.00    +0.000 C 
ATOM      7  C   UNL     1       1.415   5.968  20.789  0.00  0.00    +0.000 C 
ATOM      8  C   UNL     1       2.409   6.982  20.153  0.00  0.00    +0.000 C 
ENDROOT
BRANCH   1  11
ATOM      9  O   UNL     1       6.390   4.221  16.707  0.00  0.00    +0.000 OA
ATOM     10  C   UNL     1       5.678   4.495  15.738  0.00  0.00    +0.000 C 
ATOM     11  N   UNL     1       4.357   4.908  15.868  0.00  0.00    +0.000 N 
ATOM     12  H   UNL     1       3.745   4.671  15.096  0.00  0.00    +0.000 HD
BRANCH  10  13
ATOM     13  C   UNL     1       6.132   4.301  14.364  0.00  0.00    +0.000 A 
ATOM     14  C   UNL     1       5.550   3.496  13.403  0.00  0.00    +0.000 A 
ATOM     15  C   UNL     1       6.286   3.476  12.182  0.00  0.00    +0.000 A 
ATOM     16  C   UNL     1       7.403   4.277  12.245  0.00  0.00    +0.000 A 
ATOM     17  S   UNL     1       7.538   5.071  13.752  0.00  0.00    +0.000 S 
ENDBRANCH  10  13
ENDBRANCH   1  11
BRANCH   5  18
ATOM     18  C   UNL     1       3.176   2.685  17.712  0.00  0.00    +0.000 C 
ATOM     19  O   UNL     1       2.175   2.027  17.453  0.00  0.00    +0.000 OA
BRANCH  18  20
ATOM     20  O   UNL     1       4.407   2.111  17.721  0.00  0.00    +0.000 OA
ATOM     21  H   UNL     1       4.697   1.914  18.626  0.00  0.00    +0.000 HD
ENDBRANCH  18  20
ENDBRANCH   5  18
TORSDOF 4
ENDMDL
MODEL 5
REMARK VINA RESULT:      -6.0      4.303      7.110
REMARK  Name = 
REMARK  4 active torsions:
REMARK  status: ('A' for Active; 'I' for Inactive)
REMARK    1  A    between atoms: C_2  and  C_15
REMARK    2  A    between atoms: N_3  and  C_4
REMARK    3  A    between atoms: C_8  and  C_9
REMARK    4  A    between atoms: C_9  and  O_11
REMARK                            x       y       z     vdW  Elec       q    Type
REMARK                         _______ _______ _______ _____ _____    ______ ____
ROOT
ATOM      1  C   UNL     1       3.287   6.401  18.336  0.00  0.00    +0.000 A 
ATOM      2  S   UNL     1       4.612   7.190  17.597  0.00  0.00    +0.000 S 
ATOM      3  C   UNL     1       5.021   5.772  16.819  0.00  0.00    +0.000 A 
ATOM      4  C   UNL     1       4.126   4.747  16.997  0.00  0.00    +0.000 A 
ATOM      5  C   UNL     1       3.050   5.110  17.868  0.00  0.00    +0.000 A 
ATOM      6  C   UNL     1       4.515   3.582  16.154  0.00  0.00    +0.000 C 
ATOM      7  C   UNL     1       5.990   3.920  15.768  0.00  0.00    +0.000 C 
ATOM      8  C   UNL     1       6.147   5.461  15.909  0.00  0.00    +0.000 C 
ENDROOT
BRANCH   1  11
ATOM      9  O   UNL     1       1.697   8.553  17.725  0.00  0.00    +0.000 OA
ATOM     10  C   UNL     1       1.877   8.245  18.905  0.00  0.00    +0.000 C 
ATOM     11  N   UNL     1       2.664   7.165  19.289  0.00  0.00    +0.000 N 
ATOM     12  H   UNL     1       2.403   6.719  20.161  0.00  0.00    +0.000 HD
BRANCH  10  13
ATOM     13  C   UNL     1       1.188   8.926  19.998  0.00  0.00    +0.000 A 
ATOM     14  C   UNL     1       1.204   8.576  21.336  0.00  0.00    +0.000 A 
ATOM     15  C   UNL     1       0.365   9.409  22.132  0.00  0.00    +0.000 A 
ATOM     16  C   UNL     1      -0.257  10.378  21.379  0.00  0.00    +0.000 A 
ATOM     17  S   UNL     1       0.198  10.302  19.734  0.00  0.00    +0.000 S 
ENDBRANCH  10  13
ENDBRANCH   1  11
BRANCH   5  18
ATOM     18  C   UNL     1       1.833   4.366  18.189  0.00  0.00    +0.000 C 
ATOM     19  O   UNL     1       1.136   3.806  17.350  0.00  0.00    +0.000 OA
BRANCH  18  20
ATOM     20  O   UNL     1       1.550   4.264  19.513  0.00  0.00    +0.000 OA
ATOM     21  H   UNL     1       2.146   4.816  20.044  0.00  0.00    +0.000 HD
ENDBRANCH  18  20
ENDBRANCH   5  18
TORSDOF 4
ENDMDL
MODEL 6
REMARK VINA RESULT:      -5.9      1.760      6.323
REMARK  Name = 
REMARK  4 active torsions:
REMARK  status: ('A' for Active; 'I' for Inactive)
REMARK    1  A    between atoms: C_2  and  C_15
REMARK    2  A    between atoms: N_3  and  C_4
REMARK    3  A    between atoms: C_8  and  C_9
REMARK    4  A    between atoms: C_9  and  O_11
REMARK                            x       y       z     vdW  Elec       q    Type
REMARK                         _______ _______ _______ _____ _____    ______ ____
ROOT
ATOM      1  C   UNL     1       5.633   4.283  16.410  0.00  0.00    +0.000 A 
ATOM      2  S   UNL     1       5.156   3.188  15.186  0.00  0.00    +0.000 S 
ATOM      3  C   UNL     1       6.189   3.940  14.113  0.00  0.00    +0.000 A 
ATOM      4  C   UNL     1       6.976   4.916  14.670  0.00  0.00    +0.000 A 
ATOM      5  C   UNL     1       6.696   5.113  16.059  0.00  0.00    +0.000 A 
ATOM      6  C   UNL     1       7.948   5.421  13.659  0.00  0.00    +0.000 C 
ATOM      7  C   UNL     1       7.349   4.893  12.318  0.00  0.00    +0.000 C 
ATOM      8  C   UNL     1       6.449   3.676  12.679  0.00  0.00    +0.000 C 
ENDROOT
BRANCH   1  11
ATOM      9  O   UNL     1       3.828   6.196  17.193  0.00  0.00    +0.000 OA
ATOM     10  C   UNL     1       3.992   5.192  17.890  0.00  0.00    +0.000 C 
ATOM     11  N   UNL     1       4.883   4.180  17.553  0.00  0.00    +0.000 N 
ATOM     12  H   UNL     1       4.639   3.252  17.880  0.00  0.00    +0.000 HD
BRANCH  10  13
ATOM     13  C   UNL     1       3.180   4.930  19.074  0.00  0.00    +0.000 A 
ATOM     14  C   UNL     1       2.310   5.808  19.695  0.00  0.00    +0.000 A 
ATOM     15  C   UNL     1       1.725   5.261  20.875  0.00  0.00    +0.000 A 
ATOM     16  C   UNL     1       2.158   3.977  21.113  0.00  0.00    +0.000 A 
ATOM     17  S   UNL     1       3.232   3.428  19.902  0.00  0.00    +0.000 S 
ENDBRANCH  10  13
ENDBRANCH   1  11
BRANCH   5  18
ATOM     18  C   UNL     1       7.406   5.941  17.034  0.00  0.00    +0.000 C 
ATOM     19  O   UNL     1       7.746   5.545  18.144  0.00  0.00    +0.000 OA
BRANCH  18  20
ATOM     20  O   UNL     1       7.741   7.183  16.602  0.00  0.00    +0.000 OA
ATOM     21  H   UNL     1       7.408   7.867  17.205  0.00  0.00    +0.000 HD
ENDBRANCH  18  20
ENDBRANCH   5  18
TORSDOF 4
ENDMDL
MODEL 7
REMARK VINA RESULT:      -5.8      4.544      7.068
REMARK  Name = 
REMARK  4 active torsions:
REMARK  status: ('A' for Active; 'I' for Inactive)
REMARK    1  A    between atoms: C_2  and  C_15
REMARK    2  A    between atoms: N_3  and  C_4
REMARK    3  A    between atoms: C_8  and  C_9
REMARK    4  A    between atoms: C_9  and  O_11
REMARK                            x       y       z     vdW  Elec       q    Type
REMARK                         _______ _______ _______ _____ _____    ______ ____
ROOT
ATOM      1  C   UNL     1       3.227   6.566  18.170  0.00  0.00    +0.000 A 
ATOM      2  S   UNL     1       4.558   7.338  17.425  0.00  0.00    +0.000 S 
ATOM      3  C   UNL     1       5.049   5.875  16.790  0.00  0.00    +0.000 A 
ATOM      4  C   UNL     1       4.181   4.837  17.016  0.00  0.00    +0.000 A 
ATOM      5  C   UNL     1       3.054   5.232  17.805  0.00  0.00    +0.000 A 
ATOM      6  C   UNL     1       4.647   3.620  16.294  0.00  0.00    +0.000 C 
ATOM      7  C   UNL     1       6.127   3.977  15.945  0.00  0.00    +0.000 C 
ATOM      8  C   UNL     1       6.226   5.530  15.960  0.00  0.00    +0.000 C 
ENDROOT
BRANCH   1  11
ATOM      9  O   UNL     1       1.928   8.839  17.347  0.00  0.00    +0.000 OA
ATOM     10  C   UNL     1       1.907   8.523  18.539  0.00  0.00    +0.000 C 
ATOM     11  N   UNL     1       2.535   7.383  19.026  0.00  0.00    +0.000 N 
ATOM     12  H   UNL     1       2.112   6.965  19.847  0.00  0.00    +0.000 HD
BRANCH  10  13
ATOM     13  C   UNL     1       1.123   9.264  19.522  0.00  0.00    +0.000 A 
ATOM     14  C   UNL     1       0.379  10.409  19.299  0.00  0.00    +0.000 A 
ATOM     15  C   UNL     1      -0.209  10.924  20.491  0.00  0.00    +0.000 A 
ATOM     16  C   UNL     1       0.093  10.149  21.588  0.00  0.00    +0.000 A 
ATOM     17  S   UNL     1       1.048   8.795  21.171  0.00  0.00    +0.000 S 
ENDBRANCH  10  13
ENDBRANCH   1  11
BRANCH   5  18
ATOM     18  C   UNL     1       1.849   4.473  18.136  0.00  0.00    +0.000 C 
ATOM     19  O   UNL     1       1.192   3.845  17.312  0.00  0.00    +0.000 OA
BRANCH  18  20
ATOM     20  O   UNL     1       1.529   4.442  19.455  0.00  0.00    +0.000 OA
ATOM     21  H   UNL     1       1.965   5.161  19.940  0.00  0.00    +0.000 HD
ENDBRANCH  18  20
ENDBRANCH   5  18
TORSDOF 4
ENDMDL
MODEL 8
REMARK VINA RESULT:      -5.8      1.767      6.350
REMARK  Name = 
REMARK  4 active torsions:
REMARK  status: ('A' for Active; 'I' for Inactive)
REMARK    1  A    between atoms: C_2  and  C_15
REMARK    2  A    between atoms: N_3  and  C_4
REMARK    3  A    between atoms: C_8  and  C_9
REMARK    4  A    between atoms: C_9  and  O_11
REMARK                            x       y       z     vdW  Elec       q    Type
REMARK                         _______ _______ _______ _____ _____    ______ ____
ROOT
ATOM      1  C   UNL     1       5.870   4.136  16.575  0.00  0.00    +0.000 A 
ATOM      2  S   UNL     1       5.429   3.005  15.370  0.00  0.00    +0.000 S 
ATOM      3  C   UNL     1       6.282   3.883  14.236  0.00  0.00    +0.000 A 
ATOM      4  C   UNL     1       6.993   4.937  14.750  0.00  0.00    +0.000 A 
ATOM      5  C   UNL     1       6.800   5.087  16.160  0.00  0.00    +0.000 A 
ATOM      6  C   UNL     1       7.819   5.562  13.678  0.00  0.00    +0.000 C 
ATOM      7  C   UNL     1       7.181   4.982  12.376  0.00  0.00    +0.000 C 
ATOM      8  C   UNL     1       6.458   3.665  12.782  0.00  0.00    +0.000 C 
ENDROOT
BRANCH   1  11
ATOM      9  O   UNL     1       3.506   5.366  17.227  0.00  0.00    +0.000 OA
ATOM     10  C   UNL     1       4.035   4.598  18.033  0.00  0.00    +0.000 C 
ATOM     11  N   UNL     1       5.228   3.935  17.769  0.00  0.00    +0.000 N 
ATOM     12  H   UNL     1       5.343   3.038  18.227  0.00  0.00    +0.000 HD
BRANCH  10  13
ATOM     13  C   UNL     1       3.393   4.234  19.293  0.00  0.00    +0.000 A 
ATOM     14  C   UNL     1       3.477   3.019  19.948  0.00  0.00    +0.000 A 
ATOM     15  C   UNL     1       2.669   2.970  21.122  0.00  0.00    +0.000 A 
ATOM     16  C   UNL     1       2.002   4.154  21.335  0.00  0.00    +0.000 A 
ATOM     17  S   UNL     1       2.377   5.323  20.146  0.00  0.00    +0.000 S 
ENDBRANCH  10  13
ENDBRANCH   1  11
BRANCH   5  18
ATOM     18  C   UNL     1       7.484   5.981  17.094  0.00  0.00    +0.000 C 
ATOM     19  O   UNL     1       7.752   7.151  16.844  0.00  0.00    +0.000 OA
BRANCH  18  20
ATOM     20  O   UNL     1       7.748   5.449  18.315  0.00  0.00    +0.000 OA
ATOM     21  H   UNL     1       7.986   4.511  18.246  0.00  0.00    +0.000 HD
ENDBRANCH  18  20
ENDBRANCH   5  18
TORSDOF 4
ENDMDL
MODEL 9
REMARK VINA RESULT:      -5.7      1.569      6.397
REMARK  Name = 
REMARK  4 active torsions:
REMARK  status: ('A' for Active; 'I' for Inactive)
REMARK    1  A    between atoms: C_2  and  C_15
REMARK    2  A    between atoms: N_3  and  C_4
REMARK    3  A    between atoms: C_8  and  C_9
REMARK    4  A    between atoms: C_9  and  O_11
REMARK                            x       y       z     vdW  Elec       q    Type
REMARK                         _______ _______ _______ _____ _____    ______ ____
ROOT
ATOM      1  C   UNL     1       5.216   4.611  16.068  0.00  0.00    +0.000 A 
ATOM      2  S   UNL     1       4.876   3.416  14.894  0.00  0.00    +0.000 S 
ATOM      3  C   UNL     1       6.078   4.036  13.916  0.00  0.00    +0.000 A 
ATOM      4  C   UNL     1       6.814   5.042  14.490  0.00  0.00    +0.000 A 
ATOM      5  C   UNL     1       6.347   5.378  15.800  0.00  0.00    +0.000 A 
ATOM      6  C   UNL     1       7.938   5.424  13.589  0.00  0.00    +0.000 C 
ATOM      7  C   UNL     1       7.515   4.785  12.229  0.00  0.00    +0.000 C 
ATOM      8  C   UNL     1       6.528   3.630  12.565  0.00  0.00    +0.000 C 
ENDROOT
BRANCH   1  11
ATOM      9  O   UNL     1       5.756   3.616  18.568  0.00  0.00    +0.000 OA
ATOM     10  C   UNL     1       4.649   4.107  18.334  0.00  0.00    +0.000 C 
ATOM     11  N   UNL     1       4.307   4.636  17.095  0.00  0.00    +0.000 N 
ATOM     12  H   UNL     1       3.626   5.386  17.110  0.00  0.00    +0.000 HD
BRANCH  10  13
ATOM     13  C   UNL     1       3.640   4.274  19.376  0.00  0.00    +0.000 A 
ATOM     14  C   UNL     1       3.011   5.450  19.743  0.00  0.00    +0.000 A 
ATOM     15  C   UNL     1       2.128   5.280  20.848  0.00  0.00    +0.000 A 
ATOM     16  C   UNL     1       2.099   3.975  21.285  0.00  0.00    +0.000 A 
ATOM     17  S   UNL     1       3.103   2.963  20.344  0.00  0.00    +0.000 S 
ENDBRANCH  10  13
ENDBRANCH   1  11
BRANCH   5  18
ATOM     18  C   UNL     1       6.943   6.278  16.788  0.00  0.00    +0.000 C 
ATOM     19  O   UNL     1       6.681   7.474  16.864  0.00  0.00    +0.000 OA
BRANCH  18  20
ATOM     20  O   UNL     1       7.769   5.685  17.687  0.00  0.00    +0.000 OA
ATOM     21  H   UNL     1       7.309   5.505  18.523  0.00  0.00    +0.000 HD
ENDBRANCH  18  20
ENDBRANCH   5  18
TORSDOF 4
ENDMDL
