MODEL 1
REMARK VINA RESULT:      -7.2      0.000      0.000
REMARK  Name = 
REMARK  2 active torsions:
REMARK  status: ('A' for Active; 'I' for Inactive)
REMARK    1  A    between atoms: C_2  and  C_4
REMARK    2  A    between atoms: C_5  and  N_6
REMARK                            x       y       z     vdW  Elec       q    Type
REMARK                         _______ _______ _______ _____ _____    ______ ____
ROOT
ATOM      1  C   UNL     1       6.263   4.868  17.204  0.00  0.00    +0.000 A 
ATOM      2  C   UNL     1       6.637   4.707  18.493  0.00  0.00    +0.000 A 
ATOM      3  O   UNL     1       5.870   4.024  19.430  0.00  0.00    +0.000 OA
ATOM      4  C   UNL     1       4.637   3.555  19.077  0.00  0.00    +0.000 A 
ATOM      5  C   UNL     1       3.856   2.985  20.085  0.00  0.00    +0.000 A 
ATOM      6  C   UNL     1       2.584   2.494  19.779  0.00  0.00    +0.000 A 
ATOM      7  C   UNL     1       2.113   2.568  18.472  0.00  0.00    +0.000 A 
ATOM      8  F   UNL     1       0.892   2.098  18.186  0.00  0.00    +0.000 F 
ATOM      9  C   UNL     1       2.885   3.129  17.464  0.00  0.00    +0.000 A 
ATOM     10  C   UNL     1       4.153   3.626  17.779  0.00  0.00    +0.000 A 
ATOM     11  C   UNL     1       4.995   4.245  16.752  0.00  0.00    +0.000 A 
ATOM     12  O   UNL     1       4.637   4.243  15.578  0.00  0.00    +0.000 OA
ENDROOT
BRANCH   1  14
ATOM     13  N   UNL     1       7.379   5.128  15.063  0.00  0.00    +0.000 N 
ATOM     14  C   UNL     1       7.114   5.676  16.280  0.00  0.00    +0.000 C 
ATOM     15  O   UNL     1       7.544   6.792  16.564  0.00  0.00    +0.000 OA
ATOM     16  H   UNL     1       7.885   5.676  14.382  0.00  0.00    +0.000 HD
ATOM     17  H   UNL     1       6.923   4.269  14.759  0.00  0.00    +0.000 HD
ENDBRANCH   1  14
BRANCH   2  18
ATOM     18  N   UNL     1       7.811   5.178  19.045  0.00  0.00    +0.000 N 
ATOM     19  H   UNL     1       7.683   5.574  19.983  0.00  0.00    +0.000 HD
ATOM     20  H   UNL     1       8.569   4.505  18.995  0.00  0.00    +0.000 HD
ENDBRANCH   2  18
TORSDOF 2
ENDMDL
MODEL 2
REMARK VINA RESULT:      -7.2      1.551      2.779
REMARK  Name = 
REMARK  2 active torsions:
REMARK  status: ('A' for Active; 'I' for Inactive)
REMARK    1  A    between atoms: C_2  and  C_4
REMARK    2  A    between atoms: C_5  and  N_6
REMARK                            x       y       z     vdW  Elec       q    Type
REMARK                         _______ _______ _______ _____ _____    ______ ____
ROOT
ATOM      1  C   UNL     1       5.720   4.727  17.362  0.00  0.00    +0.000 A 
ATOM      2  C   UNL     1       4.930   4.310  16.346  0.00  0.00    +0.000 A 
ATOM      3  O   UNL     1       3.606   3.926  16.518  0.00  0.00    +0.000 OA
ATOM      4  C   UNL     1       3.077   3.879  17.776  0.00  0.00    +0.000 A 
ATOM      5  C   UNL     1       1.782   3.371  17.908  0.00  0.00    +0.000 A 
ATOM      6  C   UNL     1       1.195   3.296  19.174  0.00  0.00    +0.000 A 
ATOM      7  C   UNL     1       1.901   3.738  20.288  0.00  0.00    +0.000 A 
ATOM      8  F   UNL     1       1.334   3.662  21.499  0.00  0.00    +0.000 F 
ATOM      9  C   UNL     1       3.186   4.250  20.165  0.00  0.00    +0.000 A 
ATOM     10  C   UNL     1       3.771   4.313  18.897  0.00  0.00    +0.000 A 
ATOM     11  C   UNL     1       5.131   4.826  18.720  0.00  0.00    +0.000 A 
ATOM     12  O   UNL     1       5.740   5.302  19.674  0.00  0.00    +0.000 OA
ENDROOT
BRANCH   1  14
ATOM     13  N   UNL     1       8.078   4.275  17.722  0.00  0.00    +0.000 N 
ATOM     14  C   UNL     1       7.153   5.056  17.100  0.00  0.00    +0.000 C 
ATOM     15  O   UNL     1       7.509   5.958  16.347  0.00  0.00    +0.000 OA
ATOM     16  H   UNL     1       9.056   4.416  17.510  0.00  0.00    +0.000 HD
ATOM     17  H   UNL     1       7.805   3.442  18.240  0.00  0.00    +0.000 HD
ENDBRANCH   1  14
BRANCH   2  18
ATOM     18  N   UNL     1       5.317   4.220  15.024  0.00  0.00    +0.000 N 
ATOM     19  H   UNL     1       4.522   4.194  14.375  0.00  0.00    +0.000 HD
ATOM     20  H   UNL     1       6.020   4.907  14.770  0.00  0.00    +0.000 HD
ENDBRANCH   2  18
TORSDOF 2
ENDMDL
MODEL 3
REMARK VINA RESULT:      -7.2      3.766      5.332
REMARK  Name = 
REMARK  2 active torsions:
REMARK  status: ('A' for Active; 'I' for Inactive)
REMARK    1  A    between atoms: C_2  and  C_4
REMARK    2  A    between atoms: C_5  and  N_6
REMARK                            x       y       z     vdW  Elec       q    Type
REMARK                         _______ _______ _______ _____ _____    ______ ____
ROOT
ATOM      1  C   UNL     1       2.426   4.387  19.817  0.00  0.00    +0.000 A 
ATOM      2  C   UNL     1       2.510   5.735  19.888  0.00  0.00    +0.000 A 
ATOM      3  O   UNL     1       3.158   6.510  18.933  0.00  0.00    +0.000 OA
ATOM      4  C   UNL     1       3.821   5.899  17.907  0.00  0.00    +0.000 A 
ATOM      5  C   UNL     1       4.557   6.714  17.044  0.00  0.00    +0.000 A 
ATOM      6  C   UNL     1       5.258   6.140  15.981  0.00  0.00    +0.000 A 
ATOM      7  C   UNL     1       5.208   4.763  15.787  0.00  0.00    +0.000 A 
ATOM      8  F   UNL     1       5.885   4.218  14.768  0.00  0.00    +0.000 F 
ATOM      9  C   UNL     1       4.475   3.946  16.636  0.00  0.00    +0.000 A 
ATOM     10  C   UNL     1       3.783   4.527  17.703  0.00  0.00    +0.000 A 
ATOM     11  C   UNL     1       3.012   3.703  18.638  0.00  0.00    +0.000 A 
ATOM     12  O   UNL     1       2.883   2.499  18.436  0.00  0.00    +0.000 OA
ENDROOT
BRANCH   1  14
ATOM     13  N   UNL     1       0.616   2.977  20.612  0.00  0.00    +0.000 N 
ATOM     14  C   UNL     1       1.772   3.625  20.923  0.00  0.00    +0.000 C 
ATOM     15  O   UNL     1       2.242   3.547  22.055  0.00  0.00    +0.000 OA
ATOM     16  H   UNL     1       0.186   2.388  21.311  0.00  0.00    +0.000 HD
ATOM     17  H   UNL     1       0.284   2.919  19.651  0.00  0.00    +0.000 HD
ENDBRANCH   1  14
BRANCH   2  18
ATOM     18  N   UNL     1       1.967   6.514  20.890  0.00  0.00    +0.000 N 
ATOM     19  H   UNL     1       1.971   7.516  20.666  0.00  0.00    +0.000 HD
ATOM     20  H   UNL     1       1.063   6.177  21.205  0.00  0.00    +0.000 HD
ENDBRANCH   2  18
TORSDOF 2
ENDMDL
MODEL 4
REMARK VINA RESULT:      -6.9      1.782      1.856
REMARK  Name = 
REMARK  2 active torsions:
REMARK  status: ('A' for Active; 'I' for Inactive)
REMARK    1  A    between atoms: C_2  and  C_4
REMARK    2  A    between atoms: C_5  and  N_6
REMARK                            x       y       z     vdW  Elec       q    Type
REMARK                         _______ _______ _______ _____ _____    ______ ____
ROOT
ATOM      1  C   UNL     1       5.380   5.557  17.608  0.00  0.00    +0.000 A 
ATOM      2  C   UNL     1       6.142   4.555  18.101  0.00  0.00    +0.000 A 
ATOM      3  O   UNL     1       5.654   3.573  18.955  0.00  0.00    +0.000 OA
ATOM      4  C   UNL     1       4.364   3.647  19.397  0.00  0.00    +0.000 A 
ATOM      5  C   UNL     1       3.958   2.707  20.347  0.00  0.00    +0.000 A 
ATOM      6  C   UNL     1       2.650   2.742  20.837  0.00  0.00    +0.000 A 
ATOM      7  C   UNL     1       1.763   3.704  20.367  0.00  0.00    +0.000 A 
ATOM      8  F   UNL     1       0.511   3.734  20.842  0.00  0.00    +0.000 F 
ATOM      9  C   UNL     1       2.157   4.639  19.419  0.00  0.00    +0.000 A 
ATOM     10  C   UNL     1       3.470   4.604  18.940  0.00  0.00    +0.000 A 
ATOM     11  C   UNL     1       3.938   5.583  17.955  0.00  0.00    +0.000 A 
ATOM     12  O   UNL     1       3.150   6.385  17.461  0.00  0.00    +0.000 OA
ENDROOT
BRANCH   1  14
ATOM     13  N   UNL     1       5.442   6.807  15.527  0.00  0.00    +0.000 N 
ATOM     14  C   UNL     1       6.002   6.611  16.752  0.00  0.00    +0.000 C 
ATOM     15  O   UNL     1       6.950   7.300  17.118  0.00  0.00    +0.000 OA
ATOM     16  H   UNL     1       5.784   7.563  14.951  0.00  0.00    +0.000 HD
ATOM     17  H   UNL     1       4.576   6.342  15.261  0.00  0.00    +0.000 HD
ENDBRANCH   1  14
BRANCH   2  18
ATOM     18  N   UNL     1       7.482   4.366  17.824  0.00  0.00    +0.000 N 
ATOM     19  H   UNL     1       7.901   3.604  18.371  0.00  0.00    +0.000 HD
ATOM     20  H   UNL     1       7.674   4.298  16.830  0.00  0.00    +0.000 HD
ENDBRANCH   2  18
TORSDOF 2
ENDMDL
MODEL 5
REMARK VINA RESULT:      -6.9      3.503      3.707
REMARK  Name = 
REMARK  2 active torsions:
REMARK  status: ('A' for Active; 'I' for Inactive)
REMARK    1  A    between atoms: C_2  and  C_4
REMARK    2  A    between atoms: C_5  and  N_6
REMARK                            x       y       z     vdW  Elec       q    Type
REMARK                         _______ _______ _______ _____ _____    ______ ____
ROOT
ATOM      1  C   UNL     1       5.583   5.074  17.282  0.00  0.00    +0.000 A 
ATOM      2  C   UNL     1       5.140   4.507  18.427  0.00  0.00    +0.000 A 
ATOM      3  O   UNL     1       4.081   5.016  19.170  0.00  0.00    +0.000 OA
ATOM      4  C   UNL     1       3.497   6.191  18.792  0.00  0.00    +0.000 A 
ATOM      5  C   UNL     1       2.521   6.723  19.638  0.00  0.00    +0.000 A 
ATOM      6  C   UNL     1       1.896   7.926  19.301  0.00  0.00    +0.000 A 
ATOM      7  C   UNL     1       2.244   8.576  18.122  0.00  0.00    +0.000 A 
ATOM      8  F   UNL     1       1.643   9.731  17.806  0.00  0.00    +0.000 F 
ATOM      9  C   UNL     1       3.209   8.053  17.273  0.00  0.00    +0.000 A 
ATOM     10  C   UNL     1       3.837   6.853  17.621  0.00  0.00    +0.000 A 
ATOM     11  C   UNL     1       4.876   6.272  16.767  0.00  0.00    +0.000 A 
ATOM     12  O   UNL     1       5.137   6.781  15.681  0.00  0.00    +0.000 OA
ENDROOT
BRANCH   1  14
ATOM     13  N   UNL     1       6.592   4.127  15.287  0.00  0.00    +0.000 N 
ATOM     14  C   UNL     1       6.772   4.502  16.583  0.00  0.00    +0.000 C 
ATOM     15  O   UNL     1       7.874   4.389  17.114  0.00  0.00    +0.000 OA
ATOM     16  H   UNL     1       7.390   3.808  14.757  0.00  0.00    +0.000 HD
ATOM     17  H   UNL     1       5.728   4.337  14.791  0.00  0.00    +0.000 HD
ENDBRANCH   1  14
BRANCH   2  18
ATOM     18  N   UNL     1       5.657   3.362  18.999  0.00  0.00    +0.000 N 
ATOM     19  H   UNL     1       5.868   3.473  19.998  0.00  0.00    +0.000 HD
ATOM     20  H   UNL     1       5.105   2.535  18.795  0.00  0.00    +0.000 HD
ENDBRANCH   2  18
TORSDOF 2
ENDMDL
MODEL 6
REMARK VINA RESULT:      -6.9      3.421      5.167
REMARK  Name = 
REMARK  2 active torsions:
REMARK  status: ('A' for Active; 'I' for Inactive)
REMARK    1  A    between atoms: C_2  and  C_4
REMARK    2  A    between atoms: C_5  and  N_6
REMARK                            x       y       z     vdW  Elec       q    Type
REMARK                         _______ _______ _______ _____ _____    ______ ____
ROOT
ATOM      1  C   UNL     1       3.268   3.658  20.072  0.00  0.00    +0.000 A 
ATOM      2  C   UNL     1       4.418   2.956  19.962  0.00  0.00    +0.000 A 
ATOM      3  O   UNL     1       5.422   3.274  19.054  0.00  0.00    +0.000 OA
ATOM      4  C   UNL     1       5.226   4.290  18.163  0.00  0.00    +0.000 A 
ATOM      5  C   UNL     1       6.212   4.490  17.194  0.00  0.00    +0.000 A 
ATOM      6  C   UNL     1       6.059   5.513  16.254  0.00  0.00    +0.000 A 
ATOM      7  C   UNL     1       4.933   6.327  16.300  0.00  0.00    +0.000 A 
ATOM      8  F   UNL     1       4.791   7.305  15.395  0.00  0.00    +0.000 F 
ATOM      9  C   UNL     1       3.951   6.139  17.263  0.00  0.00    +0.000 A 
ATOM     10  C   UNL     1       4.106   5.108  18.194  0.00  0.00    +0.000 A 
ATOM     11  C   UNL     1       3.087   4.857  19.216  0.00  0.00    +0.000 A 
ATOM     12  O   UNL     1       2.129   5.616  19.331  0.00  0.00    +0.000 OA
ENDROOT
BRANCH   1  14
ATOM     13  N   UNL     1       0.941   3.149  20.542  0.00  0.00    +0.000 N 
ATOM     14  C   UNL     1       2.211   3.207  21.026  0.00  0.00    +0.000 C 
ATOM     15  O   UNL     1       2.450   2.872  22.183  0.00  0.00    +0.000 OA
ATOM     16  H   UNL     1       0.211   2.775  21.132  0.00  0.00    +0.000 HD
ATOM     17  H   UNL     1       0.744   3.293  19.553  0.00  0.00    +0.000 HD
ENDBRANCH   1  14
BRANCH   2  18
ATOM     18  N   UNL     1       4.754   1.856  20.725  0.00  0.00    +0.000 N 
ATOM     19  H   UNL     1       4.771   2.056  21.732  0.00  0.00    +0.000 HD
ATOM     20  H   UNL     1       4.211   1.031  20.489  0.00  0.00    +0.000 HD
ENDBRANCH   2  18
TORSDOF 2
ENDMDL
MODEL 7
REMARK VINA RESULT:      -6.9      2.081      2.169
REMARK  Name = 
REMARK  2 active torsions:
REMARK  status: ('A' for Active; 'I' for Inactive)
REMARK    1  A    between atoms: C_2  and  C_4
REMARK    2  A    between atoms: C_5  and  N_6
REMARK                            x       y       z     vdW  Elec       q    Type
REMARK                         _______ _______ _______ _____ _____    ______ ____
ROOT
ATOM      1  C   UNL     1       6.027   5.794  17.705  0.00  0.00    +0.000 A 
ATOM      2  C   UNL     1       6.500   4.624  18.190  0.00  0.00    +0.000 A 
ATOM      3  O   UNL     1       5.739   3.757  18.966  0.00  0.00    +0.000 OA
ATOM      4  C   UNL     1       4.476   4.119  19.338  0.00  0.00    +0.000 A 
ATOM      5  C   UNL     1       3.800   3.270  20.217  0.00  0.00    +0.000 A 
ATOM      6  C   UNL     1       2.507   3.595  20.634  0.00  0.00    +0.000 A 
ATOM      7  C   UNL     1       1.903   4.756  20.162  0.00  0.00    +0.000 A 
ATOM      8  F   UNL     1       0.664   5.064  20.567  0.00  0.00    +0.000 F 
ATOM      9  C   UNL     1       2.566   5.603  19.285  0.00  0.00    +0.000 A 
ATOM     10  C   UNL     1       3.863   5.275  18.879  0.00  0.00    +0.000 A 
ATOM     11  C   UNL     1       4.611   6.148  17.971  0.00  0.00    +0.000 A 
ATOM     12  O   UNL     1       4.068   7.131  17.474  0.00  0.00    +0.000 OA
ENDROOT
BRANCH   1  14
ATOM     13  N   UNL     1       7.005   7.990  17.364  0.00  0.00    +0.000 N 
ATOM     14  C   UNL     1       6.933   6.700  16.938  0.00  0.00    +0.000 C 
ATOM     15  O   UNL     1       7.612   6.322  15.986  0.00  0.00    +0.000 OA
ATOM     16  H   UNL     1       7.664   8.614  16.921  0.00  0.00    +0.000 HD
ATOM     17  H   UNL     1       6.556   8.287  18.229  0.00  0.00    +0.000 HD
ENDBRANCH   1  14
BRANCH   2  18
ATOM     18  N   UNL     1       7.773   4.133  17.980  0.00  0.00    +0.000 N 
ATOM     19  H   UNL     1       8.506   4.832  18.149  0.00  0.00    +0.000 HD
ATOM     20  H   UNL     1       7.940   3.253  18.457  0.00  0.00    +0.000 HD
ENDBRANCH   2  18
TORSDOF 2
ENDMDL
MODEL 8
REMARK VINA RESULT:      -6.8      2.974      4.900
REMARK  Name = 
REMARK  2 active torsions:
REMARK  status: ('A' for Active; 'I' for Inactive)
REMARK    1  A    between atoms: C_2  and  C_4
REMARK    2  A    between atoms: C_5  and  N_6
REMARK                            x       y       z     vdW  Elec       q    Type
REMARK                         _______ _______ _______ _____ _____    ______ ____
ROOT
ATOM      1  C   UNL     1       5.963   4.796  17.445  0.00  0.00    +0.000 A 
ATOM      2  C   UNL     1       7.028   5.577  17.158  0.00  0.00    +0.000 A 
ATOM      3  O   UNL     1       7.533   5.738  15.873  0.00  0.00    +0.000 OA
ATOM      4  C   UNL     1       6.995   5.019  14.844  0.00  0.00    +0.000 A 
ATOM      5  C   UNL     1       7.615   5.124  13.597  0.00  0.00    +0.000 A 
ATOM      6  C   UNL     1       7.109   4.405  12.511  0.00  0.00    +0.000 A 
ATOM      7  C   UNL     1       5.987   3.601  12.681  0.00  0.00    +0.000 A 
ATOM      8  F   UNL     1       5.508   2.912  11.637  0.00  0.00    +0.000 F 
ATOM      9  C   UNL     1       5.362   3.495  13.915  0.00  0.00    +0.000 A 
ATOM     10  C   UNL     1       5.879   4.210  15.000  0.00  0.00    +0.000 A 
ATOM     11  C   UNL     1       5.266   4.114  16.326  0.00  0.00    +0.000 A 
ATOM     12  O   UNL     1       4.226   3.480  16.480  0.00  0.00    +0.000 OA
ENDROOT
BRANCH   1  14
ATOM     13  N   UNL     1       5.383   3.344  19.303  0.00  0.00    +0.000 N 
ATOM     14  C   UNL     1       5.528   4.624  18.863  0.00  0.00    +0.000 C 
ATOM     15  O   UNL     1       5.333   5.567  19.625  0.00  0.00    +0.000 OA
ATOM     16  H   UNL     1       5.167   3.185  20.276  0.00  0.00    +0.000 HD
ATOM     17  H   UNL     1       5.670   2.552  18.730  0.00  0.00    +0.000 HD
ENDBRANCH   1  14
BRANCH   2  18
ATOM     18  N   UNL     1       7.742   6.317  18.080  0.00  0.00    +0.000 N 
ATOM     19  H   UNL     1       7.158   6.679  18.843  0.00  0.00    +0.000 HD
ATOM     20  H   UNL     1       8.578   5.842  18.405  0.00  0.00    +0.000 HD
ENDBRANCH   2  18
TORSDOF 2
ENDMDL
MODEL 9
REMARK VINA RESULT:      -6.8      3.982      5.571
REMARK  Name = 
REMARK  2 active torsions:
REMARK  status: ('A' for Active; 'I' for Inactive)
REMARK    1  A    between atoms: C_2  and  C_4
REMARK    2  A    between atoms: C_5  and  N_6
REMARK                            x       y       z     vdW  Elec       q    Type
REMARK                         _______ _______ _______ _____ _____    ______ ____
ROOT
ATOM      1  C   UNL     1       2.945   3.866  20.367  0.00  0.00    +0.000 A 
ATOM      2  C   UNL     1       4.043   3.533  19.653  0.00  0.00    +0.000 A 
ATOM      3  O   UNL     1       4.633   4.379  18.720  0.00  0.00    +0.000 OA
ATOM      4  C   UNL     1       4.046   5.578  18.434  0.00  0.00    +0.000 A 
ATOM      5  C   UNL     1       4.608   6.337  17.405  0.00  0.00    +0.000 A 
ATOM      6  C   UNL     1       4.044   7.569  17.068  0.00  0.00    +0.000 A 
ATOM      7  C   UNL     1       2.934   8.033  17.767  0.00  0.00    +0.000 A 
ATOM      8  F   UNL     1       2.396   9.215  17.438  0.00  0.00    +0.000 F 
ATOM      9  C   UNL     1       2.373   7.288  18.795  0.00  0.00    +0.000 A 
ATOM     10  C   UNL     1       2.937   6.051  19.121  0.00  0.00    +0.000 A 
ATOM     11  C   UNL     1       2.367   5.220  20.184  0.00  0.00    +0.000 A 
ATOM     12  O   UNL     1       1.444   5.647  20.871  0.00  0.00    +0.000 OA
ENDROOT
BRANCH   1  14
ATOM     13  N   UNL     1       0.982   2.732  21.236  0.00  0.00    +0.000 N 
ATOM     14  C   UNL     1       2.334   2.870  21.297  0.00  0.00    +0.000 C 
ATOM     15  O   UNL     1       2.995   2.178  22.068  0.00  0.00    +0.000 OA
ATOM     16  H   UNL     1       0.540   2.014  21.793  0.00  0.00    +0.000 HD
ATOM     17  H   UNL     1       0.434   3.196  20.514  0.00  0.00    +0.000 HD
ENDBRANCH   1  14
BRANCH   2  18
ATOM     18  N   UNL     1       4.724   2.336  19.754  0.00  0.00    +0.000 N 
ATOM     19  H   UNL     1       5.738   2.440  19.630  0.00  0.00    +0.000 HD
ATOM     20  H   UNL     1       4.473   1.808  20.583  0.00  0.00    +0.000 HD
ENDBRANCH   2  18
TORSDOF 2
ENDMDL
