MODEL 1
REMARK VINA RESULT:      -7.5      0.000      0.000
REMARK  Name = 
REMARK  6 active torsions:
REMARK  status: ('A' for Active; 'I' for Inactive)
REMARK    1  A    between atoms: C_1  and  C_2
REMARK    2  A    between atoms: C_3  and  C_4
REMARK    3  A    between atoms: C_4  and  C_6
REMARK    4  A    between atoms: C_6  and  N_7
REMARK    5  A    between atoms: N_10  and  C_11
REMARK    6  A    between atoms: N_25  and  C_26
REMARK                            x       y       z     vdW  Elec       q    Type
REMARK                         _______ _______ _______ _____ _____    ______ ____
ROOT
ATOM      1  C   UNL     1       0.259  12.003  19.003  0.00  0.00    +0.000 C 
ATOM      2  O   UNL     1       0.844  12.912  18.406  0.00  0.00    +0.000 OA
ENDROOT
BRANCH   1   5
ATOM      3  C   UNL     1      -1.498  12.733  21.598  0.00  0.00    +0.000 C 
ATOM      4  C   UNL     1      -1.942  12.348  20.227  0.00  0.00    +0.000 A 
ATOM      5  C   UNL     1      -1.209  11.970  19.102  0.00  0.00    +0.000 A 
ATOM      6  C   UNL     1      -2.163  11.553  18.110  0.00  0.00    +0.000 A 
ATOM      7  C   UNL     1      -2.066  10.931  16.844  0.00  0.00    +0.000 A 
ATOM      8  C   UNL     1      -3.217  10.687  16.086  0.00  0.00    +0.000 A 
ATOM      9  C   UNL     1      -4.464  11.066  16.565  0.00  0.00    +0.000 A 
ATOM     10  C   UNL     1      -4.597  11.651  17.824  0.00  0.00    +0.000 A 
ATOM     11  C   UNL     1      -3.437  11.866  18.592  0.00  0.00    +0.000 A 
ATOM     12  N   UNL     1      -3.273  12.380  19.862  0.00  0.00    +0.000 N 
ATOM     13  C   UNL     1      -4.337  12.888  20.704  0.00  0.00    +0.000 C 
ENDBRANCH   1   5
BRANCH   1  14
ATOM     14  C   UNL     1       1.085  10.865  19.630  0.00  0.00    +0.000 C 
BRANCH  14  15
ATOM     15  N   UNL     1       0.669   9.537  19.141  0.00  0.00    +0.000 NA
ATOM     16  C   UNL     1       1.452   9.036  17.987  0.00  0.00    +0.000 C 
ATOM     17  C   UNL     1       2.640   8.053  18.209  0.00  0.00    +0.000 C 
ATOM     18  N   UNL     1       2.534   7.203  19.410  0.00  0.00    +0.000 N 
ATOM     19  C   UNL     1       1.984   7.915  20.576  0.00  0.00    +0.000 C 
ATOM     20  C   UNL     1       0.618   8.536  20.221  0.00  0.00    +0.000 C 
BRANCH  18  21
ATOM     21  C   UNL     1       2.110   5.874  19.329  0.00  0.00    +0.000 A 
ATOM     22  C   UNL     1       1.730   5.210  20.512  0.00  0.00    +0.000 A 
ATOM     23  C   UNL     1       1.211   3.918  20.507  0.00  0.00    +0.000 A 
ATOM     24  C   UNL     1       1.057   3.244  19.304  0.00  0.00    +0.000 A 
ATOM     25  C   UNL     1       1.448   3.861  18.122  0.00  0.00    +0.000 A 
ATOM     26  C   UNL     1       1.982   5.157  18.132  0.00  0.00    +0.000 A 
ENDBRANCH  18  21
ENDBRANCH  14  15
ENDBRANCH   1  14
TORSDOF 4
ENDMDL
MODEL 2
REMARK VINA RESULT:      -7.3      2.671      8.390
REMARK  Name = 
REMARK  6 active torsions:
REMARK  status: ('A' for Active; 'I' for Inactive)
REMARK    1  A    between atoms: C_1  and  C_2
REMARK    2  A    between atoms: C_3  and  C_4
REMARK    3  A    between atoms: C_4  and  C_6
REMARK    4  A    between atoms: C_6  and  N_7
REMARK    5  A    between atoms: N_10  and  C_11
REMARK    6  A    between atoms: N_25  and  C_26
REMARK                            x       y       z     vdW  Elec       q    Type
REMARK                         _______ _______ _______ _____ _____    ______ ____
ROOT
ATOM      1  C   UNL     1       2.123   7.717  18.931  0.00  0.00    +0.000 C 
ATOM      2  O   UNL     1       1.806   8.263  17.870  0.00  0.00    +0.000 OA
ENDROOT
BRANCH   1   5
ATOM      3  C   UNL     1       4.734   6.899  17.237  0.00  0.00    +0.000 C 
ATOM      4  C   UNL     1       3.969   6.110  18.246  0.00  0.00    +0.000 A 
ATOM      5  C   UNL     1       2.804   6.413  18.951  0.00  0.00    +0.000 A 
ATOM      6  C   UNL     1       2.432   5.220  19.663  0.00  0.00    +0.000 A 
ATOM      7  C   UNL     1       1.300   4.830  20.415  0.00  0.00    +0.000 A 
ATOM      8  C   UNL     1       1.260   3.575  21.032  0.00  0.00    +0.000 A 
ATOM      9  C   UNL     1       2.337   2.705  20.922  0.00  0.00    +0.000 A 
ATOM     10  C   UNL     1       3.453   3.047  20.159  0.00  0.00    +0.000 A 
ATOM     11  C   UNL     1       3.473   4.300  19.518  0.00  0.00    +0.000 A 
ATOM     12  N   UNL     1       4.409   4.877  18.685  0.00  0.00    +0.000 N 
ATOM     13  C   UNL     1       5.679   4.287  18.316  0.00  0.00    +0.000 C 
ENDBRANCH   1   5
BRANCH   1  14
ATOM     14  C   UNL     1       1.823   8.434  20.261  0.00  0.00    +0.000 C 
BRANCH  14  15
ATOM     15  N   UNL     1       0.419   8.875  20.354  0.00  0.00    +0.000 NA
ATOM     16  C   UNL     1      -0.238   8.558  21.643  0.00  0.00    +0.000 C 
ATOM     17  C   UNL     1      -0.326   9.633  22.767  0.00  0.00    +0.000 C 
ATOM     18  N   UNL     1      -0.336  11.032  22.297  0.00  0.00    +0.000 N 
ATOM     19  C   UNL     1       0.580  11.269  21.169  0.00  0.00    +0.000 C 
ATOM     20  C   UNL     1       0.258  10.300  20.013  0.00  0.00    +0.000 C 
BRANCH  18  21
ATOM     21  C   UNL     1      -1.523  11.763  22.204  0.00  0.00    +0.000 A 
ATOM     22  C   UNL     1      -2.376  11.815  23.325  0.00  0.00    +0.000 A 
ATOM     23  C   UNL     1      -3.530  12.594  23.346  0.00  0.00    +0.000 A 
ATOM     24  C   UNL     1      -3.868  13.350  22.234  0.00  0.00    +0.000 A 
ATOM     25  C   UNL     1      -3.063  13.300  21.103  0.00  0.00    +0.000 A 
ATOM     26  C   UNL     1      -1.908  12.505  21.080  0.00  0.00    +0.000 A 
ENDBRANCH  18  21
ENDBRANCH  14  15
ENDBRANCH   1  14
TORSDOF 4
ENDMDL
MODEL 3
REMARK VINA RESULT:      -7.2      0.568      1.092
REMARK  Name = 
REMARK  6 active torsions:
REMARK  status: ('A' for Active; 'I' for Inactive)
REMARK    1  A    between atoms: C_1  and  C_2
REMARK    2  A    between atoms: C_3  and  C_4
REMARK    3  A    between atoms: C_4  and  C_6
REMARK    4  A    between atoms: C_6  and  N_7
REMARK    5  A    between atoms: N_10  and  C_11
REMARK    6  A    between atoms: N_25  and  C_26
REMARK                            x       y       z     vdW  Elec       q    Type
REMARK                         _______ _______ _______ _____ _____    ______ ____
ROOT
ATOM      1  C   UNL     1      -0.130  12.217  19.656  0.00  0.00    +0.000 C 
ATOM      2  O   UNL     1       0.477  13.193  19.205  0.00  0.00    +0.000 OA
ENDROOT
BRANCH   1   5
ATOM      3  C   UNL     1      -2.182  12.830  22.058  0.00  0.00    +0.000 C 
ATOM      4  C   UNL     1      -2.461  12.458  20.641  0.00  0.00    +0.000 A 
ATOM      5  C   UNL     1      -1.598  12.130  19.595  0.00  0.00    +0.000 A 
ATOM      6  C   UNL     1      -2.424  11.701  18.499  0.00  0.00    +0.000 A 
ATOM      7  C   UNL     1      -2.167  11.109  17.240  0.00  0.00    +0.000 A 
ATOM      8  C   UNL     1      -3.220  10.841  16.358  0.00  0.00    +0.000 A 
ATOM      9  C   UNL     1      -4.525  11.166  16.705  0.00  0.00    +0.000 A 
ATOM     10  C   UNL     1      -4.814  11.719  17.953  0.00  0.00    +0.000 A 
ATOM     11  C   UNL     1      -3.753  11.959  18.845  0.00  0.00    +0.000 A 
ATOM     12  N   UNL     1      -3.746  12.451  20.133  0.00  0.00    +0.000 N 
ATOM     13  C   UNL     1      -4.912  12.904  20.864  0.00  0.00    +0.000 C 
ENDBRANCH   1   5
BRANCH   1  14
ATOM     14  C   UNL     1       0.672  11.053  20.267  0.00  0.00    +0.000 C 
BRANCH  14  15
ATOM     15  N   UNL     1       0.295   9.750  19.689  0.00  0.00    +0.000 NA
ATOM     16  C   UNL     1       0.999   9.411  18.430  0.00  0.00    +0.000 C 
ATOM     17  C   UNL     1       2.259   8.496  18.455  0.00  0.00    +0.000 C 
ATOM     18  N   UNL     1       2.313   7.534  19.573  0.00  0.00    +0.000 N 
ATOM     19  C   UNL     1       1.829   8.097  20.844  0.00  0.00    +0.000 C 
ATOM     20  C   UNL     1       0.401   8.653  20.668  0.00  0.00    +0.000 C 
BRANCH  18  21
ATOM     21  C   UNL     1       1.966   6.192  19.399  0.00  0.00    +0.000 A 
ATOM     22  C   UNL     1       1.972   5.655  18.096  0.00  0.00    +0.000 A 
ATOM     23  C   UNL     1       1.728   4.306  17.847  0.00  0.00    +0.000 A 
ATOM     24  C   UNL     1       1.466   3.448  18.904  0.00  0.00    +0.000 A 
ATOM     25  C   UNL     1       1.426   3.953  20.198  0.00  0.00    +0.000 A 
ATOM     26  C   UNL     1       1.660   5.313  20.445  0.00  0.00    +0.000 A 
ENDBRANCH  18  21
ENDBRANCH  14  15
ENDBRANCH   1  14
TORSDOF 4
ENDMDL
MODEL 4
REMARK VINA RESULT:      -7.0      2.671      8.207
REMARK  Name = 
REMARK  6 active torsions:
REMARK  status: ('A' for Active; 'I' for Inactive)
REMARK    1  A    between atoms: C_1  and  C_2
REMARK    2  A    between atoms: C_3  and  C_4
REMARK    3  A    between atoms: C_4  and  C_6
REMARK    4  A    between atoms: C_6  and  N_7
REMARK    5  A    between atoms: N_10  and  C_11
REMARK    6  A    between atoms: N_25  and  C_26
REMARK                            x       y       z     vdW  Elec       q    Type
REMARK                         _______ _______ _______ _____ _____    ______ ____
ROOT
ATOM      1  C   UNL     1       2.180   7.784  18.924  0.00  0.00    +0.000 C 
ATOM      2  O   UNL     1       2.036   8.604  18.012  0.00  0.00    +0.000 OA
ENDROOT
BRANCH   1   5
ATOM      3  C   UNL     1       1.444   5.102  20.542  0.00  0.00    +0.000 C 
ATOM      4  C   UNL     1       2.325   5.283  19.352  0.00  0.00    +0.000 A 
ATOM      5  C   UNL     1       2.709   6.435  18.667  0.00  0.00    +0.000 A 
ATOM      6  C   UNL     1       3.697   6.031  17.702  0.00  0.00    +0.000 A 
ATOM      7  C   UNL     1       4.566   6.723  16.827  0.00  0.00    +0.000 A 
ATOM      8  C   UNL     1       5.405   6.015  15.960  0.00  0.00    +0.000 A 
ATOM      9  C   UNL     1       5.384   4.627  15.941  0.00  0.00    +0.000 A 
ATOM     10  C   UNL     1       4.563   3.916  16.816  0.00  0.00    +0.000 A 
ATOM     11  C   UNL     1       3.743   4.635  17.705  0.00  0.00    +0.000 A 
ATOM     12  N   UNL     1       2.876   4.204  18.688  0.00  0.00    +0.000 N 
ATOM     13  C   UNL     1       2.572   2.821  18.991  0.00  0.00    +0.000 C 
ENDBRANCH   1   5
BRANCH   1  14
ATOM     14  C   UNL     1       1.824   8.195  20.365  0.00  0.00    +0.000 C 
BRANCH  14  15
ATOM     15  N   UNL     1       0.434   8.675  20.482  0.00  0.00    +0.000 NA
ATOM     16  C   UNL     1      -0.167   8.489  21.823  0.00  0.00    +0.000 C 
ATOM     17  C   UNL     1      -0.181   9.662  22.848  0.00  0.00    +0.000 C 
ATOM     18  N   UNL     1      -0.186  11.013  22.256  0.00  0.00    +0.000 N 
ATOM     19  C   UNL     1       0.680  11.127  21.070  0.00  0.00    +0.000 C 
ATOM     20  C   UNL     1       0.285  10.067  20.022  0.00  0.00    +0.000 C 
BRANCH  18  21
ATOM     21  C   UNL     1      -1.362  11.760  22.152  0.00  0.00    +0.000 A 
ATOM     22  C   UNL     1      -2.273  11.742  23.226  0.00  0.00    +0.000 A 
ATOM     23  C   UNL     1      -3.422  12.529  23.241  0.00  0.00    +0.000 A 
ATOM     24  C   UNL     1      -3.696  13.365  22.168  0.00  0.00    +0.000 A 
ATOM     25  C   UNL     1      -2.830  13.386  21.082  0.00  0.00    +0.000 A 
ATOM     26  C   UNL     1      -1.681  12.584  21.064  0.00  0.00    +0.000 A 
ENDBRANCH  18  21
ENDBRANCH  14  15
ENDBRANCH   1  14
TORSDOF 4
ENDMDL
MODEL 5
REMARK VINA RESULT:      -6.8      3.188      4.047
REMARK  Name = 
REMARK  6 active torsions:
REMARK  status: ('A' for Active; 'I' for Inactive)
REMARK    1  A    between atoms: C_1  and  C_2
REMARK    2  A    between atoms: C_3  and  C_4
REMARK    3  A    between atoms: C_4  and  C_6
REMARK    4  A    between atoms: C_6  and  N_7
REMARK    5  A    between atoms: N_10  and  C_11
REMARK    6  A    between atoms: N_25  and  C_26
REMARK                            x       y       z     vdW  Elec       q    Type
REMARK                         _______ _______ _______ _____ _____    ______ ____
ROOT
ATOM      1  C   UNL     1       1.277   9.585  18.247  0.00  0.00    +0.000 C 
ATOM      2  O   UNL     1       0.432   9.287  17.397  0.00  0.00    +0.000 OA
ENDROOT
BRANCH   1   5
ATOM      3  C   UNL     1       1.905  12.739  18.358  0.00  0.00    +0.000 C 
ATOM      4  C   UNL     1       1.197  11.875  19.347  0.00  0.00    +0.000 A 
ATOM      5  C   UNL     1       0.962  10.500  19.355  0.00  0.00    +0.000 A 
ATOM      6  C   UNL     1       0.376  10.191  20.632  0.00  0.00    +0.000 A 
ATOM      7  C   UNL     1       0.054   8.991  21.308  0.00  0.00    +0.000 A 
ATOM      8  C   UNL     1      -0.563   9.031  22.563  0.00  0.00    +0.000 A 
ATOM      9  C   UNL     1      -0.877  10.249  23.151  0.00  0.00    +0.000 A 
ATOM     10  C   UNL     1      -0.542  11.450  22.525  0.00  0.00    +0.000 A 
ATOM     11  C   UNL     1       0.104  11.401  21.276  0.00  0.00    +0.000 A 
ATOM     12  N   UNL     1       0.578  12.407  20.461  0.00  0.00    +0.000 N 
ATOM     13  C   UNL     1       0.450  13.827  20.721  0.00  0.00    +0.000 C 
ENDBRANCH   1   5
BRANCH   1  14
ATOM     14  C   UNL     1       2.681   8.959  18.160  0.00  0.00    +0.000 C 
BRANCH  14  15
ATOM     15  N   UNL     1       2.648   7.584  17.628  0.00  0.00    +0.000 NA
ATOM     16  C   UNL     1       3.910   7.143  16.989  0.00  0.00    +0.000 C 
ATOM     17  C   UNL     1       4.944   6.297  17.791  0.00  0.00    +0.000 C 
ATOM     18  N   UNL     1       4.373   5.467  18.869  0.00  0.00    +0.000 N 
ATOM     19  C   UNL     1       3.294   6.143  19.609  0.00  0.00    +0.000 C 
ATOM     20  C   UNL     1       2.193   6.608  18.633  0.00  0.00    +0.000 C 
BRANCH  18  21
ATOM     21  C   UNL     1       4.148   4.099  18.696  0.00  0.00    +0.000 A 
ATOM     22  C   UNL     1       4.502   3.218  19.736  0.00  0.00    +0.000 A 
ATOM     23  C   UNL     1       4.227   1.853  19.682  0.00  0.00    +0.000 A 
ATOM     24  C   UNL     1       3.585   1.326  18.571  0.00  0.00    +0.000 A 
ATOM     25  C   UNL     1       3.247   2.165  17.517  0.00  0.00    +0.000 A 
ATOM     26  C   UNL     1       3.535   3.536  17.569  0.00  0.00    +0.000 A 
ENDBRANCH  18  21
ENDBRANCH  14  15
ENDBRANCH   1  14
TORSDOF 4
ENDMDL
MODEL 6
REMARK VINA RESULT:      -6.8      0.707      2.792
REMARK  Name = 
REMARK  6 active torsions:
REMARK  status: ('A' for Active; 'I' for Inactive)
REMARK    1  A    between atoms: C_1  and  C_2
REMARK    2  A    between atoms: C_3  and  C_4
REMARK    3  A    between atoms: C_4  and  C_6
REMARK    4  A    between atoms: C_6  and  N_7
REMARK    5  A    between atoms: N_10  and  C_11
REMARK    6  A    between atoms: N_25  and  C_26
REMARK                            x       y       z     vdW  Elec       q    Type
REMARK                         _______ _______ _______ _____ _____    ______ ____
ROOT
ATOM      1  C   UNL     1       0.066  12.170  19.181  0.00  0.00    +0.000 C 
ATOM      2  O   UNL     1       0.706  12.965  18.486  0.00  0.00    +0.000 OA
ENDROOT
BRANCH   1   5
ATOM      3  C   UNL     1      -2.125  11.251  17.010  0.00  0.00    +0.000 C 
ATOM      4  C   UNL     1      -2.319  11.811  18.379  0.00  0.00    +0.000 A 
ATOM      5  C   UNL     1      -1.395  12.272  19.317  0.00  0.00    +0.000 A 
ATOM      6  C   UNL     1      -2.155  12.850  20.393  0.00  0.00    +0.000 A 
ATOM      7  C   UNL     1      -1.824  13.604  21.543  0.00  0.00    +0.000 A 
ATOM      8  C   UNL     1      -2.823  13.994  22.442  0.00  0.00    +0.000 A 
ATOM      9  C   UNL     1      -4.146  13.633  22.221  0.00  0.00    +0.000 A 
ATOM     10  C   UNL     1      -4.508  12.919  21.079  0.00  0.00    +0.000 A 
ATOM     11  C   UNL     1      -3.501  12.556  20.165  0.00  0.00    +0.000 A 
ATOM     12  N   UNL     1      -3.571  11.894  18.957  0.00  0.00    +0.000 N 
ATOM     13  C   UNL     1      -4.777  11.354  18.365  0.00  0.00    +0.000 C 
ENDBRANCH   1   5
BRANCH   1  14
ATOM     14  C   UNL     1       0.814  11.028  19.895  0.00  0.00    +0.000 C 
BRANCH  14  15
ATOM     15  N   UNL     1       0.421   9.700  19.389  0.00  0.00    +0.000 NA
ATOM     16  C   UNL     1       1.191   9.242  18.209  0.00  0.00    +0.000 C 
ATOM     17  C   UNL     1       2.408   8.286  18.386  0.00  0.00    +0.000 C 
ATOM     18  N   UNL     1       2.349   7.409  19.571  0.00  0.00    +0.000 N 
ATOM     19  C   UNL     1       1.807   8.084  20.763  0.00  0.00    +0.000 C 
ATOM     20  C   UNL     1       0.418   8.677  20.450  0.00  0.00    +0.000 C 
BRANCH  18  21
ATOM     21  C   UNL     1       1.958   6.072  19.472  0.00  0.00    +0.000 A 
ATOM     22  C   UNL     1       2.021   5.439  18.215  0.00  0.00    +0.000 A 
ATOM     23  C   UNL     1       1.738   4.086  18.047  0.00  0.00    +0.000 A 
ATOM     24  C   UNL     1       1.377   3.319  19.145  0.00  0.00    +0.000 A 
ATOM     25  C   UNL     1       1.280   3.919  20.394  0.00  0.00    +0.000 A 
ATOM     26  C   UNL     1       1.554   5.284  20.558  0.00  0.00    +0.000 A 
ENDBRANCH  18  21
ENDBRANCH  14  15
ENDBRANCH   1  14
TORSDOF 4
ENDMDL
MODEL 7
REMARK VINA RESULT:      -6.6      2.574      8.259
REMARK  Name = 
REMARK  6 active torsions:
REMARK  status: ('A' for Active; 'I' for Inactive)
REMARK    1  A    between atoms: C_1  and  C_2
REMARK    2  A    between atoms: C_3  and  C_4
REMARK    3  A    between atoms: C_4  and  C_6
REMARK    4  A    between atoms: C_6  and  N_7
REMARK    5  A    between atoms: N_10  and  C_11
REMARK    6  A    between atoms: N_25  and  C_26
REMARK                            x       y       z     vdW  Elec       q    Type
REMARK                         _______ _______ _______ _____ _____    ______ ____
ROOT
ATOM      1  C   UNL     1       2.492   7.665  18.284  0.00  0.00    +0.000 C 
ATOM      2  O   UNL     1       2.155   8.463  17.405  0.00  0.00    +0.000 OA
ENDROOT
BRANCH   1   5
ATOM      3  C   UNL     1       5.454   7.374  17.059  0.00  0.00    +0.000 C 
ATOM      4  C   UNL     1       4.490   6.315  17.479  0.00  0.00    +0.000 A 
ATOM      5  C   UNL     1       3.182   6.408  17.956  0.00  0.00    +0.000 A 
ATOM      6  C   UNL     1       2.681   5.063  18.044  0.00  0.00    +0.000 A 
ATOM      7  C   UNL     1       1.411   4.495  18.304  0.00  0.00    +0.000 A 
ATOM      8  C   UNL     1       1.257   3.106  18.361  0.00  0.00    +0.000 A 
ATOM      9  C   UNL     1       2.351   2.271  18.176  0.00  0.00    +0.000 A 
ATOM     10  C   UNL     1       3.609   2.799  17.885  0.00  0.00    +0.000 A 
ATOM     11  C   UNL     1       3.750   4.196  17.801  0.00  0.00    +0.000 A 
ATOM     12  N   UNL     1       4.843   4.980  17.496  0.00  0.00    +0.000 N 
ATOM     13  C   UNL     1       6.180   4.488  17.233  0.00  0.00    +0.000 C 
ENDBRANCH   1   5
BRANCH   1  14
ATOM     14  C   UNL     1       2.209   8.010  19.758  0.00  0.00    +0.000 C 
BRANCH  14  15
ATOM     15  N   UNL     1       0.823   8.469  19.969  0.00  0.00    +0.000 NA
ATOM     16  C   UNL     1       0.274   8.164  21.310  0.00  0.00    +0.000 C 
ATOM     17  C   UNL     1       0.296   9.244  22.433  0.00  0.00    +0.000 C 
ATOM     18  N   UNL     1       0.263  10.641  21.960  0.00  0.00    +0.000 N 
ATOM     19  C   UNL     1       1.082  10.863  20.756  0.00  0.00    +0.000 C 
ATOM     20  C   UNL     1       0.652   9.894  19.636  0.00  0.00    +0.000 C 
BRANCH  18  21
ATOM     21  C   UNL     1      -0.918  11.386  21.965  0.00  0.00    +0.000 A 
ATOM     22  C   UNL     1      -1.391  11.915  20.747  0.00  0.00    +0.000 A 
ATOM     23  C   UNL     1      -2.606  12.590  20.650  0.00  0.00    +0.000 A 
ATOM     24  C   UNL     1      -3.389  12.759  21.782  0.00  0.00    +0.000 A 
ATOM     25  C   UNL     1      -2.938  12.274  23.003  0.00  0.00    +0.000 A 
ATOM     26  C   UNL     1      -1.710  11.605  23.100  0.00  0.00    +0.000 A 
ENDBRANCH  18  21
ENDBRANCH  14  15
ENDBRANCH   1  14
TORSDOF 4
ENDMDL
MODEL 8
REMARK VINA RESULT:      -6.6      2.614      8.348
REMARK  Name = 
REMARK  6 active torsions:
REMARK  status: ('A' for Active; 'I' for Inactive)
REMARK    1  A    between atoms: C_1  and  C_2
REMARK    2  A    between atoms: C_3  and  C_4
REMARK    3  A    between atoms: C_4  and  C_6
REMARK    4  A    between atoms: C_6  and  N_7
REMARK    5  A    between atoms: N_10  and  C_11
REMARK    6  A    between atoms: N_25  and  C_26
REMARK                            x       y       z     vdW  Elec       q    Type
REMARK                         _______ _______ _______ _____ _____    ______ ____
ROOT
ATOM      1  C   UNL     1       2.596   7.527  18.095  0.00  0.00    +0.000 C 
ATOM      2  O   UNL     1       2.625   8.430  17.253  0.00  0.00    +0.000 OA
ENDROOT
BRANCH   1   5
ATOM      3  C   UNL     1       5.664   7.197  17.180  0.00  0.00    +0.000 C 
ATOM      4  C   UNL     1       4.663   6.153  17.545  0.00  0.00    +0.000 A 
ATOM      5  C   UNL     1       3.315   6.260  17.887  0.00  0.00    +0.000 A 
ATOM      6  C   UNL     1       2.805   4.918  17.980  0.00  0.00    +0.000 A 
ATOM      7  C   UNL     1       1.516   4.358  18.136  0.00  0.00    +0.000 A 
ATOM      8  C   UNL     1       1.356   2.971  18.233  0.00  0.00    +0.000 A 
ATOM      9  C   UNL     1       2.462   2.133  18.190  0.00  0.00    +0.000 A 
ATOM     10  C   UNL     1       3.743   2.652  18.003  0.00  0.00    +0.000 A 
ATOM     11  C   UNL     1       3.893   4.046  17.877  0.00  0.00    +0.000 A 
ATOM     12  N   UNL     1       5.011   4.820  17.650  0.00  0.00    +0.000 N 
ATOM     13  C   UNL     1       6.367   4.323  17.540  0.00  0.00    +0.000 C 
ENDBRANCH   1   5
BRANCH   1  14
ATOM     14  C   UNL     1       1.816   7.748  19.404  0.00  0.00    +0.000 C 
BRANCH  14  15
ATOM     15  N   UNL     1       1.758   9.171  19.788  0.00  0.00    +0.000 NA
ATOM     16  C   UNL     1       0.907  10.007  18.910  0.00  0.00    +0.000 C 
ATOM     17  C   UNL     1      -0.561  10.332  19.315  0.00  0.00    +0.000 C 
ATOM     18  N   UNL     1      -0.824  10.343  20.767  0.00  0.00    +0.000 N 
ATOM     19  C   UNL     1      -0.116   9.272  21.490  0.00  0.00    +0.000 C 
ATOM     20  C   UNL     1       1.397   9.352  21.205  0.00  0.00    +0.000 C 
BRANCH  18  21
ATOM     21  C   UNL     1      -0.896  11.537  21.488  0.00  0.00    +0.000 A 
ATOM     22  C   UNL     1      -1.723  11.592  22.627  0.00  0.00    +0.000 A 
ATOM     23  C   UNL     1      -1.780  12.713  23.452  0.00  0.00    +0.000 A 
ATOM     24  C   UNL     1      -1.005  13.824  23.155  0.00  0.00    +0.000 A 
ATOM     25  C   UNL     1      -0.200  13.812  22.024  0.00  0.00    +0.000 A 
ATOM     26  C   UNL     1      -0.153  12.687  21.189  0.00  0.00    +0.000 A 
ENDBRANCH  18  21
ENDBRANCH  14  15
ENDBRANCH   1  14
TORSDOF 4
ENDMDL
MODEL 9
REMARK VINA RESULT:      -6.6      2.001      8.310
REMARK  Name = 
REMARK  6 active torsions:
REMARK  status: ('A' for Active; 'I' for Inactive)
REMARK    1  A    between atoms: C_1  and  C_2
REMARK    2  A    between atoms: C_3  and  C_4
REMARK    3  A    between atoms: C_4  and  C_6
REMARK    4  A    between atoms: C_6  and  N_7
REMARK    5  A    between atoms: N_10  and  C_11
REMARK    6  A    between atoms: N_25  and  C_26
REMARK                            x       y       z     vdW  Elec       q    Type
REMARK                         _______ _______ _______ _____ _____    ______ ____
ROOT
ATOM      1  C   UNL     1       1.953   7.654  20.015  0.00  0.00    +0.000 C 
ATOM      2  O   UNL     1       1.907   7.714  21.247  0.00  0.00    +0.000 OA
ENDROOT
BRANCH   1   5
ATOM      3  C   UNL     1       3.804   7.500  17.387  0.00  0.00    +0.000 C 
ATOM      4  C   UNL     1       3.236   6.397  18.217  0.00  0.00    +0.000 A 
ATOM      5  C   UNL     1       2.385   6.431  19.322  0.00  0.00    +0.000 A 
ATOM      6  C   UNL     1       2.036   5.066  19.614  0.00  0.00    +0.000 A 
ATOM      7  C   UNL     1       1.114   4.447  20.490  0.00  0.00    +0.000 A 
ATOM      8  C   UNL     1       1.042   3.052  20.568  0.00  0.00    +0.000 A 
ATOM      9  C   UNL     1       1.884   2.262  19.795  0.00  0.00    +0.000 A 
ATOM     10  C   UNL     1       2.780   2.842  18.897  0.00  0.00    +0.000 A 
ATOM     11  C   UNL     1       2.826   4.246  18.804  0.00  0.00    +0.000 A 
ATOM     12  N   UNL     1       3.570   5.076  17.992  0.00  0.00    +0.000 N 
ATOM     13  C   UNL     1       4.568   4.640  17.037  0.00  0.00    +0.000 C 
ENDBRANCH   1   5
BRANCH   1  14
ATOM     14  C   UNL     1       1.519   8.879  19.188  0.00  0.00    +0.000 C 
BRANCH  14  15
ATOM     15  N   UNL     1       0.861   9.907  20.015  0.00  0.00    +0.000 NA
ATOM     16  C   UNL     1       1.254  11.298  19.692  0.00  0.00    +0.000 C 
ATOM     17  C   UNL     1       0.367  12.169  18.752  0.00  0.00    +0.000 C 
ATOM     18  N   UNL     1      -1.067  11.824  18.748  0.00  0.00    +0.000 N 
ATOM     19  C   UNL     1      -1.314  10.373  18.801  0.00  0.00    +0.000 C 
ATOM     20  C   UNL     1      -0.605   9.760  20.026  0.00  0.00    +0.000 C 
BRANCH  18  21
ATOM     21  C   UNL     1      -1.999  12.566  19.479  0.00  0.00    +0.000 A 
ATOM     22  C   UNL     1      -3.357  12.194  19.421  0.00  0.00    +0.000 A 
ATOM     23  C   UNL     1      -4.334  12.821  20.190  0.00  0.00    +0.000 A 
ATOM     24  C   UNL     1      -3.977  13.853  21.046  0.00  0.00    +0.000 A 
ATOM     25  C   UNL     1      -2.651  14.261  21.106  0.00  0.00    +0.000 A 
ATOM     26  C   UNL     1      -1.671  13.635  20.322  0.00  0.00    +0.000 A 
ENDBRANCH  18  21
ENDBRANCH  14  15
ENDBRANCH   1  14
TORSDOF 4
ENDMDL
