MODEL 1
REMARK VINA RESULT:     -10.4      0.000      0.000
REMARK  Name = 
REMARK  6 active torsions:
REMARK  status: ('A' for Active; 'I' for Inactive)
REMARK    1  A    between atoms: C_1  and  C_2
REMARK    2  A    between atoms: N_7  and  C_8
REMARK    3  A    between atoms: C_12  and  C_13
REMARK    4  A    between atoms: C_15  and  C_16
REMARK    5  A    between atoms: N_20  and  C_21
REMARK    6  A    between atoms: C_21  and  C_22
REMARK                            x       y       z     vdW  Elec       q    Type
REMARK                         _______ _______ _______ _____ _____    ______ ____
ROOT
ATOM      1  C   UNL     1       2.900   6.596  18.603  0.00  0.00    +0.000 A 
ATOM      2  C   UNL     1       4.058   6.743  17.855  0.00  0.00    +0.000 A 
ATOM      3  C   UNL     1       4.438   5.472  17.362  0.00  0.00    +0.000 A 
ATOM      4  C   UNL     1       3.549   4.551  17.892  0.00  0.00    +0.000 A 
ATOM      5  C   UNL     1       3.425   3.122  17.893  0.00  0.00    +0.000 A 
ATOM      6  N   UNL     1       4.364   2.244  17.460  0.00  0.00    +0.000 N 
ATOM      7  N   UNL     1       2.339   2.587  18.372  0.00  0.00    +0.000 NA
ATOM      8  C   UNL     1       1.390   3.399  18.925  0.00  0.00    +0.000 A 
ATOM      9  N   UNL     1       1.455   4.678  19.058  0.00  0.00    +0.000 NA
ATOM     10  N   UNL     1       2.572   5.249  18.553  0.00  0.00    +0.000 N 
ATOM     11  H   UNL     1       5.239   2.550  17.064  0.00  0.00    +0.000 HD
ATOM     12  H   UNL     1       4.055   1.301  17.267  0.00  0.00    +0.000 HD
ENDROOT
BRANCH   1  17
ATOM     13  C   UNL     1       1.115   9.872  19.304  0.00  0.00    +0.000 A 
ATOM     14  C   UNL     1       0.606   9.605  20.577  0.00  0.00    +0.000 A 
ATOM     15  C   UNL     1       0.844   8.383  21.218  0.00  0.00    +0.000 A 
ATOM     16  C   UNL     1       1.601   7.398  20.583  0.00  0.00    +0.000 A 
ATOM     17  C   UNL     1       2.115   7.623  19.303  0.00  0.00    +0.000 A 
ATOM     18  C   UNL     1       1.844   8.852  18.682  0.00  0.00    +0.000 A 
BRANCH  13  25
ATOM     19  C   UNL     1       1.767  15.965  18.400  0.00  0.00    +0.000 C 
ATOM     20  C   UNL     1       0.611  15.177  18.956  0.00  0.00    +0.000 C 
ATOM     21  O   UNL     1      -0.515  15.675  18.980  0.00  0.00    +0.000 OA
ATOM     22  N   UNL     1       0.868  13.894  19.397  0.00  0.00    +0.000 N 
ATOM     23  C   UNL     1      -0.250  13.027  19.781  0.00  0.00    +0.000 C 
ATOM     24  C   UNL     1      -0.348  11.830  18.822  0.00  0.00    +0.000 C 
ATOM     25  N   UNL     1       0.942  11.113  18.713  0.00  0.00    +0.000 N 
ATOM     26  C   UNL     1       2.127  11.949  18.447  0.00  0.00    +0.000 C 
ATOM     27  C   UNL     1       2.162  13.197  19.359  0.00  0.00    +0.000 C 
ENDBRANCH  13  25
ENDBRANCH   1  17
BRANCH   3  28
ATOM     28  C   UNL     1       5.538   5.203  16.395  0.00  0.00    +0.000 A 
ATOM     29  C   UNL     1       5.461   5.418  15.038  0.00  0.00    +0.000 A 
ATOM     30  C   UNL     1       6.724   5.087  14.536  0.00  0.00    +0.000 A 
ATOM     31  N   UNL     1       7.563   4.702  15.495  0.00  0.00    +0.000 NA
ATOM     32  N   UNL     1       6.833   4.791  16.632  0.00  0.00    +0.000 N 
BRANCH  32  33
ATOM     33  C   UNL     1       7.511   4.496  17.872  0.00  0.00    +0.000 C 
BRANCH  33  34
ATOM     34  C   UNL     1       7.595   5.649  18.842  0.00  0.00    +0.000 C 
ATOM     35  F   UNL     1       6.531   5.768  19.660  0.00  0.00    +0.000 F 
ATOM     36  F   UNL     1       8.694   5.534  19.628  0.00  0.00    +0.000 F 
ATOM     37  F   UNL     1       7.723   6.818  18.168  0.00  0.00    +0.000 F 
ENDBRANCH  33  34
ENDBRANCH  32  33
ENDBRANCH   3  28
TORSDOF 5
ENDMDL
MODEL 2
REMARK VINA RESULT:     -10.1      1.126      1.165
REMARK  Name = 
REMARK  6 active torsions:
REMARK  status: ('A' for Active; 'I' for Inactive)
REMARK    1  A    between atoms: C_1  and  C_2
REMARK    2  A    between atoms: N_7  and  C_8
REMARK    3  A    between atoms: C_12  and  C_13
REMARK    4  A    between atoms: C_15  and  C_16
REMARK    5  A    between atoms: N_20  and  C_21
REMARK    6  A    between atoms: C_21  and  C_22
REMARK                            x       y       z     vdW  Elec       q    Type
REMARK                         _______ _______ _______ _____ _____    ______ ____
ROOT
ATOM      1  C   UNL     1       2.639   6.712  19.355  0.00  0.00    +0.000 A 
ATOM      2  C   UNL     1       3.528   6.735  18.292  0.00  0.00    +0.000 A 
ATOM      3  C   UNL     1       4.117   5.453  18.173  0.00  0.00    +0.000 A 
ATOM      4  C   UNL     1       3.639   4.689  19.225  0.00  0.00    +0.000 A 
ATOM      5  C   UNL     1       3.901   3.381  19.750  0.00  0.00    +0.000 A 
ATOM      6  N   UNL     1       4.924   2.569  19.382  0.00  0.00    +0.000 N 
ATOM      7  N   UNL     1       3.125   2.912  20.685  0.00  0.00    +0.000 NA
ATOM      8  C   UNL     1       2.136   3.711  21.184  0.00  0.00    +0.000 A 
ATOM      9  N   UNL     1       1.887   4.928  20.847  0.00  0.00    +0.000 NA
ATOM     10  N   UNL     1       2.677   5.423  19.868  0.00  0.00    +0.000 N 
ATOM     11  H   UNL     1       5.581   2.829  18.664  0.00  0.00    +0.000 HD
ATOM     12  H   UNL     1       4.842   1.590  19.625  0.00  0.00    +0.000 HD
ENDROOT
BRANCH   1  17
ATOM     13  C   UNL     1       0.841  10.048  19.577  0.00  0.00    +0.000 A 
ATOM     14  C   UNL     1       0.136   9.866  20.770  0.00  0.00    +0.000 A 
ATOM     15  C   UNL     1       0.245   8.683  21.511  0.00  0.00    +0.000 A 
ATOM     16  C   UNL     1       1.070   7.651  21.059  0.00  0.00    +0.000 A 
ATOM     17  C   UNL     1       1.779   7.790  19.863  0.00  0.00    +0.000 A 
ATOM     18  C   UNL     1       1.634   8.983  19.137  0.00  0.00    +0.000 A 
BRANCH  13  25
ATOM     19  C   UNL     1       1.988  15.997  18.293  0.00  0.00    +0.000 C 
ATOM     20  C   UNL     1       0.752  15.336  18.842  0.00  0.00    +0.000 C 
ATOM     21  O   UNL     1      -0.333  15.914  18.775  0.00  0.00    +0.000 OA
ATOM     22  N   UNL     1       0.891  14.073  19.382  0.00  0.00    +0.000 N 
ATOM     23  C   UNL     1      -0.305  13.318  19.768  0.00  0.00    +0.000 C 
ATOM     24  C   UNL     1      -0.448  12.066  18.889  0.00  0.00    +0.000 C 
ATOM     25  N   UNL     1       0.788  11.253  18.894  0.00  0.00    +0.000 N 
ATOM     26  C   UNL     1       2.043  11.980  18.633  0.00  0.00    +0.000 C 
ATOM     27  C   UNL     1       2.130  13.285  19.458  0.00  0.00    +0.000 C 
ENDBRANCH  13  25
ENDBRANCH   1  17
BRANCH   3  28
ATOM     28  C   UNL     1       5.015   5.003  17.073  0.00  0.00    +0.000 A 
ATOM     29  C   UNL     1       4.669   4.097  16.097  0.00  0.00    +0.000 A 
ATOM     30  C   UNL     1       5.782   4.016  15.253  0.00  0.00    +0.000 A 
ATOM     31  N   UNL     1       6.768   4.819  15.640  0.00  0.00    +0.000 NA
ATOM     32  N   UNL     1       6.285   5.431  16.747  0.00  0.00    +0.000 N 
BRANCH  32  33
ATOM     33  C   UNL     1       7.124   6.432  17.364  0.00  0.00    +0.000 C 
BRANCH  33  34
ATOM     34  C   UNL     1       7.737   6.025  18.681  0.00  0.00    +0.000 C 
ATOM     35  F   UNL     1       6.849   5.855  19.681  0.00  0.00    +0.000 F 
ATOM     36  F   UNL     1       8.422   4.863  18.553  0.00  0.00    +0.000 F 
ATOM     37  F   UNL     1       8.632   6.958  19.089  0.00  0.00    +0.000 F 
ENDBRANCH  33  34
ENDBRANCH  32  33
ENDBRANCH   3  28
TORSDOF 5
ENDMDL
MODEL 3
REMARK VINA RESULT:      -9.6      1.250      1.461
REMARK  Name = 
REMARK  6 active torsions:
REMARK  status: ('A' for Active; 'I' for Inactive)
REMARK    1  A    between atoms: C_1  and  C_2
REMARK    2  A    between atoms: N_7  and  C_8
REMARK    3  A    between atoms: C_12  and  C_13
REMARK    4  A    between atoms: C_15  and  C_16
REMARK    5  A    between atoms: N_20  and  C_21
REMARK    6  A    between atoms: C_21  and  C_22
REMARK                            x       y       z     vdW  Elec       q    Type
REMARK                         _______ _______ _______ _____ _____    ______ ____
ROOT
ATOM      1  C   UNL     1       2.693   6.972  19.209  0.00  0.00    +0.000 A 
ATOM      2  C   UNL     1       3.645   7.103  18.211  0.00  0.00    +0.000 A 
ATOM      3  C   UNL     1       4.289   5.853  18.040  0.00  0.00    +0.000 A 
ATOM      4  C   UNL     1       3.775   4.999  19.001  0.00  0.00    +0.000 A 
ATOM      5  C   UNL     1       4.055   3.666  19.449  0.00  0.00    +0.000 A 
ATOM      6  N   UNL     1       5.129   2.917  19.092  0.00  0.00    +0.000 N 
ATOM      7  N   UNL     1       3.240   3.104  20.295  0.00  0.00    +0.000 NA
ATOM      8  C   UNL     1       2.191   3.830  20.784  0.00  0.00    +0.000 A 
ATOM      9  N   UNL     1       1.917   5.060  20.519  0.00  0.00    +0.000 NA
ATOM     10  N   UNL     1       2.748   5.652  19.631  0.00  0.00    +0.000 N 
ATOM     11  H   UNL     1       5.819   3.252  18.438  0.00  0.00    +0.000 HD
ATOM     12  H   UNL     1       5.069   1.922  19.259  0.00  0.00    +0.000 HD
ENDROOT
BRANCH   1  17
ATOM     13  C   UNL     1       0.705  10.192  19.510  0.00  0.00    +0.000 A 
ATOM     14  C   UNL     1      -0.016   9.926  20.677  0.00  0.00    +0.000 A 
ATOM     15  C   UNL     1       0.143   8.724  21.376  0.00  0.00    +0.000 A 
ATOM     16  C   UNL     1       1.034   7.757  20.907  0.00  0.00    +0.000 A 
ATOM     17  C   UNL     1       1.762   7.981  19.735  0.00  0.00    +0.000 A 
ATOM     18  C   UNL     1       1.567   9.190  19.050  0.00  0.00    +0.000 A 
BRANCH  13  25
ATOM     19  C   UNL     1       1.690  16.201  18.375  0.00  0.00    +0.000 C 
ATOM     20  C   UNL     1       0.492  15.499  18.957  0.00  0.00    +0.000 C 
ATOM     21  O   UNL     1      -0.605  16.059  18.960  0.00  0.00    +0.000 OA
ATOM     22  N   UNL     1       0.678  14.222  19.448  0.00  0.00    +0.000 N 
ATOM     23  C   UNL     1      -0.486  13.433  19.862  0.00  0.00    +0.000 C 
ATOM     24  C   UNL     1      -0.649  12.207  18.950  0.00  0.00    +0.000 C 
ATOM     25  N   UNL     1       0.600  11.418  18.871  0.00  0.00    +0.000 N 
ATOM     26  C   UNL     1       1.829  12.177  18.576  0.00  0.00    +0.000 C 
ATOM     27  C   UNL     1       1.932  13.455  19.440  0.00  0.00    +0.000 C 
ENDBRANCH  13  25
ENDBRANCH   1  17
BRANCH   3  28
ATOM     28  C   UNL     1       5.271   5.515  16.972  0.00  0.00    +0.000 A 
ATOM     29  C   UNL     1       4.941   5.040  15.723  0.00  0.00    +0.000 A 
ATOM     30  C   UNL     1       6.156   4.918  15.039  0.00  0.00    +0.000 A 
ATOM     31  N   UNL     1       7.193   5.298  15.780  0.00  0.00    +0.000 NA
ATOM     32  N   UNL     1       6.641   5.677  16.956  0.00  0.00    +0.000 N 
BRANCH  32  33
ATOM     33  C   UNL     1       7.532   6.214  17.958  0.00  0.00    +0.000 C 
BRANCH  33  34
ATOM     34  C   UNL     1       7.833   7.686  17.819  0.00  0.00    +0.000 C 
ATOM     35  F   UNL     1       8.463   8.022  16.676  0.00  0.00    +0.000 F 
ATOM     36  F   UNL     1       6.692   8.416  17.876  0.00  0.00    +0.000 F 
ATOM     37  F   UNL     1       8.609   8.104  18.849  0.00  0.00    +0.000 F 
ENDBRANCH  33  34
ENDBRANCH  32  33
ENDBRANCH   3  28
TORSDOF 5
ENDMDL
MODEL 4
REMARK VINA RESULT:      -9.4      2.428      3.115
REMARK  Name = 
REMARK  6 active torsions:
REMARK  status: ('A' for Active; 'I' for Inactive)
REMARK    1  A    between atoms: C_1  and  C_2
REMARK    2  A    between atoms: N_7  and  C_8
REMARK    3  A    between atoms: C_12  and  C_13
REMARK    4  A    between atoms: C_15  and  C_16
REMARK    5  A    between atoms: N_20  and  C_21
REMARK    6  A    between atoms: C_21  and  C_22
REMARK                            x       y       z     vdW  Elec       q    Type
REMARK                         _______ _______ _______ _____ _____    ______ ____
ROOT
ATOM      1  C   UNL     1       2.488   6.975  19.450  0.00  0.00    +0.000 A 
ATOM      2  C   UNL     1       3.351   7.018  18.367  0.00  0.00    +0.000 A 
ATOM      3  C   UNL     1       3.943   5.741  18.214  0.00  0.00    +0.000 A 
ATOM      4  C   UNL     1       3.494   4.960  19.266  0.00  0.00    +0.000 A 
ATOM      5  C   UNL     1       3.776   3.645  19.766  0.00  0.00    +0.000 A 
ATOM      6  N   UNL     1       4.794   2.844  19.361  0.00  0.00    +0.000 N 
ATOM      7  N   UNL     1       3.024   3.158  20.711  0.00  0.00    +0.000 NA
ATOM      8  C   UNL     1       2.043   3.944  21.245  0.00  0.00    +0.000 A 
ATOM      9  N   UNL     1       1.779   5.165  20.932  0.00  0.00    +0.000 NA
ATOM     10  N   UNL     1       2.544   5.679  19.942  0.00  0.00    +0.000 N 
ATOM     11  H   UNL     1       5.432   3.119  18.632  0.00  0.00    +0.000 HD
ATOM     12  H   UNL     1       4.722   1.862  19.592  0.00  0.00    +0.000 HD
ENDROOT
BRANCH   1  17
ATOM     13  C   UNL     1      -0.050   9.794  19.607  0.00  0.00    +0.000 A 
ATOM     14  C   UNL     1      -0.032  10.062  20.978  0.00  0.00    +0.000 A 
ATOM     15  C   UNL     1       0.802   9.353  21.851  0.00  0.00    +0.000 A 
ATOM     16  C   UNL     1       1.635   8.348  21.357  0.00  0.00    +0.000 A 
ATOM     17  C   UNL     1       1.634   8.040  19.994  0.00  0.00    +0.000 A 
ATOM     18  C   UNL     1       0.774   8.760  19.149  0.00  0.00    +0.000 A 
BRANCH  13  25
ATOM     19  C   UNL     1      -5.128  12.281  17.079  0.00  0.00    +0.000 C 
ATOM     20  C   UNL     1      -4.233  11.173  16.589  0.00  0.00    +0.000 C 
ATOM     21  O   UNL     1      -4.244  10.859  15.398  0.00  0.00    +0.000 OA
ATOM     22  N   UNL     1      -3.405  10.567  17.513  0.00  0.00    +0.000 N 
ATOM     23  C   UNL     1      -2.395   9.609  17.055  0.00  0.00    +0.000 C 
ATOM     24  C   UNL     1      -0.984  10.156  17.326  0.00  0.00    +0.000 C 
ATOM     25  N   UNL     1      -0.818  10.556  18.741  0.00  0.00    +0.000 N 
ATOM     26  C   UNL     1      -1.872  11.424  19.297  0.00  0.00    +0.000 C 
ATOM     27  C   UNL     1      -3.285  10.909  18.937  0.00  0.00    +0.000 C 
ENDBRANCH  13  25
ENDBRANCH   1  17
BRANCH   3  28
ATOM     28  C   UNL     1       4.818   5.313  17.087  0.00  0.00    +0.000 A 
ATOM     29  C   UNL     1       4.424   4.492  16.055  0.00  0.00    +0.000 A 
ATOM     30  C   UNL     1       5.533   4.403  15.207  0.00  0.00    +0.000 A 
ATOM     31  N   UNL     1       6.562   5.122  15.645  0.00  0.00    +0.000 NA
ATOM     32  N   UNL     1       6.111   5.688  16.789  0.00  0.00    +0.000 N 
BRANCH  32  33
ATOM     33  C   UNL     1       7.004   6.598  17.468  0.00  0.00    +0.000 C 
BRANCH  33  34
ATOM     34  C   UNL     1       7.713   6.017  18.667  0.00  0.00    +0.000 C 
ATOM     35  F   UNL     1       8.324   4.838  18.437  0.00  0.00    +0.000 F 
ATOM     36  F   UNL     1       8.657   6.874  19.127  0.00  0.00    +0.000 F 
ATOM     37  F   UNL     1       6.835   5.828  19.683  0.00  0.00    +0.000 F 
ENDBRANCH  33  34
ENDBRANCH  32  33
ENDBRANCH   3  28
TORSDOF 5
ENDMDL
MODEL 5
REMARK VINA RESULT:      -9.1      1.895      2.489
REMARK  Name = 
REMARK  6 active torsions:
REMARK  status: ('A' for Active; 'I' for Inactive)
REMARK    1  A    between atoms: C_1  and  C_2
REMARK    2  A    between atoms: N_7  and  C_8
REMARK    3  A    between atoms: C_12  and  C_13
REMARK    4  A    between atoms: C_15  and  C_16
REMARK    5  A    between atoms: N_20  and  C_21
REMARK    6  A    between atoms: C_21  and  C_22
REMARK                            x       y       z     vdW  Elec       q    Type
REMARK                         _______ _______ _______ _____ _____    ______ ____
ROOT
ATOM      1  C   UNL     1       2.540   7.474  18.156  0.00  0.00    +0.000 A 
ATOM      2  C   UNL     1       3.564   7.404  17.225  0.00  0.00    +0.000 A 
ATOM      3  C   UNL     1       4.268   6.192  17.424  0.00  0.00    +0.000 A 
ATOM      4  C   UNL     1       3.712   5.579  18.534  0.00  0.00    +0.000 A 
ATOM      5  C   UNL     1       4.006   4.420  19.327  0.00  0.00    +0.000 A 
ATOM      6  N   UNL     1       5.134   3.671  19.247  0.00  0.00    +0.000 N 
ATOM      7  N   UNL     1       3.148   4.043  20.230  0.00  0.00    +0.000 NA
ATOM      8  C   UNL     1       2.036   4.807  20.444  0.00  0.00    +0.000 A 
ATOM      9  N   UNL     1       1.736   5.911  19.855  0.00  0.00    +0.000 NA
ATOM     10  N   UNL     1       2.612   6.308  18.904  0.00  0.00    +0.000 N 
ATOM     11  H   UNL     1       5.861   3.869  18.578  0.00  0.00    +0.000 HD
ATOM     12  H   UNL     1       5.100   2.747  19.659  0.00  0.00    +0.000 HD
ENDROOT
BRANCH   1  17
ATOM     13  C   UNL     1       0.664  10.401  19.681  0.00  0.00    +0.000 A 
ATOM     14  C   UNL     1      -0.349  10.562  18.732  0.00  0.00    +0.000 A 
ATOM     15  C   UNL     1      -0.442   9.727  17.612  0.00  0.00    +0.000 A 
ATOM     16  C   UNL     1       0.494   8.709  17.422  0.00  0.00    +0.000 A 
ATOM     17  C   UNL     1       1.531   8.526  18.341  0.00  0.00    +0.000 A 
ATOM     18  C   UNL     1       1.603   9.391  19.445  0.00  0.00    +0.000 A 
BRANCH  13  25
ATOM     19  C   UNL     1      -1.321  14.323  24.044  0.00  0.00    +0.000 C 
ATOM     20  C   UNL     1      -0.358  14.532  22.906  0.00  0.00    +0.000 C 
ATOM     21  O   UNL     1       0.429  15.479  22.935  0.00  0.00    +0.000 OA
ATOM     22  N   UNL     1      -0.384  13.616  21.873  0.00  0.00    +0.000 N 
ATOM     23  C   UNL     1       0.647  13.675  20.833  0.00  0.00    +0.000 C 
ATOM     24  C   UNL     1       1.520  12.411  20.879  0.00  0.00    +0.000 C 
ATOM     25  N   UNL     1       0.699  11.180  20.826  0.00  0.00    +0.000 N 
ATOM     26  C   UNL     1      -0.432  11.115  21.769  0.00  0.00    +0.000 C 
ATOM     27  C   UNL     1      -1.246  12.430  21.776  0.00  0.00    +0.000 C 
ENDBRANCH  13  25
ENDBRANCH   1  17
BRANCH   3  28
ATOM     28  C   UNL     1       5.346   5.653  16.548  0.00  0.00    +0.000 A 
ATOM     29  C   UNL     1       5.143   4.808  15.481  0.00  0.00    +0.000 A 
ATOM     30  C   UNL     1       6.408   4.608  14.919  0.00  0.00    +0.000 A 
ATOM     31  N   UNL     1       7.358   5.283  15.560  0.00  0.00    +0.000 NA
ATOM     32  N   UNL     1       6.697   5.933  16.547  0.00  0.00    +0.000 N 
BRANCH  32  33
ATOM     33  C   UNL     1       7.471   6.818  17.384  0.00  0.00    +0.000 C 
BRANCH  33  34
ATOM     34  C   UNL     1       7.860   6.248  18.726  0.00  0.00    +0.000 C 
ATOM     35  F   UNL     1       6.844   6.151  19.606  0.00  0.00    +0.000 F 
ATOM     36  F   UNL     1       8.387   5.007  18.585  0.00  0.00    +0.000 F 
ATOM     37  F   UNL     1       8.821   7.013  19.299  0.00  0.00    +0.000 F 
ENDBRANCH  33  34
ENDBRANCH  32  33
ENDBRANCH   3  28
TORSDOF 5
ENDMDL
MODEL 6
REMARK VINA RESULT:      -9.0      1.371      1.611
REMARK  Name = 
REMARK  6 active torsions:
REMARK  status: ('A' for Active; 'I' for Inactive)
REMARK    1  A    between atoms: C_1  and  C_2
REMARK    2  A    between atoms: N_7  and  C_8
REMARK    3  A    between atoms: C_12  and  C_13
REMARK    4  A    between atoms: C_15  and  C_16
REMARK    5  A    between atoms: N_20  and  C_21
REMARK    6  A    between atoms: C_21  and  C_22
REMARK                            x       y       z     vdW  Elec       q    Type
REMARK                         _______ _______ _______ _____ _____    ______ ____
ROOT
ATOM      1  C   UNL     1       2.427   6.905  19.525  0.00  0.00    +0.000 A 
ATOM      2  C   UNL     1       3.252   6.959  18.413  0.00  0.00    +0.000 A 
ATOM      3  C   UNL     1       3.862   5.692  18.246  0.00  0.00    +0.000 A 
ATOM      4  C   UNL     1       3.462   4.907  19.314  0.00  0.00    +0.000 A 
ATOM      5  C   UNL     1       3.783   3.600  19.809  0.00  0.00    +0.000 A 
ATOM      6  N   UNL     1       4.801   2.815  19.374  0.00  0.00    +0.000 N 
ATOM      7  N   UNL     1       3.073   3.104  20.781  0.00  0.00    +0.000 NA
ATOM      8  C   UNL     1       2.096   3.875  21.345  0.00  0.00    +0.000 A 
ATOM      9  N   UNL     1       1.801   5.089  21.037  0.00  0.00    +0.000 NA
ATOM     10  N   UNL     1       2.522   5.613  20.020  0.00  0.00    +0.000 N 
ATOM     11  H   UNL     1       5.409   3.098  18.622  0.00  0.00    +0.000 HD
ATOM     12  H   UNL     1       4.755   1.833  19.610  0.00  0.00    +0.000 HD
ENDROOT
BRANCH   1  17
ATOM     13  C   UNL     1       0.898  10.325  20.143  0.00  0.00    +0.000 A 
ATOM     14  C   UNL     1      -0.043   9.998  21.123  0.00  0.00    +0.000 A 
ATOM     15  C   UNL     1      -0.180   8.688  21.597  0.00  0.00    +0.000 A 
ATOM     16  C   UNL     1       0.630   7.673  21.085  0.00  0.00    +0.000 A 
ATOM     17  C   UNL     1       1.573   7.958  20.094  0.00  0.00    +0.000 A 
ATOM     18  C   UNL     1       1.674   9.279  19.630  0.00  0.00    +0.000 A 
BRANCH  13  25
ATOM     19  C   UNL     1       0.794  16.510  20.439  0.00  0.00    +0.000 C 
ATOM     20  C   UNL     1      -0.078  15.553  19.671  0.00  0.00    +0.000 C 
ATOM     21  O   UNL     1      -0.730  15.957  18.708  0.00  0.00    +0.000 OA
ATOM     22  N   UNL     1      -0.084  14.233  20.074  0.00  0.00    +0.000 N 
ATOM     23  C   UNL     1      -0.775  13.233  19.255  0.00  0.00    +0.000 C 
ATOM     24  C   UNL     1       0.235  12.228  18.679  0.00  0.00    +0.000 C 
ATOM     25  N   UNL     1       1.082  11.638  19.740  0.00  0.00    +0.000 N 
ATOM     26  C   UNL     1       1.708  12.591  20.674  0.00  0.00    +0.000 C 
ATOM     27  C   UNL     1       0.698  13.650  21.173  0.00  0.00    +0.000 C 
ENDBRANCH  13  25
ENDBRANCH   1  17
BRANCH   3  28
ATOM     28  C   UNL     1       4.705   5.274  17.091  0.00  0.00    +0.000 A 
ATOM     29  C   UNL     1       4.287   4.453  16.069  0.00  0.00    +0.000 A 
ATOM     30  C   UNL     1       5.370   4.376  15.187  0.00  0.00    +0.000 A 
ATOM     31  N   UNL     1       6.406   5.102  15.596  0.00  0.00    +0.000 NA
ATOM     32  N   UNL     1       5.985   5.662  16.755  0.00  0.00    +0.000 N 
BRANCH  32  33
ATOM     33  C   UNL     1       6.890   6.576  17.409  0.00  0.00    +0.000 C 
BRANCH  33  34
ATOM     34  C   UNL     1       7.569   6.029  18.641  0.00  0.00    +0.000 C 
ATOM     35  F   UNL     1       8.522   6.831  19.156  0.00  0.00    +0.000 F 
ATOM     36  F   UNL     1       6.664   5.800  19.624  0.00  0.00    +0.000 F 
ATOM     37  F   UNL     1       8.149   4.836  18.364  0.00  0.00    +0.000 F 
ENDBRANCH  33  34
ENDBRANCH  32  33
ENDBRANCH   3  28
TORSDOF 5
ENDMDL
MODEL 7
REMARK VINA RESULT:      -9.0      2.494      3.138
REMARK  Name = 
REMARK  6 active torsions:
REMARK  status: ('A' for Active; 'I' for Inactive)
REMARK    1  A    between atoms: C_1  and  C_2
REMARK    2  A    between atoms: N_7  and  C_8
REMARK    3  A    between atoms: C_12  and  C_13
REMARK    4  A    between atoms: C_15  and  C_16
REMARK    5  A    between atoms: N_20  and  C_21
REMARK    6  A    between atoms: C_21  and  C_22
REMARK                            x       y       z     vdW  Elec       q    Type
REMARK                         _______ _______ _______ _____ _____    ______ ____
ROOT
ATOM      1  C   UNL     1       2.636   6.958  19.496  0.00  0.00    +0.000 A 
ATOM      2  C   UNL     1       3.632   7.022  18.534  0.00  0.00    +0.000 A 
ATOM      3  C   UNL     1       4.178   5.726  18.369  0.00  0.00    +0.000 A 
ATOM      4  C   UNL     1       3.563   4.906  19.299  0.00  0.00    +0.000 A 
ATOM      5  C   UNL     1       3.716   3.549  19.738  0.00  0.00    +0.000 A 
ATOM      6  N   UNL     1       4.739   2.720  19.409  0.00  0.00    +0.000 N 
ATOM      7  N   UNL     1       2.828   3.046  20.547  0.00  0.00    +0.000 NA
ATOM      8  C   UNL     1       1.825   3.850  21.008  0.00  0.00    +0.000 A 
ATOM      9  N   UNL     1       1.661   5.101  20.750  0.00  0.00    +0.000 NA
ATOM     10  N   UNL     1       2.569   5.633  19.901  0.00  0.00    +0.000 N 
ATOM     11  H   UNL     1       5.477   3.004  18.785  0.00  0.00    +0.000 HD
ATOM     12  H   UNL     1       4.593   1.731  19.560  0.00  0.00    +0.000 HD
ENDROOT
BRANCH   1  17
ATOM     13  C   UNL     1       0.077   9.762  19.553  0.00  0.00    +0.000 A 
ATOM     14  C   UNL     1       0.084  10.071  20.915  0.00  0.00    +0.000 A 
ATOM     15  C   UNL     1       0.917   9.394  21.814  0.00  0.00    +0.000 A 
ATOM     16  C   UNL     1       1.761   8.381  21.356  0.00  0.00    +0.000 A 
ATOM     17  C   UNL     1       1.771   8.033  20.003  0.00  0.00    +0.000 A 
ATOM     18  C   UNL     1       0.912   8.721  19.131  0.00  0.00    +0.000 A 
BRANCH  13  25
ATOM     19  C   UNL     1      -4.996  12.192  16.961  0.00  0.00    +0.000 C 
ATOM     20  C   UNL     1      -4.121  11.050  16.515  0.00  0.00    +0.000 C 
ATOM     21  O   UNL     1      -4.148  10.680  15.341  0.00  0.00    +0.000 OA
ATOM     22  N   UNL     1      -3.290  10.478  17.458  0.00  0.00    +0.000 N 
ATOM     23  C   UNL     1      -2.297   9.487  17.036  0.00  0.00    +0.000 C 
ATOM     24  C   UNL     1      -0.877  10.027  17.267  0.00  0.00    +0.000 C 
ATOM     25  N   UNL     1      -0.690  10.492  18.659  0.00  0.00    +0.000 N 
ATOM     26  C   UNL     1      -1.727  11.399  19.184  0.00  0.00    +0.000 C 
ATOM     27  C   UNL     1      -3.150  10.886  18.863  0.00  0.00    +0.000 C 
ENDBRANCH  13  25
ENDBRANCH   1  17
BRANCH   3  28
ATOM     28  C   UNL     1       5.168   5.321  17.332  0.00  0.00    +0.000 A 
ATOM     29  C   UNL     1       4.853   4.708  16.141  0.00  0.00    +0.000 A 
ATOM     30  C   UNL     1       6.068   4.566  15.462  0.00  0.00    +0.000 A 
ATOM     31  N   UNL     1       7.092   5.062  16.151  0.00  0.00    +0.000 NA
ATOM     32  N   UNL     1       6.530   5.537  17.288  0.00  0.00    +0.000 N 
BRANCH  32  33
ATOM     33  C   UNL     1       7.403   6.210  18.220  0.00  0.00    +0.000 C 
BRANCH  33  34
ATOM     34  C   UNL     1       7.717   7.645  17.878  0.00  0.00    +0.000 C 
ATOM     35  F   UNL     1       6.653   8.471  17.909  0.00  0.00    +0.000 F 
ATOM     36  F   UNL     1       8.642   8.150  18.731  0.00  0.00    +0.000 F 
ATOM     37  F   UNL     1       8.255   7.722  16.636  0.00  0.00    +0.000 F 
ENDBRANCH  33  34
ENDBRANCH  32  33
ENDBRANCH   3  28
TORSDOF 5
ENDMDL
MODEL 8
REMARK VINA RESULT:      -8.9      1.717      2.328
REMARK  Name = 
REMARK  6 active torsions:
REMARK  status: ('A' for Active; 'I' for Inactive)
REMARK    1  A    between atoms: C_1  and  C_2
REMARK    2  A    between atoms: N_7  and  C_8
REMARK    3  A    between atoms: C_12  and  C_13
REMARK    4  A    between atoms: C_15  and  C_16
REMARK    5  A    between atoms: N_20  and  C_21
REMARK    6  A    between atoms: C_21  and  C_22
REMARK                            x       y       z     vdW  Elec       q    Type
REMARK                         _______ _______ _______ _____ _____    ______ ____
ROOT
ATOM      1  C   UNL     1       2.672   6.545  19.675  0.00  0.00    +0.000 A 
ATOM      2  C   UNL     1       3.996   6.692  19.289  0.00  0.00    +0.000 A 
ATOM      3  C   UNL     1       4.524   5.409  19.007  0.00  0.00    +0.000 A 
ATOM      4  C   UNL     1       3.535   4.488  19.310  0.00  0.00    +0.000 A 
ATOM      5  C   UNL     1       3.440   3.059  19.362  0.00  0.00    +0.000 A 
ATOM      6  N   UNL     1       4.479   2.191  19.275  0.00  0.00    +0.000 N 
ATOM      7  N   UNL     1       2.270   2.513  19.536  0.00  0.00    +0.000 NA
ATOM      8  C   UNL     1       1.188   3.321  19.738  0.00  0.00    +0.000 A 
ATOM      9  N   UNL     1       1.190   4.607  19.806  0.00  0.00    +0.000 NA
ATOM     10  N   UNL     1       2.396   5.187  19.614  0.00  0.00    +0.000 N 
ATOM     11  H   UNL     1       5.426   2.504  19.134  0.00  0.00    +0.000 HD
ATOM     12  H   UNL     1       4.255   1.228  19.059  0.00  0.00    +0.000 HD
ENDROOT
BRANCH   1  17
ATOM     13  C   UNL     1       0.705   9.792  19.623  0.00  0.00    +0.000 A 
ATOM     14  C   UNL     1      -0.149   9.577  20.708  0.00  0.00    +0.000 A 
ATOM     15  C   UNL     1      -0.087   8.401  21.466  0.00  0.00    +0.000 A 
ATOM     16  C   UNL     1       0.839   7.409  21.139  0.00  0.00    +0.000 A 
ATOM     17  C   UNL     1       1.700   7.581  20.052  0.00  0.00    +0.000 A 
ATOM     18  C   UNL     1       1.601   8.765  19.304  0.00  0.00    +0.000 A 
BRANCH  13  25
ATOM     19  C   UNL     1       1.971  15.717  18.338  0.00  0.00    +0.000 C 
ATOM     20  C   UNL     1       0.709  15.075  18.851  0.00  0.00    +0.000 C 
ATOM     21  O   UNL     1      -0.366  15.667  18.745  0.00  0.00    +0.000 OA
ATOM     22  N   UNL     1       0.814  13.814  19.404  0.00  0.00    +0.000 N 
ATOM     23  C   UNL     1      -0.403  13.078  19.755  0.00  0.00    +0.000 C 
ATOM     24  C   UNL     1      -0.535  11.821  18.881  0.00  0.00    +0.000 C 
ATOM     25  N   UNL     1       0.690  10.992  18.931  0.00  0.00    +0.000 N 
ATOM     26  C   UNL     1       1.963  11.702  18.706  0.00  0.00    +0.000 C 
ATOM     27  C   UNL     1       2.039  13.011  19.524  0.00  0.00    +0.000 C 
ENDBRANCH  13  25
ENDBRANCH   1  17
BRANCH   3  28
ATOM     28  C   UNL     1       5.863   5.126  18.420  0.00  0.00    +0.000 A 
ATOM     29  C   UNL     1       7.061   5.291  19.077  0.00  0.00    +0.000 A 
ATOM     30  C   UNL     1       8.042   4.857  18.179  0.00  0.00    +0.000 A 
ATOM     31  N   UNL     1       7.522   4.427  17.033  0.00  0.00    +0.000 NA
ATOM     32  N   UNL     1       6.186   4.581  17.194  0.00  0.00    +0.000 N 
BRANCH  32  33
ATOM     33  C   UNL     1       5.338   4.126  16.118  0.00  0.00    +0.000 C 
BRANCH  33  34
ATOM     34  C   UNL     1       5.565   4.813  14.794  0.00  0.00    +0.000 C 
ATOM     35  F   UNL     1       6.846   4.812  14.377  0.00  0.00    +0.000 F 
ATOM     36  F   UNL     1       4.825   4.231  13.819  0.00  0.00    +0.000 F 
ATOM     37  F   UNL     1       5.162   6.106  14.864  0.00  0.00    +0.000 F 
ENDBRANCH  33  34
ENDBRANCH  32  33
ENDBRANCH   3  28
TORSDOF 5
ENDMDL
MODEL 9
REMARK VINA RESULT:      -8.7      1.757      2.331
REMARK  Name = 
REMARK  6 active torsions:
REMARK  status: ('A' for Active; 'I' for Inactive)
REMARK    1  A    between atoms: C_1  and  C_2
REMARK    2  A    between atoms: N_7  and  C_8
REMARK    3  A    between atoms: C_12  and  C_13
REMARK    4  A    between atoms: C_15  and  C_16
REMARK    5  A    between atoms: N_20  and  C_21
REMARK    6  A    between atoms: C_21  and  C_22
REMARK                            x       y       z     vdW  Elec       q    Type
REMARK                         _______ _______ _______ _____ _____    ______ ____
ROOT
ATOM      1  C   UNL     1       2.863   6.545  19.077  0.00  0.00    +0.000 A 
ATOM      2  C   UNL     1       4.230   6.609  18.859  0.00  0.00    +0.000 A 
ATOM      3  C   UNL     1       4.649   5.388  18.277  0.00  0.00    +0.000 A 
ATOM      4  C   UNL     1       3.538   4.562  18.229  0.00  0.00    +0.000 A 
ATOM      5  C   UNL     1       3.285   3.195  17.874  0.00  0.00    +0.000 A 
ATOM      6  N   UNL     1       4.229   2.250  17.637  0.00  0.00    +0.000 N 
ATOM      7  N   UNL     1       2.052   2.786  17.791  0.00  0.00    +0.000 NA
ATOM      8  C   UNL     1       1.046   3.650  18.118  0.00  0.00    +0.000 A 
ATOM      9  N   UNL     1       1.177   4.859  18.540  0.00  0.00    +0.000 NA
ATOM     10  N   UNL     1       2.452   5.302  18.618  0.00  0.00    +0.000 N 
ATOM     11  H   UNL     1       5.214   2.459  17.668  0.00  0.00    +0.000 HD
ATOM     12  H   UNL     1       3.931   1.419  17.145  0.00  0.00    +0.000 HD
ENDROOT
BRANCH   1  17
ATOM     13  C   UNL     1       0.932   9.791  19.464  0.00  0.00    +0.000 A 
ATOM     14  C   UNL     1       0.260   9.534  20.661  0.00  0.00    +0.000 A 
ATOM     15  C   UNL     1       0.434   8.329  21.353  0.00  0.00    +0.000 A 
ATOM     16  C   UNL     1       1.291   7.351  20.846  0.00  0.00    +0.000 A 
ATOM     17  C   UNL     1       1.970   7.565  19.643  0.00  0.00    +0.000 A 
ATOM     18  C   UNL     1       1.760   8.778  18.967  0.00  0.00    +0.000 A 
BRANCH  13  25
ATOM     19  C   UNL     1       1.826  15.822  18.377  0.00  0.00    +0.000 C 
ATOM     20  C   UNL     1       0.632  15.096  18.937  0.00  0.00    +0.000 C 
ATOM     21  O   UNL     1      -0.474  15.636  18.924  0.00  0.00    +0.000 OA
ATOM     22  N   UNL     1       0.834  13.820  19.423  0.00  0.00    +0.000 N 
ATOM     23  C   UNL     1      -0.322  13.008  19.815  0.00  0.00    +0.000 C 
ATOM     24  C   UNL     1      -0.449  11.784  18.893  0.00  0.00    +0.000 C 
ATOM     25  N   UNL     1       0.816  11.018  18.830  0.00  0.00    +0.000 N 
ATOM     26  C   UNL     1       2.035  11.800  18.559  0.00  0.00    +0.000 C 
ATOM     27  C   UNL     1       2.101  13.076  19.431  0.00  0.00    +0.000 C 
ENDBRANCH  13  25
ENDBRANCH   1  17
BRANCH   3  28
ATOM     28  C   UNL     1       6.010   5.093  17.748  0.00  0.00    +0.000 A 
ATOM     29  C   UNL     1       7.080   4.691  18.514  0.00  0.00    +0.000 A 
ATOM     30  C   UNL     1       8.125   4.475  17.609  0.00  0.00    +0.000 A 
ATOM     31  N   UNL     1       7.758   4.703  16.352  0.00  0.00    +0.000 NA
ATOM     32  N   UNL     1       6.457   5.066  16.444  0.00  0.00    +0.000 N 
BRANCH  32  33
ATOM     33  C   UNL     1       5.755   5.315  15.207  0.00  0.00    +0.000 C 
BRANCH  33  34
ATOM     34  C   UNL     1       5.854   4.209  14.185  0.00  0.00    +0.000 C 
ATOM     35  F   UNL     1       4.769   4.081  13.395  0.00  0.00    +0.000 F 
ATOM     36  F   UNL     1       6.921   4.402  13.371  0.00  0.00    +0.000 F 
ATOM     37  F   UNL     1       6.050   3.018  14.802  0.00  0.00    +0.000 F 
ENDBRANCH  33  34
ENDBRANCH  32  33
ENDBRANCH   3  28
TORSDOF 5
ENDMDL
