MODEL 1
REMARK VINA RESULT:      -6.6      0.000      0.000
REMARK  Name = 
REMARK  8 active torsions:
REMARK  status: ('A' for Active; 'I' for Inactive)
REMARK    1  A    between atoms: C_1  and  C_2
REMARK    2  A    between atoms: C_2  and  O_4
REMARK    3  A    between atoms: O_4  and  C_5
REMARK    4  A    between atoms: C_7  and  C_8
REMARK    5  A    between atoms: N_10  and  C_11
REMARK    6  A    between atoms: C_14  and  C_15
REMARK    7  A    between atoms: C_22  and  C_23
REMARK    8  A    between atoms: C_29  and  C_30
REMARK                            x       y       z     vdW  Elec       q    Type
REMARK                         _______ _______ _______ _____ _____    ______ ____
ROOT
ATOM      1  C   UNL     1       1.769  11.934  19.032  0.00  0.00    +0.000 C 
ATOM      2  C   UNL     1       0.748  11.998  20.181  0.00  0.00    +0.000 C 
ATOM      3  C   UNL     1       0.836  10.806  21.167  0.00  0.00    +0.000 C 
ATOM      4  C   UNL     1       0.723   9.426  20.406  0.00  0.00    +0.000 C 
ATOM      5  C   UNL     1      -0.666   9.341  19.730  0.00  0.00    +0.000 C 
ATOM      6  C   UNL     1       0.891   8.253  21.414  0.00  0.00    +0.000 C 
ATOM      7  C   UNL     1       1.092   6.880  20.770  0.00  0.00    +0.000 C 
ATOM      8  C   UNL     1       2.293   6.888  19.819  0.00  0.00    +0.000 C 
ATOM      9  C   UNL     1       2.623   5.505  19.275  0.00  0.00    +0.000 C 
ATOM     10  O   UNL     1       2.113   4.481  19.720  0.00  0.00    +0.000 OA
ATOM     11  O   UNL     1       3.632   5.459  18.377  0.00  0.00    +0.000 OA
ATOM     12  C   UNL     1       3.933   6.543  17.478  0.00  0.00    +0.000 C 
ATOM     13  C   UNL     1       3.530   7.926  18.000  0.00  0.00    +0.000 C 
ATOM     14  C   UNL     1       2.152   7.938  18.699  0.00  0.00    +0.000 C 
ATOM     15  C   UNL     1       1.065   7.542  17.673  0.00  0.00    +0.000 C 
ATOM     16  C   UNL     1       1.909   9.345  19.375  0.00  0.00    +0.000 C 
ATOM     17  C   UNL     1       1.932  10.541  18.408  0.00  0.00    +0.000 C 
ATOM     18  O   UNL     1       2.283  10.431  17.233  0.00  0.00    +0.000 OA
ENDROOT
BRANCH  12  19
ATOM     19  C   UNL     1       5.388   6.554  17.128  0.00  0.00    +0.000 A 
ATOM     20  C   UNL     1       6.406   7.375  17.691  0.00  0.00    +0.000 A 
ATOM     21  C   UNL     1       7.564   7.086  17.010  0.00  0.00    +0.000 A 
ATOM     22  O   UNL     1       7.335   6.138  16.067  0.00  0.00    +0.000 OA
ATOM     23  C   UNL     1       6.018   5.817  16.144  0.00  0.00    +0.000 A 
ENDBRANCH  12  19
BRANCH   3  24
ATOM     24  C   UNL     1      -0.223  10.977  22.279  0.00  0.00    +0.000 C 
ATOM     25  O   UNL     1      -0.121  10.398  23.364  0.00  0.00    +0.000 OA
ATOM     26  N   UNL     1      -1.265  11.844  22.001  0.00  0.00    +0.000 N 
ATOM     27  H   UNL     1      -1.417  12.164  21.049  0.00  0.00    +0.000 HD
BRANCH  26  28
ATOM     28  C   UNL     1      -2.288  12.117  22.969  0.00  0.00    +0.000 C 
ATOM     29  C   UNL     1      -2.702  13.528  23.298  0.00  0.00    +0.000 C 
ATOM     30  C   UNL     1      -3.646  12.627  22.559  0.00  0.00    +0.000 C 
ENDBRANCH  26  28
ENDBRANCH   3  24
BRANCH   1  31
ATOM     31  O   UNL     1       1.587  13.021  18.108  0.00  0.00    +0.000 OA
BRANCH  31  33
ATOM     32  C   UNL     1       3.623  14.167  18.366  0.00  0.00    +0.000 C 
ATOM     33  C   UNL     1       2.123  14.236  18.408  0.00  0.00    +0.000 C 
ATOM     34  O   UNL     1       1.487  15.228  18.750  0.00  0.00    +0.000 OA
ENDBRANCH  31  33
ENDBRANCH   1  31
TORSDOF 5
ENDMDL
MODEL 2
REMARK VINA RESULT:      -6.4      4.445      7.564
REMARK  Name = 
REMARK  8 active torsions:
REMARK  status: ('A' for Active; 'I' for Inactive)
REMARK    1  A    between atoms: C_1  and  C_2
REMARK    2  A    between atoms: C_2  and  O_4
REMARK    3  A    between atoms: O_4  and  C_5
REMARK    4  A    between atoms: C_7  and  C_8
REMARK    5  A    between atoms: N_10  and  C_11
REMARK    6  A    between atoms: C_14  and  C_15
REMARK    7  A    between atoms: C_22  and  C_23
REMARK    8  A    between atoms: C_29  and  C_30
REMARK                            x       y       z     vdW  Elec       q    Type
REMARK                         _______ _______ _______ _____ _____    ______ ____
ROOT
ATOM      1  C   UNL     1       1.056  11.432  20.857  0.00  0.00    +0.000 C 
ATOM      2  C   UNL     1      -0.468  11.481  20.654  0.00  0.00    +0.000 C 
ATOM      3  C   UNL     1      -0.925  12.471  19.554  0.00  0.00    +0.000 C 
ATOM      4  C   UNL     1      -0.358  13.921  19.821  0.00  0.00    +0.000 C 
ATOM      5  C   UNL     1      -0.936  14.446  21.157  0.00  0.00    +0.000 C 
ATOM      6  C   UNL     1      -0.772  14.871  18.660  0.00  0.00    +0.000 C 
ATOM      7  C   UNL     1      -0.049  16.219  18.648  0.00  0.00    +0.000 C 
ATOM      8  C   UNL     1       1.470  16.030  18.610  0.00  0.00    +0.000 C 
ATOM      9  C   UNL     1       2.223  17.342  18.442  0.00  0.00    +0.000 C 
ATOM     10  O   UNL     1       1.661  18.395  18.157  0.00  0.00    +0.000 OA
ATOM     11  O   UNL     1       3.572  17.246  18.471  0.00  0.00    +0.000 OA
ATOM     12  C   UNL     1       4.271  16.248  19.238  0.00  0.00    +0.000 C 
ATOM     13  C   UNL     1       3.478  14.958  19.468  0.00  0.00    +0.000 C 
ATOM     14  C   UNL     1       1.991  15.206  19.805  0.00  0.00    +0.000 C 
ATOM     15  C   UNL     1       1.902  15.997  21.132  0.00  0.00    +0.000 C 
ATOM     16  C   UNL     1       1.213  13.832  19.829  0.00  0.00    +0.000 C 
ATOM     17  C   UNL     1       1.739  12.807  20.848  0.00  0.00    +0.000 C 
ATOM     18  O   UNL     1       2.787  12.976  21.471  0.00  0.00    +0.000 OA
ENDROOT
BRANCH  12  19
ATOM     19  C   UNL     1       5.583  15.913  18.600  0.00  0.00    +0.000 A 
ATOM     20  C   UNL     1       5.920  14.727  17.888  0.00  0.00    +0.000 A 
ATOM     21  C   UNL     1       7.248  14.834  17.554  0.00  0.00    +0.000 A 
ATOM     22  O   UNL     1       7.757  16.008  18.005  0.00  0.00    +0.000 OA
ATOM     23  C   UNL     1       6.747  16.658  18.635  0.00  0.00    +0.000 A 
ENDBRANCH  12  19
BRANCH   3  24
ATOM     24  C   UNL     1      -2.464  12.433  19.431  0.00  0.00    +0.000 C 
ATOM     25  O   UNL     1      -3.196  12.760  20.369  0.00  0.00    +0.000 OA
ATOM     26  N   UNL     1      -2.969  12.050  18.200  0.00  0.00    +0.000 N 
ATOM     27  H   UNL     1      -2.356  11.622  17.513  0.00  0.00    +0.000 HD
BRANCH  26  28
ATOM     28  C   UNL     1      -4.381  12.016  17.950  0.00  0.00    +0.000 C 
ATOM     29  C   UNL     1      -4.944  11.374  16.709  0.00  0.00    +0.000 C 
ATOM     30  C   UNL     1      -5.169  10.735  18.047  0.00  0.00    +0.000 C 
ENDBRANCH  26  28
ENDBRANCH   3  24
BRANCH   1  31
ATOM     31  O   UNL     1       1.413  10.558  21.941  0.00  0.00    +0.000 OA
BRANCH  31  33
ATOM     32  C   UNL     1      -0.123   9.441  23.327  0.00  0.00    +0.000 C 
ATOM     33  C   UNL     1       0.733   9.388  22.094  0.00  0.00    +0.000 C 
ATOM     34  O   UNL     1       0.860   8.396  21.384  0.00  0.00    +0.000 OA
ENDBRANCH  31  33
ENDBRANCH   1  31
TORSDOF 5
ENDMDL
MODEL 3
REMARK VINA RESULT:      -6.1      3.248      6.074
REMARK  Name = 
REMARK  8 active torsions:
REMARK  status: ('A' for Active; 'I' for Inactive)
REMARK    1  A    between atoms: C_1  and  C_2
REMARK    2  A    between atoms: C_2  and  O_4
REMARK    3  A    between atoms: O_4  and  C_5
REMARK    4  A    between atoms: C_7  and  C_8
REMARK    5  A    between atoms: N_10  and  C_11
REMARK    6  A    between atoms: C_14  and  C_15
REMARK    7  A    between atoms: C_22  and  C_23
REMARK    8  A    between atoms: C_29  and  C_30
REMARK                            x       y       z     vdW  Elec       q    Type
REMARK                         _______ _______ _______ _____ _____    ______ ____
ROOT
ATOM      1  C   UNL     1      -1.603  13.324  23.362  0.00  0.00    +0.000 C 
ATOM      2  C   UNL     1      -3.031  13.891  23.287  0.00  0.00    +0.000 C 
ATOM      3  C   UNL     1      -3.955  13.139  22.297  0.00  0.00    +0.000 C 
ATOM      4  C   UNL     1      -3.311  13.074  20.854  0.00  0.00    +0.000 C 
ATOM      5  C   UNL     1      -3.157  14.515  20.312  0.00  0.00    +0.000 C 
ATOM      6  C   UNL     1      -4.228  12.250  19.905  0.00  0.00    +0.000 C 
ATOM      7  C   UNL     1      -3.587  11.867  18.570  0.00  0.00    +0.000 C 
ATOM      8  C   UNL     1      -2.281  11.096  18.786  0.00  0.00    +0.000 C 
ATOM      9  C   UNL     1      -1.691  10.563  17.489  0.00  0.00    +0.000 C 
ATOM     10  O   UNL     1      -2.308  10.573  16.429  0.00  0.00    +0.000 OA
ATOM     11  O   UNL     1      -0.501   9.931  17.608  0.00  0.00    +0.000 OA
ATOM     12  C   UNL     1       0.472  10.273  18.613  0.00  0.00    +0.000 C 
ATOM     13  C   UNL     1      -0.124  10.879  19.888  0.00  0.00    +0.000 C 
ATOM     14  C   UNL     1      -1.253  11.896  19.612  0.00  0.00    +0.000 C 
ATOM     15  C   UNL     1      -0.674  13.085  18.810  0.00  0.00    +0.000 C 
ATOM     16  C   UNL     1      -1.938  12.316  20.972  0.00  0.00    +0.000 C 
ATOM     17  C   UNL     1      -0.993  12.963  21.999  0.00  0.00    +0.000 C 
ATOM     18  O   UNL     1       0.227  12.993  21.844  0.00  0.00    +0.000 OA
ENDROOT
BRANCH  12  19
ATOM     19  C   UNL     1       1.301   9.081  18.976  0.00  0.00    +0.000 A 
ATOM     20  C   UNL     1       2.090   8.279  18.103  0.00  0.00    +0.000 A 
ATOM     21  C   UNL     1       2.608   7.261  18.868  0.00  0.00    +0.000 A 
ATOM     22  O   UNL     1       2.199   7.381  20.156  0.00  0.00    +0.000 OA
ATOM     23  C   UNL     1       1.411   8.484  20.218  0.00  0.00    +0.000 A 
ENDBRANCH  12  19
BRANCH   3  24
ATOM     24  C   UNL     1      -5.358  13.784  22.309  0.00  0.00    +0.000 C 
ATOM     25  O   UNL     1      -6.379  13.108  22.469  0.00  0.00    +0.000 OA
ATOM     26  N   UNL     1      -5.398  15.160  22.171  0.00  0.00    +0.000 N 
ATOM     27  H   UNL     1      -4.570  15.663  21.867  0.00  0.00    +0.000 HD
BRANCH  26  28
ATOM     28  C   UNL     1      -6.639  15.878  22.208  0.00  0.00    +0.000 C 
ATOM     29  C   UNL     1      -7.168  16.468  23.491  0.00  0.00    +0.000 C 
ATOM     30  C   UNL     1      -6.681  17.373  22.398  0.00  0.00    +0.000 C 
ENDBRANCH  26  28
ENDBRANCH   3  24
BRANCH   1  31
ATOM     31  O   UNL     1      -0.772  14.109  24.235  0.00  0.00    +0.000 OA
BRANCH  31  33
ATOM     32  C   UNL     1      -1.575  15.637  25.830  0.00  0.00    +0.000 C 
ATOM     33  C   UNL     1      -1.078  15.421  24.429  0.00  0.00    +0.000 C 
ATOM     34  O   UNL     1      -1.041  16.294  23.569  0.00  0.00    +0.000 OA
ENDBRANCH  31  33
ENDBRANCH   1  31
TORSDOF 5
ENDMDL
MODEL 4
REMARK VINA RESULT:      -6.0      4.389      7.387
REMARK  Name = 
REMARK  8 active torsions:
REMARK  status: ('A' for Active; 'I' for Inactive)
REMARK    1  A    between atoms: C_1  and  C_2
REMARK    2  A    between atoms: C_2  and  O_4
REMARK    3  A    between atoms: O_4  and  C_5
REMARK    4  A    between atoms: C_7  and  C_8
REMARK    5  A    between atoms: N_10  and  C_11
REMARK    6  A    between atoms: C_14  and  C_15
REMARK    7  A    between atoms: C_22  and  C_23
REMARK    8  A    between atoms: C_29  and  C_30
REMARK                            x       y       z     vdW  Elec       q    Type
REMARK                         _______ _______ _______ _____ _____    ______ ____
ROOT
ATOM      1  C   UNL     1       1.064  11.428  20.820  0.00  0.00    +0.000 C 
ATOM      2  C   UNL     1      -0.450  11.453  20.549  0.00  0.00    +0.000 C 
ATOM      3  C   UNL     1      -0.868  12.414  19.409  0.00  0.00    +0.000 C 
ATOM      4  C   UNL     1      -0.331  13.877  19.670  0.00  0.00    +0.000 C 
ATOM      5  C   UNL     1      -0.974  14.421  20.968  0.00  0.00    +0.000 C 
ATOM      6  C   UNL     1      -0.704  14.797  18.472  0.00  0.00    +0.000 C 
ATOM      7  C   UNL     1       0.003  16.154  18.464  0.00  0.00    +0.000 C 
ATOM      8  C   UNL     1       1.524  15.984  18.498  0.00  0.00    +0.000 C 
ATOM      9  C   UNL     1       2.268  17.302  18.335  0.00  0.00    +0.000 C 
ATOM     10  O   UNL     1       1.707  18.341  18.003  0.00  0.00    +0.000 OA
ATOM     11  O   UNL     1       3.615  17.224  18.426  0.00  0.00    +0.000 OA
ATOM     12  C   UNL     1       4.291  16.251  19.244  0.00  0.00    +0.000 C 
ATOM     13  C   UNL     1       3.504  14.956  19.466  0.00  0.00    +0.000 C 
ATOM     14  C   UNL     1       2.001  15.191  19.732  0.00  0.00    +0.000 C 
ATOM     15  C   UNL     1       1.844  16.008  21.036  0.00  0.00    +0.000 C 
ATOM     16  C   UNL     1       1.238  13.808  19.750  0.00  0.00    +0.000 C 
ATOM     17  C   UNL     1       1.731  12.811  20.813  0.00  0.00    +0.000 C 
ATOM     18  O   UNL     1       2.748  13.007  21.478  0.00  0.00    +0.000 OA
ENDROOT
BRANCH  12  19
ATOM     19  C   UNL     1       5.635  15.919  18.672  0.00  0.00    +0.000 A 
ATOM     20  C   UNL     1       6.834  16.678  18.786  0.00  0.00    +0.000 A 
ATOM     21  C   UNL     1       7.785  16.022  18.043  0.00  0.00    +0.000 A 
ATOM     22  O   UNL     1       7.259  14.905  17.479  0.00  0.00    +0.000 OA
ATOM     23  C   UNL     1       5.959  14.846  17.865  0.00  0.00    +0.000 A 
ENDBRANCH  12  19
BRANCH   3  24
ATOM     24  C   UNL     1      -2.400  12.354  19.219  0.00  0.00    +0.000 C 
ATOM     25  O   UNL     1      -2.906  11.957  18.165  0.00  0.00    +0.000 OA
ATOM     26  N   UNL     1      -3.166  12.730  20.309  0.00  0.00    +0.000 N 
ATOM     27  H   UNL     1      -2.731  13.214  21.089  0.00  0.00    +0.000 HD
BRANCH  26  28
ATOM     28  C   UNL     1      -4.598  12.677  20.270  0.00  0.00    +0.000 C 
ATOM     29  C   UNL     1      -5.420  12.665  21.534  0.00  0.00    +0.000 C 
ATOM     30  C   UNL     1      -5.443  13.869  20.639  0.00  0.00    +0.000 C 
ENDBRANCH  26  28
ENDBRANCH   3  24
BRANCH   1  31
ATOM     31  O   UNL     1       1.383  10.581  21.938  0.00  0.00    +0.000 OA
BRANCH  31  33
ATOM     32  C   UNL     1      -0.131   9.402  23.295  0.00  0.00    +0.000 C 
ATOM     33  C   UNL     1       0.734   9.391  22.067  0.00  0.00    +0.000 C 
ATOM     34  O   UNL     1       0.891   8.414  21.342  0.00  0.00    +0.000 OA
ENDBRANCH  31  33
ENDBRANCH   1  31
TORSDOF 5
ENDMDL
MODEL 5
REMARK VINA RESULT:      -5.9      3.273      9.088
REMARK  Name = 
REMARK  8 active torsions:
REMARK  status: ('A' for Active; 'I' for Inactive)
REMARK    1  A    between atoms: C_1  and  C_2
REMARK    2  A    between atoms: C_2  and  O_4
REMARK    3  A    between atoms: O_4  and  C_5
REMARK    4  A    between atoms: C_7  and  C_8
REMARK    5  A    between atoms: N_10  and  C_11
REMARK    6  A    between atoms: C_14  and  C_15
REMARK    7  A    between atoms: C_22  and  C_23
REMARK    8  A    between atoms: C_29  and  C_30
REMARK                            x       y       z     vdW  Elec       q    Type
REMARK                         _______ _______ _______ _____ _____    ______ ____
ROOT
ATOM      1  C   UNL     1      -2.572  10.015  17.787  0.00  0.00    +0.000 C 
ATOM      2  C   UNL     1      -1.108   9.674  17.458  0.00  0.00    +0.000 C 
ATOM      3  C   UNL     1      -0.146   9.803  18.665  0.00  0.00    +0.000 C 
ATOM      4  C   UNL     1      -0.243  11.238  19.320  0.00  0.00    +0.000 C 
ATOM      5  C   UNL     1       0.204  12.293  18.281  0.00  0.00    +0.000 C 
ATOM      6  C   UNL     1       0.678  11.309  20.572  0.00  0.00    +0.000 C 
ATOM      7  C   UNL     1       0.458  12.535  21.460  0.00  0.00    +0.000 C 
ATOM      8  C   UNL     1      -1.001  12.630  21.917  0.00  0.00    +0.000 C 
ATOM      9  C   UNL     1      -1.231  13.747  22.925  0.00  0.00    +0.000 C 
ATOM     10  O   UNL     1      -0.309  14.353  23.461  0.00  0.00    +0.000 OA
ATOM     11  O   UNL     1      -2.513  13.924  23.314  0.00  0.00    +0.000 OA
ATOM     12  C   UNL     1      -3.638  13.650  22.457  0.00  0.00    +0.000 C 
ATOM     13  C   UNL     1      -3.376  12.577  21.395  0.00  0.00    +0.000 C 
ATOM     14  C   UNL     1      -1.986  12.700  20.732  0.00  0.00    +0.000 C 
ATOM     15  C   UNL     1      -1.901  14.055  19.992  0.00  0.00    +0.000 C 
ATOM     16  C   UNL     1      -1.725  11.448  19.804  0.00  0.00    +0.000 C 
ATOM     17  C   UNL     1      -2.748  11.258  18.671  0.00  0.00    +0.000 C 
ATOM     18  O   UNL     1      -3.781  11.923  18.598  0.00  0.00    +0.000 OA
ENDROOT
BRANCH  12  19
ATOM     19  C   UNL     1      -4.837  13.260  23.265  0.00  0.00    +0.000 A 
ATOM     20  C   UNL     1      -6.182  13.688  23.077  0.00  0.00    +0.000 A 
ATOM     21  C   UNL     1      -6.916  13.131  24.096  0.00  0.00    +0.000 A 
ATOM     22  O   UNL     1      -6.120  12.383  24.900  0.00  0.00    +0.000 OA
ATOM     23  C   UNL     1      -4.864  12.462  24.393  0.00  0.00    +0.000 A 
ENDBRANCH  12  19
BRANCH   3  24
ATOM     24  C   UNL     1       1.287   9.431  18.225  0.00  0.00    +0.000 C 
ATOM     25  O   UNL     1       1.999  10.224  17.602  0.00  0.00    +0.000 OA
ATOM     26  N   UNL     1       1.737   8.178  18.604  0.00  0.00    +0.000 N 
ATOM     27  H   UNL     1       1.078   7.490  18.956  0.00  0.00    +0.000 HD
BRANCH  26  28
ATOM     28  C   UNL     1       3.064   7.734  18.291  0.00  0.00    +0.000 C 
ATOM     29  C   UNL     1       3.649   6.498  18.924  0.00  0.00    +0.000 C 
ATOM     30  C   UNL     1       3.308   6.499  17.463  0.00  0.00    +0.000 C 
ENDBRANCH  26  28
ENDBRANCH   3  24
BRANCH   1  31
ATOM     31  O   UNL     1      -3.400   9.954  16.613  0.00  0.00    +0.000 OA
BRANCH  31  33
ATOM     32  C   UNL     1      -3.060   9.791  14.293  0.00  0.00    +0.000 C 
ATOM     33  C   UNL     1      -3.036  10.668  15.513  0.00  0.00    +0.000 C 
ATOM     34  O   UNL     1      -2.657  11.834  15.517  0.00  0.00    +0.000 OA
ENDBRANCH  31  33
ENDBRANCH   1  31
TORSDOF 5
ENDMDL
MODEL 6
REMARK VINA RESULT:      -5.9      3.494      6.720
REMARK  Name = 
REMARK  8 active torsions:
REMARK  status: ('A' for Active; 'I' for Inactive)
REMARK    1  A    between atoms: C_1  and  C_2
REMARK    2  A    between atoms: C_2  and  O_4
REMARK    3  A    between atoms: O_4  and  C_5
REMARK    4  A    between atoms: C_7  and  C_8
REMARK    5  A    between atoms: N_10  and  C_11
REMARK    6  A    between atoms: C_14  and  C_15
REMARK    7  A    between atoms: C_22  and  C_23
REMARK    8  A    between atoms: C_29  and  C_30
REMARK                            x       y       z     vdW  Elec       q    Type
REMARK                         _______ _______ _______ _____ _____    ______ ____
ROOT
ATOM      1  C   UNL     1       4.990   5.739  16.808  0.00  0.00    +0.000 C 
ATOM      2  C   UNL     1       4.052   6.957  16.855  0.00  0.00    +0.000 C 
ATOM      3  C   UNL     1       3.374   7.176  18.231  0.00  0.00    +0.000 C 
ATOM      4  C   UNL     1       2.611   5.875  18.704  0.00  0.00    +0.000 C 
ATOM      5  C   UNL     1       1.479   5.565  17.696  0.00  0.00    +0.000 C 
ATOM      6  C   UNL     1       2.007   6.103  20.120  0.00  0.00    +0.000 C 
ATOM      7  C   UNL     1       1.498   4.837  20.810  0.00  0.00    +0.000 C 
ATOM      8  C   UNL     1       2.603   3.782  20.912  0.00  0.00    +0.000 C 
ATOM      9  C   UNL     1       2.185   2.567  21.727  0.00  0.00    +0.000 C 
ATOM     10  O   UNL     1       1.157   2.543  22.397  0.00  0.00    +0.000 OA
ATOM     11  O   UNL     1       3.096   1.570  21.795  0.00  0.00    +0.000 OA
ATOM     12  C   UNL     1       4.031   1.288  20.736  0.00  0.00    +0.000 C 
ATOM     13  C   UNL     1       4.390   2.500  19.872  0.00  0.00    +0.000 C 
ATOM     14  C   UNL     1       3.175   3.392  19.533  0.00  0.00    +0.000 C 
ATOM     15  C   UNL     1       2.163   2.568  18.704  0.00  0.00    +0.000 C 
ATOM     16  C   UNL     1       3.664   4.711  18.815  0.00  0.00    +0.000 C 
ATOM     17  C   UNL     1       4.435   4.487  17.504  0.00  0.00    +0.000 C 
ATOM     18  O   UNL     1       4.792   3.369  17.133  0.00  0.00    +0.000 OA
ENDROOT
BRANCH  12  19
ATOM     19  C   UNL     1       5.286   0.684  21.284  0.00  0.00    +0.000 A 
ATOM     20  C   UNL     1       5.849  -0.582  20.959  0.00  0.00    +0.000 A 
ATOM     21  C   UNL     1       6.955  -0.737  21.760  0.00  0.00    +0.000 A 
ATOM     22  O   UNL     1       7.120   0.350  22.555  0.00  0.00    +0.000 OA
ATOM     23  C   UNL     1       6.109   1.208  22.263  0.00  0.00    +0.000 A 
ENDBRANCH  12  19
BRANCH   3  24
ATOM     24  C   UNL     1       2.466   8.424  18.167  0.00  0.00    +0.000 C 
ATOM     25  O   UNL     1       2.292   9.044  17.114  0.00  0.00    +0.000 OA
ATOM     26  N   UNL     1       1.830   8.778  19.345  0.00  0.00    +0.000 N 
ATOM     27  H   UNL     1       2.126   8.362  20.224  0.00  0.00    +0.000 HD
BRANCH  26  28
ATOM     28  C   UNL     1       0.930   9.892  19.402  0.00  0.00    +0.000 C 
ATOM     29  C   UNL     1      -0.330   9.844  20.228  0.00  0.00    +0.000 C 
ATOM     30  C   UNL     1       0.800  10.740  20.641  0.00  0.00    +0.000 C 
ENDBRANCH  26  28
ENDBRANCH   3  24
BRANCH   1  31
ATOM     31  O   UNL     1       5.526   5.541  15.489  0.00  0.00    +0.000 OA
BRANCH  31  33
ATOM     32  C   UNL     1       7.004   4.487  13.996  0.00  0.00    +0.000 C 
ATOM     33  C   UNL     1       6.802   5.085  15.359  0.00  0.00    +0.000 C 
ATOM     34  O   UNL     1       7.648   5.079  16.247  0.00  0.00    +0.000 OA
ENDBRANCH  31  33
ENDBRANCH   1  31
TORSDOF 5
ENDMDL
MODEL 7
REMARK VINA RESULT:      -5.9      3.523      9.423
REMARK  Name = 
REMARK  8 active torsions:
REMARK  status: ('A' for Active; 'I' for Inactive)
REMARK    1  A    between atoms: C_1  and  C_2
REMARK    2  A    between atoms: C_2  and  O_4
REMARK    3  A    between atoms: O_4  and  C_5
REMARK    4  A    between atoms: C_7  and  C_8
REMARK    5  A    between atoms: N_10  and  C_11
REMARK    6  A    between atoms: C_14  and  C_15
REMARK    7  A    between atoms: C_22  and  C_23
REMARK    8  A    between atoms: C_29  and  C_30
REMARK                            x       y       z     vdW  Elec       q    Type
REMARK                         _______ _______ _______ _____ _____    ______ ____
ROOT
ATOM      1  C   UNL     1      -3.095  10.519  18.051  0.00  0.00    +0.000 C 
ATOM      2  C   UNL     1      -1.654  10.026  17.841  0.00  0.00    +0.000 C 
ATOM      3  C   UNL     1      -0.783  10.062  19.122  0.00  0.00    +0.000 C 
ATOM      4  C   UNL     1      -0.784  11.503  19.771  0.00  0.00    +0.000 C 
ATOM      5  C   UNL     1      -0.146  12.500  18.773  0.00  0.00    +0.000 C 
ATOM      6  C   UNL     1       0.036  11.486  21.093  0.00  0.00    +0.000 C 
ATOM      7  C   UNL     1      -0.127  12.733  21.963  0.00  0.00    +0.000 C 
ATOM      8  C   UNL     1      -1.599  12.982  22.301  0.00  0.00    +0.000 C 
ATOM      9  C   UNL     1      -1.792  14.123  23.290  0.00  0.00    +0.000 C 
ATOM     10  O   UNL     1      -0.859  14.634  23.900  0.00  0.00    +0.000 OA
ATOM     11  O   UNL     1      -3.077  14.435  23.574  0.00  0.00    +0.000 OA
ATOM     12  C   UNL     1      -4.151  14.273  22.629  0.00  0.00    +0.000 C 
ATOM     13  C   UNL     1      -3.917  13.173  21.589  0.00  0.00    +0.000 C 
ATOM     14  C   UNL     1      -2.473  13.146  21.041  0.00  0.00    +0.000 C 
ATOM     15  C   UNL     1      -2.188  14.481  20.313  0.00  0.00    +0.000 C 
ATOM     16  C   UNL     1      -2.270  11.869  20.134  0.00  0.00    +0.000 C 
ATOM     17  C   UNL     1      -3.212  11.779  18.921  0.00  0.00    +0.000 C 
ATOM     18  O   UNL     1      -4.161  12.547  18.766  0.00  0.00    +0.000 OA
ENDROOT
BRANCH  12  19
ATOM     19  C   UNL     1      -5.446  14.015  23.336  0.00  0.00    +0.000 A 
ATOM     20  C   UNL     1      -6.004  12.752  23.682  0.00  0.00    +0.000 A 
ATOM     21  C   UNL     1      -7.229  13.008  24.248  0.00  0.00    +0.000 A 
ATOM     22  O   UNL     1      -7.467  14.343  24.282  0.00  0.00    +0.000 OA
ATOM     23  C   UNL     1      -6.385  14.949  23.731  0.00  0.00    +0.000 A 
ENDBRANCH  12  19
BRANCH   3  24
ATOM     24  C   UNL     1       0.634   9.540  18.799  0.00  0.00    +0.000 C 
ATOM     25  O   UNL     1       1.376  10.132  18.010  0.00  0.00    +0.000 OA
ATOM     26  N   UNL     1       1.034   8.400  19.474  0.00  0.00    +0.000 N 
ATOM     27  H   UNL     1       0.348   7.842  19.975  0.00  0.00    +0.000 HD
BRANCH  26  28
ATOM     28  C   UNL     1       2.342   7.843  19.290  0.00  0.00    +0.000 C 
ATOM     29  C   UNL     1       2.638   6.403  19.622  0.00  0.00    +0.000 C 
ATOM     30  C   UNL     1       2.632   6.853  18.190  0.00  0.00    +0.000 C 
ENDBRANCH  26  28
ENDBRANCH   3  24
BRANCH   1  31
ATOM     31  O   UNL     1      -3.829  10.538  16.815  0.00  0.00    +0.000 OA
BRANCH  31  33
ATOM     32  C   UNL     1      -3.464   9.902  14.581  0.00  0.00    +0.000 C 
ATOM     33  C   UNL     1      -3.181  10.896  15.672  0.00  0.00    +0.000 C 
ATOM     34  O   UNL     1      -2.409  11.842  15.560  0.00  0.00    +0.000 OA
ENDBRANCH  31  33
ENDBRANCH   1  31
TORSDOF 5
ENDMDL
MODEL 8
REMARK VINA RESULT:      -5.9      4.454      7.767
REMARK  Name = 
REMARK  8 active torsions:
REMARK  status: ('A' for Active; 'I' for Inactive)
REMARK    1  A    between atoms: C_1  and  C_2
REMARK    2  A    between atoms: C_2  and  O_4
REMARK    3  A    between atoms: O_4  and  C_5
REMARK    4  A    between atoms: C_7  and  C_8
REMARK    5  A    between atoms: N_10  and  C_11
REMARK    6  A    between atoms: C_14  and  C_15
REMARK    7  A    between atoms: C_22  and  C_23
REMARK    8  A    between atoms: C_29  and  C_30
REMARK                            x       y       z     vdW  Elec       q    Type
REMARK                         _______ _______ _______ _____ _____    ______ ____
ROOT
ATOM      1  C   UNL     1      -0.697  12.551  22.183  0.00  0.00    +0.000 C 
ATOM      2  C   UNL     1      -1.199  11.790  20.944  0.00  0.00    +0.000 C 
ATOM      3  C   UNL     1      -0.095  11.497  19.897  0.00  0.00    +0.000 C 
ATOM      4  C   UNL     1       0.647  12.824  19.465  0.00  0.00    +0.000 C 
ATOM      5  C   UNL     1      -0.373  13.768  18.784  0.00  0.00    +0.000 C 
ATOM      6  C   UNL     1       1.795  12.485  18.471  0.00  0.00    +0.000 C 
ATOM      7  C   UNL     1       2.770  13.634  18.205  0.00  0.00    +0.000 C 
ATOM      8  C   UNL     1       3.384  14.151  19.509  0.00  0.00    +0.000 C 
ATOM      9  C   UNL     1       4.472  15.189  19.277  0.00  0.00    +0.000 C 
ATOM     10  O   UNL     1       4.941  15.418  18.167  0.00  0.00    +0.000 OA
ATOM     11  O   UNL     1       5.005  15.732  20.395  0.00  0.00    +0.000 OA
ATOM     12  C   UNL     1       4.258  15.909  21.614  0.00  0.00    +0.000 C 
ATOM     13  C   UNL     1       3.116  14.907  21.805  0.00  0.00    +0.000 C 
ATOM     14  C   UNL     1       2.317  14.636  20.511  0.00  0.00    +0.000 C 
ATOM     15  C   UNL     1       1.650  15.953  20.048  0.00  0.00    +0.000 C 
ATOM     16  C   UNL     1       1.296  13.454  20.751  0.00  0.00    +0.000 C 
ATOM     17  C   UNL     1       0.270  13.703  21.869  0.00  0.00    +0.000 C 
ATOM     18  O   UNL     1       0.344  14.667  22.630  0.00  0.00    +0.000 OA
ENDROOT
BRANCH  12  19
ATOM     19  C   UNL     1       5.166  15.855  22.804  0.00  0.00    +0.000 A 
ATOM     20  C   UNL     1       5.181  14.873  23.834  0.00  0.00    +0.000 A 
ATOM     21  C   UNL     1       6.127  15.275  24.745  0.00  0.00    +0.000 A 
ATOM     22  O   UNL     1       6.704  16.437  24.348  0.00  0.00    +0.000 OA
ATOM     23  C   UNL     1       6.121  16.783  23.172  0.00  0.00    +0.000 A 
ENDBRANCH  12  19
BRANCH   3  24
ATOM     24  C   UNL     1      -0.706  10.726  18.706  0.00  0.00    +0.000 C 
ATOM     25  O   UNL     1      -0.060   9.877  18.086  0.00  0.00    +0.000 OA
ATOM     26  N   UNL     1      -2.025  11.015  18.403  0.00  0.00    +0.000 N 
ATOM     27  H   UNL     1      -2.470  11.833  18.809  0.00  0.00    +0.000 HD
BRANCH  26  28
ATOM     28  C   UNL     1      -2.715  10.335  17.346  0.00  0.00    +0.000 C 
ATOM     29  C   UNL     1      -4.008  10.866  16.782  0.00  0.00    +0.000 C 
ATOM     30  C   UNL     1      -2.762  10.893  15.947  0.00  0.00    +0.000 C 
ENDBRANCH  26  28
ENDBRANCH   3  24
BRANCH   1  31
ATOM     31  O   UNL     1      -1.777  12.863  23.080  0.00  0.00    +0.000 OA
BRANCH  31  33
ATOM     32  C   UNL     1      -3.159  14.438  22.014  0.00  0.00    +0.000 C 
ATOM     33  C   UNL     1      -3.025  13.048  22.567  0.00  0.00    +0.000 C 
ATOM     34  O   UNL     1      -3.942  12.235  22.620  0.00  0.00    +0.000 OA
ENDBRANCH  31  33
ENDBRANCH   1  31
TORSDOF 5
ENDMDL
MODEL 9
REMARK VINA RESULT:      -5.9      4.593      7.886
REMARK  Name = 
REMARK  8 active torsions:
REMARK  status: ('A' for Active; 'I' for Inactive)
REMARK    1  A    between atoms: C_1  and  C_2
REMARK    2  A    between atoms: C_2  and  O_4
REMARK    3  A    between atoms: O_4  and  C_5
REMARK    4  A    between atoms: C_7  and  C_8
REMARK    5  A    between atoms: N_10  and  C_11
REMARK    6  A    between atoms: C_14  and  C_15
REMARK    7  A    between atoms: C_22  and  C_23
REMARK    8  A    between atoms: C_29  and  C_30
REMARK                            x       y       z     vdW  Elec       q    Type
REMARK                         _______ _______ _______ _____ _____    ______ ____
ROOT
ATOM      1  C   UNL     1       1.079  11.197  20.484  0.00  0.00    +0.000 C 
ATOM      2  C   UNL     1      -0.291  11.057  19.797  0.00  0.00    +0.000 C 
ATOM      3  C   UNL     1      -0.510  12.048  18.626  0.00  0.00    +0.000 C 
ATOM      4  C   UNL     1      -0.277  13.540  19.090  0.00  0.00    +0.000 C 
ATOM      5  C   UNL     1      -1.322  13.895  20.174  0.00  0.00    +0.000 C 
ATOM      6  C   UNL     1      -0.432  14.500  17.875  0.00  0.00    +0.000 C 
ATOM      7  C   UNL     1       0.052  15.930  18.125  0.00  0.00    +0.000 C 
ATOM      8  C   UNL     1       1.514  15.946  18.581  0.00  0.00    +0.000 C 
ATOM      9  C   UNL     1       2.081  17.354  18.692  0.00  0.00    +0.000 C 
ATOM     10  O   UNL     1       1.492  18.339  18.258  0.00  0.00    +0.000 OA
ATOM     11  O   UNL     1       3.348  17.436  19.157  0.00  0.00    +0.000 OA
ATOM     12  C   UNL     1       3.903  16.491  20.092  0.00  0.00    +0.000 C 
ATOM     13  C   UNL     1       3.276  15.095  20.026  0.00  0.00    +0.000 C 
ATOM     14  C   UNL     1       1.740  15.122  19.865  0.00  0.00    +0.000 C 
ATOM     15  C   UNL     1       1.117  15.807  21.104  0.00  0.00    +0.000 C 
ATOM     16  C   UNL     1       1.204  13.658  19.608  0.00  0.00    +0.000 C 
ATOM     17  C   UNL     1       1.521  12.648  20.724  0.00  0.00    +0.000 C 
ATOM     18  O   UNL     1       2.277  12.913  21.657  0.00  0.00    +0.000 OA
ENDROOT
BRANCH  12  19
ATOM     19  C   UNL     1       5.385  16.374  19.910  0.00  0.00    +0.000 A 
ATOM     20  C   UNL     1       6.209  17.128  19.028  0.00  0.00    +0.000 A 
ATOM     21  C   UNL     1       7.481  16.623  19.153  0.00  0.00    +0.000 A 
ATOM     22  O   UNL     1       7.502  15.610  20.056  0.00  0.00    +0.000 OA
ATOM     23  C   UNL     1       6.233  15.464  20.513  0.00  0.00    +0.000 A 
ENDBRANCH  12  19
BRANCH   3  24
ATOM     24  C   UNL     1      -1.907  11.815  18.007  0.00  0.00    +0.000 C 
ATOM     25  O   UNL     1      -2.939  11.963  18.667  0.00  0.00    +0.000 OA
ATOM     26  N   UNL     1      -1.931  11.472  16.667  0.00  0.00    +0.000 N 
ATOM     27  H   UNL     1      -1.074  11.187  16.201  0.00  0.00    +0.000 HD
BRANCH  26  28
ATOM     28  C   UNL     1      -3.168  11.270  15.970  0.00  0.00    +0.000 C 
ATOM     29  C   UNL     1      -3.252  10.376  14.759  0.00  0.00    +0.000 C 
ATOM     30  C   UNL     1      -3.910   9.960  16.041  0.00  0.00    +0.000 C 
ENDBRANCH  26  28
ENDBRANCH   3  24
BRANCH   1  31
ATOM     31  O   UNL     1       1.193  10.309  21.609  0.00  0.00    +0.000 OA
BRANCH  31  33
ATOM     32  C   UNL     1      -0.424   8.739  22.274  0.00  0.00    +0.000 C 
ATOM     33  C   UNL     1       0.114  10.133  22.420  0.00  0.00    +0.000 C 
ATOM     34  O   UNL     1      -0.405  11.005  23.110  0.00  0.00    +0.000 OA
ENDBRANCH  31  33
ENDBRANCH   1  31
TORSDOF 5
ENDMDL
