MODEL 1
REMARK VINA RESULT:      -7.5      0.000      0.000
REMARK  Name = 
REMARK  17 active torsions:
REMARK  status: ('A' for Active; 'I' for Inactive)
REMARK    1  A    between atoms: C_1  and  C_2
REMARK    2  A    between atoms: C_2  and  C_3
REMARK    3  A    between atoms: C_3  and  C_4
REMARK    4  A    between atoms: C_4  and  C_5
REMARK    5  A    between atoms: C_5  and  C_6
REMARK    6  A    between atoms: C_6  and  C_7
REMARK    7  A    between atoms: C_7  and  C_8
REMARK    8  A    between atoms: C_8  and  C_9
REMARK    9  A    between atoms: C_10  and  C_11
REMARK   10  A    between atoms: C_14  and  O_15
REMARK   11  A    between atoms: C_16  and  O_17
REMARK   12  A    between atoms: C_22  and  O_23
REMARK   13  A    between atoms: O_23  and  C_24
REMARK   14  A    between atoms: C_25  and  O_26
REMARK   15  A    between atoms: O_26  and  C_27
REMARK   16  A    between atoms: C_28  and  O_29
REMARK   17  A    between atoms: O_29  and  C_30
REMARK                            x       y       z     vdW  Elec       q    Type
REMARK                         _______ _______ _______ _____ _____    ______ ____
ROOT
ATOM      1  C   UNL     1       2.383   7.473  18.539  0.00  0.00    +0.000 A 
ATOM      2  C   UNL     1       2.193   6.887  19.737  0.00  0.00    +0.000 A 
ATOM      3  O   UNL     1       1.469   7.461  20.771  0.00  0.00    +0.000 OA
ATOM      4  C   UNL     1       1.177   8.802  20.699  0.00  0.00    +0.000 A 
ATOM      5  C   UNL     1       0.632   9.374  21.838  0.00  0.00    +0.000 A 
ATOM      6  C   UNL     1       0.275  10.725  21.857  0.00  0.00    +0.000 A 
ATOM      7  C   UNL     1       0.512  11.535  20.719  0.00  0.00    +0.000 A 
ATOM      8  C   UNL     1       1.066  10.954  19.540  0.00  0.00    +0.000 A 
ATOM      9  C   UNL     1       1.347   9.567  19.544  0.00  0.00    +0.000 A 
ATOM     10  C   UNL     1       1.618   8.744  18.363  0.00  0.00    +0.000 A 
ATOM     11  O   UNL     1       1.087   9.028  17.298  0.00  0.00    +0.000 OA
ENDROOT
BRANCH   2  12
ATOM     12  C   UNL     1       2.614   5.506  20.047  0.00  0.00    +0.000 A 
ATOM     13  C   UNL     1       1.847   4.738  20.948  0.00  0.00    +0.000 A 
ATOM     14  C   UNL     1       2.258   3.457  21.339  0.00  0.00    +0.000 A 
ATOM     15  C   UNL     1       3.440   2.945  20.824  0.00  0.00    +0.000 A 
ATOM     16  C   UNL     1       4.196   3.692  19.919  0.00  0.00    +0.000 A 
ATOM     17  C   UNL     1       3.796   4.969  19.525  0.00  0.00    +0.000 A 
BRANCH  15  18
ATOM     18  O   UNL     1       3.915   1.715  21.186  0.00  0.00    +0.000 OA
ATOM     19  H   UNL     1       3.776   1.603  22.142  0.00  0.00    +0.000 HD
ENDBRANCH  15  18
BRANCH  16  20
ATOM     20  O   UNL     1       5.357   3.173  19.424  0.00  0.00    +0.000 OA
ATOM     21  H   UNL     1       5.650   3.824  18.749  0.00  0.00    +0.000 HD
ENDBRANCH  16  20
ENDBRANCH   2  12
BRANCH   6  22
ATOM     22  O   UNL     1      -0.291  11.072  23.059  0.00  0.00    +0.000 OA
ATOM     23  C   UNL     1      -1.678  11.360  23.123  0.00  0.00    +0.000 C 
ENDBRANCH   6  22
BRANCH   7  24
ATOM     24  O   UNL     1       0.159  12.854  20.869  0.00  0.00    +0.000 OA
ATOM     25  C   UNL     1       1.052  13.842  21.352  0.00  0.00    +0.000 C 
ENDBRANCH   7  24
BRANCH   8  26
ATOM     26  O   UNL     1       1.248  11.845  18.525  0.00  0.00    +0.000 OA
ATOM     27  C   UNL     1       2.469  12.437  18.131  0.00  0.00    +0.000 C 
ENDBRANCH   8  26
BRANCH   1  28
ATOM     28  C   UNL     1       3.160   6.885  17.377  0.00  0.00    +0.000 C 
BRANCH  28  29
ATOM     29  C   UNL     1       4.649   7.236  17.388  0.00  0.00    +0.000 C 
BRANCH  29  30
ATOM     30  C   UNL     1       5.468   6.658  16.248  0.00  0.00    +0.000 C 
BRANCH  30  31
ATOM     31  C   UNL     1       5.101   5.175  16.113  0.00  0.00    +0.000 C 
BRANCH  31  32
ATOM     32  C   UNL     1       6.339   4.303  16.008  0.00  0.00    +0.000 C 
BRANCH  32  33
ATOM     33  C   UNL     1       6.879   4.291  14.580  0.00  0.00    +0.000 C 
BRANCH  33  35
ATOM     34  C   UNL     1       6.364   3.485  12.254  0.00  0.00    +0.000 C 
ATOM     35  C   UNL     1       5.785   3.871  13.603  0.00  0.00    +0.000 C 
ENDBRANCH  33  35
ENDBRANCH  32  33
ENDBRANCH  31  32
ENDBRANCH  30  31
ENDBRANCH  29  30
ENDBRANCH  28  29
ENDBRANCH   1  28
TORSDOF 13
ENDMDL
MODEL 2
REMARK VINA RESULT:      -7.5      1.898      9.178
REMARK  Name = 
REMARK  17 active torsions:
REMARK  status: ('A' for Active; 'I' for Inactive)
REMARK    1  A    between atoms: C_1  and  C_2
REMARK    2  A    between atoms: C_2  and  C_3
REMARK    3  A    between atoms: C_3  and  C_4
REMARK    4  A    between atoms: C_4  and  C_5
REMARK    5  A    between atoms: C_5  and  C_6
REMARK    6  A    between atoms: C_6  and  C_7
REMARK    7  A    between atoms: C_7  and  C_8
REMARK    8  A    between atoms: C_8  and  C_9
REMARK    9  A    between atoms: C_10  and  C_11
REMARK   10  A    between atoms: C_14  and  O_15
REMARK   11  A    between atoms: C_16  and  O_17
REMARK   12  A    between atoms: C_22  and  O_23
REMARK   13  A    between atoms: O_23  and  C_24
REMARK   14  A    between atoms: C_25  and  O_26
REMARK   15  A    between atoms: O_26  and  C_27
REMARK   16  A    between atoms: C_28  and  O_29
REMARK   17  A    between atoms: O_29  and  C_30
REMARK                            x       y       z     vdW  Elec       q    Type
REMARK                         _______ _______ _______ _____ _____    ______ ____
ROOT
ATOM      1  C   UNL     1       1.623   7.802  19.890  0.00  0.00    +0.000 A 
ATOM      2  C   UNL     1       1.742   8.643  18.844  0.00  0.00    +0.000 A 
ATOM      3  O   UNL     1       2.505   8.371  17.717  0.00  0.00    +0.000 OA
ATOM      4  C   UNL     1       3.418   7.344  17.778  0.00  0.00    +0.000 A 
ATOM      5  C   UNL     1       4.293   7.238  16.709  0.00  0.00    +0.000 A 
ATOM      6  C   UNL     1       5.241   6.212  16.663  0.00  0.00    +0.000 A 
ATOM      7  C   UNL     1       5.344   5.297  17.739  0.00  0.00    +0.000 A 
ATOM      8  C   UNL     1       4.443   5.394  18.841  0.00  0.00    +0.000 A 
ATOM      9  C   UNL     1       3.455   6.406  18.811  0.00  0.00    +0.000 A 
ATOM     10  C   UNL     1       2.272   6.475  19.672  0.00  0.00    +0.000 A 
ATOM     11  O   UNL     1       1.753   5.437  20.062  0.00  0.00    +0.000 OA
ENDROOT
BRANCH   2  12
ATOM     12  C   UNL     1       0.967   9.892  18.706  0.00  0.00    +0.000 A 
ATOM     13  C   UNL     1       1.625  11.131  18.844  0.00  0.00    +0.000 A 
ATOM     14  C   UNL     1       0.913  12.337  18.810  0.00  0.00    +0.000 A 
ATOM     15  C   UNL     1      -0.463  12.299  18.636  0.00  0.00    +0.000 A 
ATOM     16  C   UNL     1      -1.120  11.077  18.482  0.00  0.00    +0.000 A 
ATOM     17  C   UNL     1      -0.420   9.871  18.516  0.00  0.00    +0.000 A 
BRANCH  15  18
ATOM     18  O   UNL     1      -1.223  13.436  18.624  0.00  0.00    +0.000 OA
ATOM     19  H   UNL     1      -1.177  13.844  19.506  0.00  0.00    +0.000 HD
ENDBRANCH  15  18
BRANCH  16  20
ATOM     20  O   UNL     1      -2.475  11.060  18.314  0.00  0.00    +0.000 OA
ATOM     21  H   UNL     1      -2.604  11.173  17.346  0.00  0.00    +0.000 HD
ENDBRANCH  16  20
ENDBRANCH   2  12
BRANCH   6  22
ATOM     22  O   UNL     1       5.968   6.259  15.499  0.00  0.00    +0.000 OA
ATOM     23  C   UNL     1       5.922   5.163  14.600  0.00  0.00    +0.000 C 
ENDBRANCH   6  22
BRANCH   7  24
ATOM     24  O   UNL     1       6.339   4.358  17.602  0.00  0.00    +0.000 OA
ATOM     25  C   UNL     1       7.697   4.623  17.904  0.00  0.00    +0.000 C 
ENDBRANCH   7  24
BRANCH   8  26
ATOM     26  O   UNL     1       4.658   4.458  19.807  0.00  0.00    +0.000 OA
ATOM     27  C   UNL     1       4.251   3.105  19.778  0.00  0.00    +0.000 C 
ENDBRANCH   8  26
BRANCH   1  28
ATOM     28  C   UNL     1       0.799   8.051  21.138  0.00  0.00    +0.000 C 
BRANCH  28  29
ATOM     29  C   UNL     1       1.388   9.116  22.065  0.00  0.00    +0.000 C 
BRANCH  29  30
ATOM     30  C   UNL     1       0.548   9.463  23.282  0.00  0.00    +0.000 C 
BRANCH  30  31
ATOM     31  C   UNL     1      -0.730  10.152  22.789  0.00  0.00    +0.000 C 
BRANCH  31  32
ATOM     32  C   UNL     1      -0.433  11.521  22.204  0.00  0.00    +0.000 C 
BRANCH  32  33
ATOM     33  C   UNL     1      -1.222  12.608  22.930  0.00  0.00    +0.000 C 
BRANCH  33  35
ATOM     34  C   UNL     1      -3.285  12.676  21.494  0.00  0.00    +0.000 C 
ATOM     35  C   UNL     1      -2.718  12.316  22.854  0.00  0.00    +0.000 C 
ENDBRANCH  33  35
ENDBRANCH  32  33
ENDBRANCH  31  32
ENDBRANCH  30  31
ENDBRANCH  29  30
ENDBRANCH  28  29
ENDBRANCH   1  28
TORSDOF 13
ENDMDL
MODEL 3
REMARK VINA RESULT:      -7.5      1.172      2.100
REMARK  Name = 
REMARK  17 active torsions:
REMARK  status: ('A' for Active; 'I' for Inactive)
REMARK    1  A    between atoms: C_1  and  C_2
REMARK    2  A    between atoms: C_2  and  C_3
REMARK    3  A    between atoms: C_3  and  C_4
REMARK    4  A    between atoms: C_4  and  C_5
REMARK    5  A    between atoms: C_5  and  C_6
REMARK    6  A    between atoms: C_6  and  C_7
REMARK    7  A    between atoms: C_7  and  C_8
REMARK    8  A    between atoms: C_8  and  C_9
REMARK    9  A    between atoms: C_10  and  C_11
REMARK   10  A    between atoms: C_14  and  O_15
REMARK   11  A    between atoms: C_16  and  O_17
REMARK   12  A    between atoms: C_22  and  O_23
REMARK   13  A    between atoms: O_23  and  C_24
REMARK   14  A    between atoms: C_25  and  O_26
REMARK   15  A    between atoms: O_26  and  C_27
REMARK   16  A    between atoms: C_28  and  O_29
REMARK   17  A    between atoms: O_29  and  C_30
REMARK                            x       y       z     vdW  Elec       q    Type
REMARK                         _______ _______ _______ _____ _____    ______ ____
ROOT
ATOM      1  C   UNL     1       2.384   7.309  18.612  0.00  0.00    +0.000 A 
ATOM      2  C   UNL     1       2.235   6.755  19.832  0.00  0.00    +0.000 A 
ATOM      3  O   UNL     1       1.529   7.349  20.868  0.00  0.00    +0.000 OA
ATOM      4  C   UNL     1       1.214   8.683  20.765  0.00  0.00    +0.000 A 
ATOM      5  C   UNL     1       0.691   9.280  21.901  0.00  0.00    +0.000 A 
ATOM      6  C   UNL     1       0.313  10.625  21.891  0.00  0.00    +0.000 A 
ATOM      7  C   UNL     1       0.508  11.405  20.724  0.00  0.00    +0.000 A 
ATOM      8  C   UNL     1       1.040  10.798  19.548  0.00  0.00    +0.000 A 
ATOM      9  C   UNL     1       1.343   9.416  19.584  0.00  0.00    +0.000 A 
ATOM     10  C   UNL     1       1.596   8.563  18.421  0.00  0.00    +0.000 A 
ATOM     11  O   UNL     1       1.032   8.809  17.362  0.00  0.00    +0.000 OA
ENDROOT
BRANCH   2  12
ATOM     12  C   UNL     1       2.684   5.390  20.171  0.00  0.00    +0.000 A 
ATOM     13  C   UNL     1       3.846   4.876  19.560  0.00  0.00    +0.000 A 
ATOM     14  C   UNL     1       4.257   3.555  19.783  0.00  0.00    +0.000 A 
ATOM     15  C   UNL     1       3.502   2.750  20.623  0.00  0.00    +0.000 A 
ATOM     16  C   UNL     1       2.359   3.258  21.245  0.00  0.00    +0.000 A 
ATOM     17  C   UNL     1       1.941   4.570  21.027  0.00  0.00    +0.000 A 
BRANCH  15  18
ATOM     18  O   UNL     1       3.828   1.444  20.862  0.00  0.00    +0.000 OA
ATOM     19  H   UNL     1       3.454   1.188  21.723  0.00  0.00    +0.000 HD
ENDBRANCH  15  18
BRANCH  16  20
ATOM     20  O   UNL     1       1.627   2.450  22.067  0.00  0.00    +0.000 OA
ATOM     21  H   UNL     1       1.221   3.065  22.718  0.00  0.00    +0.000 HD
ENDBRANCH  16  20
ENDBRANCH   2  12
BRANCH   6  22
ATOM     22  O   UNL     1      -0.226  10.999  23.096  0.00  0.00    +0.000 OA
ATOM     23  C   UNL     1      -1.621  11.234  23.197  0.00  0.00    +0.000 C 
ENDBRANCH   6  22
BRANCH   7  24
ATOM     24  O   UNL     1       0.139  12.723  20.845  0.00  0.00    +0.000 OA
ATOM     25  C   UNL     1       1.018  13.731  21.312  0.00  0.00    +0.000 C 
ENDBRANCH   7  24
BRANCH   8  26
ATOM     26  O   UNL     1       1.182  11.662  18.503  0.00  0.00    +0.000 OA
ATOM     27  C   UNL     1       2.372  12.309  18.099  0.00  0.00    +0.000 C 
ENDBRANCH   8  26
BRANCH   1  28
ATOM     28  C   UNL     1       3.139   6.699  17.448  0.00  0.00    +0.000 C 
BRANCH  28  29
ATOM     29  C   UNL     1       4.450   7.416  17.118  0.00  0.00    +0.000 C 
BRANCH  29  30
ATOM     30  C   UNL     1       5.255   6.818  15.977  0.00  0.00    +0.000 C 
BRANCH  30  31
ATOM     31  C   UNL     1       5.609   5.376  16.359  0.00  0.00    +0.000 C 
BRANCH  31  32
ATOM     32  C   UNL     1       7.111   5.169  16.421  0.00  0.00    +0.000 C 
BRANCH  32  33
ATOM     33  C   UNL     1       7.536   4.663  17.796  0.00  0.00    +0.000 C 
BRANCH  33  35
ATOM     34  C   UNL     1       8.038   7.053  18.394  0.00  0.00    +0.000 C 
ATOM     35  C   UNL     1       7.374   5.763  18.840  0.00  0.00    +0.000 C 
ENDBRANCH  33  35
ENDBRANCH  32  33
ENDBRANCH  31  32
ENDBRANCH  30  31
ENDBRANCH  29  30
ENDBRANCH  28  29
ENDBRANCH   1  28
TORSDOF 13
ENDMDL
MODEL 4
REMARK VINA RESULT:      -7.4      1.815      9.187
REMARK  Name = 
REMARK  17 active torsions:
REMARK  status: ('A' for Active; 'I' for Inactive)
REMARK    1  A    between atoms: C_1  and  C_2
REMARK    2  A    between atoms: C_2  and  C_3
REMARK    3  A    between atoms: C_3  and  C_4
REMARK    4  A    between atoms: C_4  and  C_5
REMARK    5  A    between atoms: C_5  and  C_6
REMARK    6  A    between atoms: C_6  and  C_7
REMARK    7  A    between atoms: C_7  and  C_8
REMARK    8  A    between atoms: C_8  and  C_9
REMARK    9  A    between atoms: C_10  and  C_11
REMARK   10  A    between atoms: C_14  and  O_15
REMARK   11  A    between atoms: C_16  and  O_17
REMARK   12  A    between atoms: C_22  and  O_23
REMARK   13  A    between atoms: O_23  and  C_24
REMARK   14  A    between atoms: C_25  and  O_26
REMARK   15  A    between atoms: O_26  and  C_27
REMARK   16  A    between atoms: C_28  and  O_29
REMARK   17  A    between atoms: O_29  and  C_30
REMARK                            x       y       z     vdW  Elec       q    Type
REMARK                         _______ _______ _______ _____ _____    ______ ____
ROOT
ATOM      1  C   UNL     1       1.652   7.687  19.970  0.00  0.00    +0.000 A 
ATOM      2  C   UNL     1       1.753   8.564  18.951  0.00  0.00    +0.000 A 
ATOM      3  O   UNL     1       2.497   8.330  17.804  0.00  0.00    +0.000 OA
ATOM      4  C   UNL     1       3.411   7.303  17.815  0.00  0.00    +0.000 A 
ATOM      5  C   UNL     1       4.269   7.234  16.728  0.00  0.00    +0.000 A 
ATOM      6  C   UNL     1       5.216   6.210  16.632  0.00  0.00    +0.000 A 
ATOM      7  C   UNL     1       5.337   5.259  17.674  0.00  0.00    +0.000 A 
ATOM      8  C   UNL     1       4.455   5.319  18.793  0.00  0.00    +0.000 A 
ATOM      9  C   UNL     1       3.465   6.330  18.814  0.00  0.00    +0.000 A 
ATOM     10  C   UNL     1       2.297   6.369  19.696  0.00  0.00    +0.000 A 
ATOM     11  O   UNL     1       1.785   5.318  20.060  0.00  0.00    +0.000 OA
ENDROOT
BRANCH   2  12
ATOM     12  C   UNL     1       0.976   9.816  18.869  0.00  0.00    +0.000 A 
ATOM     13  C   UNL     1      -0.372   9.764  18.460  0.00  0.00    +0.000 A 
ATOM     14  C   UNL     1      -1.120  10.935  18.282  0.00  0.00    +0.000 A 
ATOM     15  C   UNL     1      -0.515  12.161  18.516  0.00  0.00    +0.000 A 
ATOM     16  C   UNL     1       0.815  12.220  18.938  0.00  0.00    +0.000 A 
ATOM     17  C   UNL     1       1.568  11.059  19.116  0.00  0.00    +0.000 A 
BRANCH  15  18
ATOM     18  O   UNL     1      -1.176  13.344  18.333  0.00  0.00    +0.000 OA
ATOM     19  H   UNL     1      -1.238  13.795  19.193  0.00  0.00    +0.000 HD
ENDBRANCH  15  18
BRANCH  16  20
ATOM     20  O   UNL     1       1.396  13.435  19.163  0.00  0.00    +0.000 OA
ATOM     21  H   UNL     1       1.794  13.681  18.299  0.00  0.00    +0.000 HD
ENDBRANCH  16  20
ENDBRANCH   2  12
BRANCH   6  22
ATOM     22  O   UNL     1       5.923   6.297  15.458  0.00  0.00    +0.000 OA
ATOM     23  C   UNL     1       5.888   5.219  14.537  0.00  0.00    +0.000 C 
ENDBRANCH   6  22
BRANCH   7  24
ATOM     24  O   UNL     1       6.329   4.327  17.488  0.00  0.00    +0.000 OA
ATOM     25  C   UNL     1       7.689   4.573  17.800  0.00  0.00    +0.000 C 
ENDBRANCH   7  24
BRANCH   8  26
ATOM     26  O   UNL     1       4.686   4.350  19.724  0.00  0.00    +0.000 OA
ATOM     27  C   UNL     1       4.262   3.004  19.664  0.00  0.00    +0.000 C 
ENDBRANCH   8  26
BRANCH   1  28
ATOM     28  C   UNL     1       0.849   7.893  21.239  0.00  0.00    +0.000 C 
BRANCH  28  29
ATOM     29  C   UNL     1       1.436   8.950  22.178  0.00  0.00    +0.000 C 
BRANCH  29  30
ATOM     30  C   UNL     1       0.438   9.648  23.085  0.00  0.00    +0.000 C 
BRANCH  30  31
ATOM     31  C   UNL     1      -0.581  10.369  22.194  0.00  0.00    +0.000 C 
BRANCH  31  32
ATOM     32  C   UNL     1      -1.243  11.523  22.927  0.00  0.00    +0.000 C 
BRANCH  32  33
ATOM     33  C   UNL     1      -1.115  12.819  22.132  0.00  0.00    +0.000 C 
BRANCH  33  35
ATOM     34  C   UNL     1      -3.589  12.638  22.542  0.00  0.00    +0.000 C 
ATOM     35  C   UNL     1      -2.496  13.362  21.777  0.00  0.00    +0.000 C 
ENDBRANCH  33  35
ENDBRANCH  32  33
ENDBRANCH  31  32
ENDBRANCH  30  31
ENDBRANCH  29  30
ENDBRANCH  28  29
ENDBRANCH   1  28
TORSDOF 13
ENDMDL
MODEL 5
REMARK VINA RESULT:      -7.4      1.530      2.193
REMARK  Name = 
REMARK  17 active torsions:
REMARK  status: ('A' for Active; 'I' for Inactive)
REMARK    1  A    between atoms: C_1  and  C_2
REMARK    2  A    between atoms: C_2  and  C_3
REMARK    3  A    between atoms: C_3  and  C_4
REMARK    4  A    between atoms: C_4  and  C_5
REMARK    5  A    between atoms: C_5  and  C_6
REMARK    6  A    between atoms: C_6  and  C_7
REMARK    7  A    between atoms: C_7  and  C_8
REMARK    8  A    between atoms: C_8  and  C_9
REMARK    9  A    between atoms: C_10  and  C_11
REMARK   10  A    between atoms: C_14  and  O_15
REMARK   11  A    between atoms: C_16  and  O_17
REMARK   12  A    between atoms: C_22  and  O_23
REMARK   13  A    between atoms: O_23  and  C_24
REMARK   14  A    between atoms: C_25  and  O_26
REMARK   15  A    between atoms: O_26  and  C_27
REMARK   16  A    between atoms: C_28  and  O_29
REMARK   17  A    between atoms: O_29  and  C_30
REMARK                            x       y       z     vdW  Elec       q    Type
REMARK                         _______ _______ _______ _____ _____    ______ ____
ROOT
ATOM      1  C   UNL     1       2.508   7.628  18.126  0.00  0.00    +0.000 A 
ATOM      2  C   UNL     1       2.362   6.774  19.158  0.00  0.00    +0.000 A 
ATOM      3  O   UNL     1       1.673   7.081  20.322  0.00  0.00    +0.000 OA
ATOM      4  C   UNL     1       1.374   8.399  20.577  0.00  0.00    +0.000 A 
ATOM      5  C   UNL     1       0.869   8.681  21.836  0.00  0.00    +0.000 A 
ATOM      6  C   UNL     1       0.509   9.986  22.184  0.00  0.00    +0.000 A 
ATOM      7  C   UNL     1       0.704  11.043  21.262  0.00  0.00    +0.000 A 
ATOM      8  C   UNL     1       1.218  10.761  19.961  0.00  0.00    +0.000 A 
ATOM      9  C   UNL     1       1.503   9.416  19.629  0.00  0.00    +0.000 A 
ATOM     10  C   UNL     1       1.735   8.896  18.279  0.00  0.00    +0.000 A 
ATOM     11  O   UNL     1       1.166   9.417  17.330  0.00  0.00    +0.000 OA
ENDROOT
BRANCH   2  12
ATOM     12  C   UNL     1       2.797   5.364  19.121  0.00  0.00    +0.000 A 
ATOM     13  C   UNL     1       4.047   5.013  19.669  0.00  0.00    +0.000 A 
ATOM     14  C   UNL     1       4.537   3.704  19.575  0.00  0.00    +0.000 A 
ATOM     15  C   UNL     1       3.770   2.745  18.931  0.00  0.00    +0.000 A 
ATOM     16  C   UNL     1       2.523   3.080  18.400  0.00  0.00    +0.000 A 
ATOM     17  C   UNL     1       2.028   4.381  18.487  0.00  0.00    +0.000 A 
BRANCH  15  18
ATOM     18  O   UNL     1       4.200   1.456  18.776  0.00  0.00    +0.000 OA
ATOM     19  H   UNL     1       3.918   0.944  19.554  0.00  0.00    +0.000 HD
ENDBRANCH  15  18
BRANCH  16  20
ATOM     20  O   UNL     1       1.782   2.123  17.767  0.00  0.00    +0.000 OA
ATOM     21  H   UNL     1       1.328   1.643  18.495  0.00  0.00    +0.000 HD
ENDBRANCH  16  20
ENDBRANCH   2  12
BRANCH   6  22
ATOM     22  O   UNL     1      -0.016  10.035  23.452  0.00  0.00    +0.000 OA
ATOM     23  C   UNL     1       0.527   9.207  24.468  0.00  0.00    +0.000 C 
ENDBRANCH   6  22
BRANCH   7  24
ATOM     24  O   UNL     1       0.353  12.286  21.729  0.00  0.00    +0.000 OA
ATOM     25  C   UNL     1      -0.992  12.723  21.825  0.00  0.00    +0.000 C 
ENDBRANCH   7  24
BRANCH   8  26
ATOM     26  O   UNL     1       1.362  11.868  19.179  0.00  0.00    +0.000 OA
ATOM     27  C   UNL     1       0.343  12.536  18.463  0.00  0.00    +0.000 C 
ENDBRANCH   8  26
BRANCH   1  28
ATOM     28  C   UNL     1       3.245   7.338  16.834  0.00  0.00    +0.000 C 
BRANCH  28  29
ATOM     29  C   UNL     1       4.767   7.299  16.986  0.00  0.00    +0.000 C 
BRANCH  29  30
ATOM     30  C   UNL     1       5.514   6.517  15.918  0.00  0.00    +0.000 C 
BRANCH  30  31
ATOM     31  C   UNL     1       4.949   5.092  15.899  0.00  0.00    +0.000 C 
BRANCH  31  32
ATOM     32  C   UNL     1       6.010   4.068  16.260  0.00  0.00    +0.000 C 
BRANCH  32  33
ATOM     33  C   UNL     1       7.352   4.743  16.525  0.00  0.00    +0.000 C 
BRANCH  33  35
ATOM     34  C   UNL     1       7.690   5.863  18.752  0.00  0.00    +0.000 C 
ATOM     35  C   UNL     1       7.762   4.556  17.983  0.00  0.00    +0.000 C 
ENDBRANCH  33  35
ENDBRANCH  32  33
ENDBRANCH  31  32
ENDBRANCH  30  31
ENDBRANCH  29  30
ENDBRANCH  28  29
ENDBRANCH   1  28
TORSDOF 13
ENDMDL
MODEL 6
REMARK VINA RESULT:      -7.4      1.586      2.245
REMARK  Name = 
REMARK  17 active torsions:
REMARK  status: ('A' for Active; 'I' for Inactive)
REMARK    1  A    between atoms: C_1  and  C_2
REMARK    2  A    between atoms: C_2  and  C_3
REMARK    3  A    between atoms: C_3  and  C_4
REMARK    4  A    between atoms: C_4  and  C_5
REMARK    5  A    between atoms: C_5  and  C_6
REMARK    6  A    between atoms: C_6  and  C_7
REMARK    7  A    between atoms: C_7  and  C_8
REMARK    8  A    between atoms: C_8  and  C_9
REMARK    9  A    between atoms: C_10  and  C_11
REMARK   10  A    between atoms: C_14  and  O_15
REMARK   11  A    between atoms: C_16  and  O_17
REMARK   12  A    between atoms: C_22  and  O_23
REMARK   13  A    between atoms: O_23  and  C_24
REMARK   14  A    between atoms: C_25  and  O_26
REMARK   15  A    between atoms: O_26  and  C_27
REMARK   16  A    between atoms: C_28  and  O_29
REMARK   17  A    between atoms: O_29  and  C_30
REMARK                            x       y       z     vdW  Elec       q    Type
REMARK                         _______ _______ _______ _____ _____    ______ ____
ROOT
ATOM      1  C   UNL     1       2.699   7.643  17.850  0.00  0.00    +0.000 A 
ATOM      2  C   UNL     1       2.444   6.737  18.814  0.00  0.00    +0.000 A 
ATOM      3  O   UNL     1       1.746   7.024  19.978  0.00  0.00    +0.000 OA
ATOM      4  C   UNL     1       1.557   8.342  20.319  0.00  0.00    +0.000 A 
ATOM      5  C   UNL     1       1.037   8.581  21.581  0.00  0.00    +0.000 A 
ATOM      6  C   UNL     1       0.783   9.886  22.013  0.00  0.00    +0.000 A 
ATOM      7  C   UNL     1       1.102  10.982  21.174  0.00  0.00    +0.000 A 
ATOM      8  C   UNL     1       1.632  10.746  19.871  0.00  0.00    +0.000 A 
ATOM      9  C   UNL     1       1.807   9.406  19.450  0.00  0.00    +0.000 A 
ATOM     10  C   UNL     1       2.037   8.962  18.074  0.00  0.00    +0.000 A 
ATOM     11  O   UNL     1       1.548   9.598  17.149  0.00  0.00    +0.000 OA
ENDROOT
BRANCH   2  12
ATOM     12  C   UNL     1       2.752   5.298  18.686  0.00  0.00    +0.000 A 
ATOM     13  C   UNL     1       1.873   4.466  17.963  0.00  0.00    +0.000 A 
ATOM     14  C   UNL     1       2.079   3.083  17.893  0.00  0.00    +0.000 A 
ATOM     15  C   UNL     1       3.171   2.533  18.548  0.00  0.00    +0.000 A 
ATOM     16  C   UNL     1       4.055   3.352  19.252  0.00  0.00    +0.000 A 
ATOM     17  C   UNL     1       3.857   4.730  19.329  0.00  0.00    +0.000 A 
BRANCH  15  18
ATOM     18  O   UNL     1       3.415   1.187  18.547  0.00  0.00    +0.000 OA
ATOM     19  H   UNL     1       3.532   0.897  19.468  0.00  0.00    +0.000 HD
ENDBRANCH  15  18
BRANCH  16  20
ATOM     20  O   UNL     1       5.124   2.792  19.893  0.00  0.00    +0.000 OA
ATOM     21  H   UNL     1       4.753   2.447  20.734  0.00  0.00    +0.000 HD
ENDBRANCH  16  20
ENDBRANCH   2  12
BRANCH   6  22
ATOM     22  O   UNL     1       0.223   9.894  23.266  0.00  0.00    +0.000 OA
ATOM     23  C   UNL     1      -1.167  10.136  23.411  0.00  0.00    +0.000 C 
ENDBRANCH   6  22
BRANCH   7  24
ATOM     24  O   UNL     1       0.847  12.216  21.720  0.00  0.00    +0.000 OA
ATOM     25  C   UNL     1      -0.398  12.878  21.585  0.00  0.00    +0.000 C 
ENDBRANCH   7  24
BRANCH   8  26
ATOM     26  O   UNL     1       1.900  11.886  19.175  0.00  0.00    +0.000 OA
ATOM     27  C   UNL     1       0.981  12.655  18.427  0.00  0.00    +0.000 C 
ENDBRANCH   8  26
BRANCH   1  28
ATOM     28  C   UNL     1       3.451   7.377  16.560  0.00  0.00    +0.000 C 
BRANCH  28  29
ATOM     29  C   UNL     1       4.811   6.707  16.764  0.00  0.00    +0.000 C 
BRANCH  29  30
ATOM     30  C   UNL     1       5.248   5.762  15.658  0.00  0.00    +0.000 C 
BRANCH  30  31
ATOM     31  C   UNL     1       6.014   4.603  16.308  0.00  0.00    +0.000 C 
BRANCH  31  32
ATOM     32  C   UNL     1       7.374   5.050  16.815  0.00  0.00    +0.000 C 
BRANCH  32  33
ATOM     33  C   UNL     1       7.511   4.789  18.312  0.00  0.00    +0.000 C 
BRANCH  33  35
ATOM     34  C   UNL     1       7.912   7.262  18.100  0.00  0.00    +0.000 C 
ATOM     35  C   UNL     1       7.906   6.070  19.040  0.00  0.00    +0.000 C 
ENDBRANCH  33  35
ENDBRANCH  32  33
ENDBRANCH  31  32
ENDBRANCH  30  31
ENDBRANCH  29  30
ENDBRANCH  28  29
ENDBRANCH   1  28
TORSDOF 13
ENDMDL
MODEL 7
REMARK VINA RESULT:      -7.3      1.314      1.550
REMARK  Name = 
REMARK  17 active torsions:
REMARK  status: ('A' for Active; 'I' for Inactive)
REMARK    1  A    between atoms: C_1  and  C_2
REMARK    2  A    between atoms: C_2  and  C_3
REMARK    3  A    between atoms: C_3  and  C_4
REMARK    4  A    between atoms: C_4  and  C_5
REMARK    5  A    between atoms: C_5  and  C_6
REMARK    6  A    between atoms: C_6  and  C_7
REMARK    7  A    between atoms: C_7  and  C_8
REMARK    8  A    between atoms: C_8  and  C_9
REMARK    9  A    between atoms: C_10  and  C_11
REMARK   10  A    between atoms: C_14  and  O_15
REMARK   11  A    between atoms: C_16  and  O_17
REMARK   12  A    between atoms: C_22  and  O_23
REMARK   13  A    between atoms: O_23  and  C_24
REMARK   14  A    between atoms: C_25  and  O_26
REMARK   15  A    between atoms: O_26  and  C_27
REMARK   16  A    between atoms: C_28  and  O_29
REMARK   17  A    between atoms: O_29  and  C_30
REMARK                            x       y       z     vdW  Elec       q    Type
REMARK                         _______ _______ _______ _____ _____    ______ ____
ROOT
ATOM      1  C   UNL     1       2.757   7.538  18.063  0.00  0.00    +0.000 A 
ATOM      2  C   UNL     1       2.522   6.696  19.089  0.00  0.00    +0.000 A 
ATOM      3  O   UNL     1       1.798   7.042  20.221  0.00  0.00    +0.000 OA
ATOM      4  C   UNL     1       1.555   8.374  20.460  0.00  0.00    +0.000 A 
ATOM      5  C   UNL     1       1.009   8.686  21.695  0.00  0.00    +0.000 A 
ATOM      6  C   UNL     1       0.700  10.009  22.024  0.00  0.00    +0.000 A 
ATOM      7  C   UNL     1       0.989  11.051  21.110  0.00  0.00    +0.000 A 
ATOM      8  C   UNL     1       1.546  10.739  19.834  0.00  0.00    +0.000 A 
ATOM      9  C   UNL     1       1.777   9.379  19.517  0.00  0.00    +0.000 A 
ATOM     10  C   UNL     1       2.043   8.844  18.180  0.00  0.00    +0.000 A 
ATOM     11  O   UNL     1       1.543   9.389  17.205  0.00  0.00    +0.000 OA
ENDROOT
BRANCH   2  12
ATOM     12  C   UNL     1       2.886   5.265  19.073  0.00  0.00    +0.000 A 
ATOM     13  C   UNL     1       4.063   4.846  19.727  0.00  0.00    +0.000 A 
ATOM     14  C   UNL     1       4.492   3.514  19.661  0.00  0.00    +0.000 A 
ATOM     15  C   UNL     1       3.739   2.601  18.939  0.00  0.00    +0.000 A 
ATOM     16  C   UNL     1       2.563   3.005  18.303  0.00  0.00    +0.000 A 
ATOM     17  C   UNL     1       2.129   4.329  18.361  0.00  0.00    +0.000 A 
BRANCH  15  18
ATOM     18  O   UNL     1       4.115   1.293  18.807  0.00  0.00    +0.000 OA
ATOM     19  H   UNL     1       4.418   0.974  19.675  0.00  0.00    +0.000 HD
ENDBRANCH  15  18
BRANCH  16  20
ATOM     20  O   UNL     1       1.835   2.092  17.595  0.00  0.00    +0.000 OA
ATOM     21  H   UNL     1       2.424   1.828  16.854  0.00  0.00    +0.000 HD
ENDBRANCH  16  20
ENDBRANCH   2  12
BRANCH   6  22
ATOM     22  O   UNL     1       0.123  10.089  23.267  0.00  0.00    +0.000 OA
ATOM     23  C   UNL     1      -1.274  10.309  23.379  0.00  0.00    +0.000 C 
ENDBRANCH   6  22
BRANCH   7  24
ATOM     24  O   UNL     1       0.681  12.312  21.559  0.00  0.00    +0.000 OA
ATOM     25  C   UNL     1      -0.594  12.905  21.379  0.00  0.00    +0.000 C 
ENDBRANCH   7  24
BRANCH   8  26
ATOM     26  O   UNL     1       1.781  11.834  19.058  0.00  0.00    +0.000 OA
ATOM     27  C   UNL     1       0.827  12.560  18.310  0.00  0.00    +0.000 C 
ENDBRANCH   8  26
BRANCH   1  28
ATOM     28  C   UNL     1       3.536   7.206  16.806  0.00  0.00    +0.000 C 
BRANCH  28  29
ATOM     29  C   UNL     1       4.972   6.750  17.070  0.00  0.00    +0.000 C 
BRANCH  29  30
ATOM     30  C   UNL     1       5.359   5.413  16.463  0.00  0.00    +0.000 C 
BRANCH  30  31
ATOM     31  C   UNL     1       6.820   5.509  16.007  0.00  0.00    +0.000 C 
BRANCH  31  32
ATOM     32  C   UNL     1       7.008   4.934  14.615  0.00  0.00    +0.000 C 
BRANCH  32  33
ATOM     33  C   UNL     1       5.879   3.967  14.267  0.00  0.00    +0.000 C 
BRANCH  33  35
ATOM     34  C   UNL     1       7.133   4.233  12.103  0.00  0.00    +0.000 C 
ATOM     35  C   UNL     1       5.967   3.556  12.800  0.00  0.00    +0.000 C 
ENDBRANCH  33  35
ENDBRANCH  32  33
ENDBRANCH  31  32
ENDBRANCH  30  31
ENDBRANCH  29  30
ENDBRANCH  28  29
ENDBRANCH   1  28
TORSDOF 13
ENDMDL
MODEL 8
REMARK VINA RESULT:      -7.3      2.068      4.604
REMARK  Name = 
REMARK  17 active torsions:
REMARK  status: ('A' for Active; 'I' for Inactive)
REMARK    1  A    between atoms: C_1  and  C_2
REMARK    2  A    between atoms: C_2  and  C_3
REMARK    3  A    between atoms: C_3  and  C_4
REMARK    4  A    between atoms: C_4  and  C_5
REMARK    5  A    between atoms: C_5  and  C_6
REMARK    6  A    between atoms: C_6  and  C_7
REMARK    7  A    between atoms: C_7  and  C_8
REMARK    8  A    between atoms: C_8  and  C_9
REMARK    9  A    between atoms: C_10  and  C_11
REMARK   10  A    between atoms: C_14  and  O_15
REMARK   11  A    between atoms: C_16  and  O_17
REMARK   12  A    between atoms: C_22  and  O_23
REMARK   13  A    between atoms: O_23  and  C_24
REMARK   14  A    between atoms: C_25  and  O_26
REMARK   15  A    between atoms: O_26  and  C_27
REMARK   16  A    between atoms: C_28  and  O_29
REMARK   17  A    between atoms: O_29  and  C_30
REMARK                            x       y       z     vdW  Elec       q    Type
REMARK                         _______ _______ _______ _____ _____    ______ ____
ROOT
ATOM      1  C   UNL     1       2.396   6.763  19.620  0.00  0.00    +0.000 A 
ATOM      2  C   UNL     1       2.999   7.264  18.523  0.00  0.00    +0.000 A 
ATOM      3  O   UNL     1       2.916   8.594  18.137  0.00  0.00    +0.000 OA
ATOM      4  C   UNL     1       1.947   9.383  18.712  0.00  0.00    +0.000 A 
ATOM      5  C   UNL     1       1.770  10.639  18.155  0.00  0.00    +0.000 A 
ATOM      6  C   UNL     1       0.829  11.527  18.685  0.00  0.00    +0.000 A 
ATOM      7  C   UNL     1       0.014  11.128  19.772  0.00  0.00    +0.000 A 
ATOM      8  C   UNL     1       0.195   9.839  20.356  0.00  0.00    +0.000 A 
ATOM      9  C   UNL     1       1.206   9.000  19.831  0.00  0.00    +0.000 A 
ATOM     10  C   UNL     1       1.744   7.799  20.474  0.00  0.00    +0.000 A 
ATOM     11  O   UNL     1       1.787   7.741  21.696  0.00  0.00    +0.000 OA
ENDROOT
BRANCH   2  12
ATOM     12  C   UNL     1       3.932   6.493  17.678  0.00  0.00    +0.000 A 
ATOM     13  C   UNL     1       3.541   5.227  17.198  0.00  0.00    +0.000 A 
ATOM     14  C   UNL     1       4.427   4.424  16.469  0.00  0.00    +0.000 A 
ATOM     15  C   UNL     1       5.709   4.893  16.220  0.00  0.00    +0.000 A 
ATOM     16  C   UNL     1       6.098   6.153  16.678  0.00  0.00    +0.000 A 
ATOM     17  C   UNL     1       5.223   6.959  17.406  0.00  0.00    +0.000 A 
BRANCH  15  18
ATOM     18  O   UNL     1       6.634   4.150  15.541  0.00  0.00    +0.000 OA
ATOM     19  H   UNL     1       6.296   3.241  15.460  0.00  0.00    +0.000 HD
ENDBRANCH  15  18
BRANCH  16  20
ATOM     20  O   UNL     1       7.364   6.599  16.424  0.00  0.00    +0.000 OA
ATOM     21  H   UNL     1       7.315   7.570  16.565  0.00  0.00    +0.000 HD
ENDBRANCH  16  20
ENDBRANCH   2  12
BRANCH   6  22
ATOM     22  O   UNL     1       0.851  12.729  18.021  0.00  0.00    +0.000 OA
ATOM     23  C   UNL     1       1.821  13.704  18.368  0.00  0.00    +0.000 C 
ENDBRANCH   6  22
BRANCH   7  24
ATOM     24  O   UNL     1      -0.901  12.068  20.180  0.00  0.00    +0.000 OA
ATOM     25  C   UNL     1      -2.201  12.171  19.626  0.00  0.00    +0.000 C 
ENDBRANCH   7  24
BRANCH   8  26
ATOM     26  O   UNL     1      -0.659   9.581  21.387  0.00  0.00    +0.000 OA
ATOM     27  C   UNL     1      -0.489   9.959  22.738  0.00  0.00    +0.000 C 
ENDBRANCH   8  26
BRANCH   1  28
ATOM     28  C   UNL     1       2.462   5.322  20.086  0.00  0.00    +0.000 C 
BRANCH  28  29
ATOM     29  C   UNL     1       1.113   4.756  20.535  0.00  0.00    +0.000 C 
BRANCH  29  30
ATOM     30  C   UNL     1       0.868   3.297  20.193  0.00  0.00    +0.000 C 
BRANCH  30  31
ATOM     31  C   UNL     1       1.501   3.023  18.824  0.00  0.00    +0.000 C 
BRANCH  31  32
ATOM     32  C   UNL     1       2.009   1.596  18.720  0.00  0.00    +0.000 C 
BRANCH  32  33
ATOM     33  C   UNL     1       3.518   1.569  18.491  0.00  0.00    +0.000 C 
BRANCH  33  35
ATOM     34  C   UNL     1       4.817   1.651  20.643  0.00  0.00    +0.000 C 
ATOM     35  C   UNL     1       4.224   2.463  19.506  0.00  0.00    +0.000 C 
ENDBRANCH  33  35
ENDBRANCH  32  33
ENDBRANCH  31  32
ENDBRANCH  30  31
ENDBRANCH  29  30
ENDBRANCH  28  29
ENDBRANCH   1  28
TORSDOF 13
ENDMDL
MODEL 9
REMARK VINA RESULT:      -7.3      0.743      1.298
REMARK  Name = 
REMARK  17 active torsions:
REMARK  status: ('A' for Active; 'I' for Inactive)
REMARK    1  A    between atoms: C_1  and  C_2
REMARK    2  A    between atoms: C_2  and  C_3
REMARK    3  A    between atoms: C_3  and  C_4
REMARK    4  A    between atoms: C_4  and  C_5
REMARK    5  A    between atoms: C_5  and  C_6
REMARK    6  A    between atoms: C_6  and  C_7
REMARK    7  A    between atoms: C_7  and  C_8
REMARK    8  A    between atoms: C_8  and  C_9
REMARK    9  A    between atoms: C_10  and  C_11
REMARK   10  A    between atoms: C_14  and  O_15
REMARK   11  A    between atoms: C_16  and  O_17
REMARK   12  A    between atoms: C_22  and  O_23
REMARK   13  A    between atoms: O_23  and  C_24
REMARK   14  A    between atoms: C_25  and  O_26
REMARK   15  A    between atoms: O_26  and  C_27
REMARK   16  A    between atoms: C_28  and  O_29
REMARK   17  A    between atoms: O_29  and  C_30
REMARK                            x       y       z     vdW  Elec       q    Type
REMARK                         _______ _______ _______ _____ _____    ______ ____
ROOT
ATOM      1  C   UNL     1       2.452   7.498  18.504  0.00  0.00    +0.000 A 
ATOM      2  C   UNL     1       2.287   6.915  19.707  0.00  0.00    +0.000 A 
ATOM      3  O   UNL     1       1.565   7.482  20.748  0.00  0.00    +0.000 OA
ATOM      4  C   UNL     1       1.250   8.818  20.672  0.00  0.00    +0.000 A 
ATOM      5  C   UNL     1       0.710   9.386  21.815  0.00  0.00    +0.000 A 
ATOM      6  C   UNL     1       0.331  10.732  21.832  0.00  0.00    +0.000 A 
ATOM      7  C   UNL     1       0.541  11.539  20.687  0.00  0.00    +0.000 A 
ATOM      8  C   UNL     1       1.090  10.961  19.504  0.00  0.00    +0.000 A 
ATOM      9  C   UNL     1       1.394   9.579  19.511  0.00  0.00    +0.000 A 
ATOM     10  C   UNL     1       1.664   8.755  18.331  0.00  0.00    +0.000 A 
ATOM     11  O   UNL     1       1.115   9.025  17.271  0.00  0.00    +0.000 OA
ENDROOT
BRANCH   2  12
ATOM     12  C   UNL     1       2.733   5.542  20.019  0.00  0.00    +0.000 A 
ATOM     13  C   UNL     1       3.840   5.005  19.332  0.00  0.00    +0.000 A 
ATOM     14  C   UNL     1       4.242   3.678  19.531  0.00  0.00    +0.000 A 
ATOM     15  C   UNL     1       3.532   2.889  20.424  0.00  0.00    +0.000 A 
ATOM     16  C   UNL     1       2.444   3.418  21.121  0.00  0.00    +0.000 A 
ATOM     17  C   UNL     1       2.036   4.738  20.928  0.00  0.00    +0.000 A 
BRANCH  15  18
ATOM     18  O   UNL     1       3.850   1.577  20.645  0.00  0.00    +0.000 OA
ATOM     19  H   UNL     1       4.211   1.497  21.544  0.00  0.00    +0.000 HD
ENDBRANCH  15  18
BRANCH  16  20
ATOM     20  O   UNL     1       1.756   2.626  21.995  0.00  0.00    +0.000 OA
ATOM     21  H   UNL     1       1.205   3.253  22.514  0.00  0.00    +0.000 HD
ENDBRANCH  16  20
ENDBRANCH   2  12
BRANCH   6  22
ATOM     22  O   UNL     1      -0.226  11.076  23.038  0.00  0.00    +0.000 OA
ATOM     23  C   UNL     1      -1.637  11.091  23.180  0.00  0.00    +0.000 C 
ENDBRANCH   6  22
BRANCH   7  24
ATOM     24  O   UNL     1       0.168  12.853  20.834  0.00  0.00    +0.000 OA
ATOM     25  C   UNL     1      -1.063  13.365  20.354  0.00  0.00    +0.000 C 
ENDBRANCH   7  24
BRANCH   8  26
ATOM     26  O   UNL     1       1.245  11.850  18.483  0.00  0.00    +0.000 OA
ATOM     27  C   UNL     1       2.428  12.542  18.138  0.00  0.00    +0.000 C 
ENDBRANCH   8  26
BRANCH   1  28
ATOM     28  C   UNL     1       3.224   6.917  17.336  0.00  0.00    +0.000 C 
BRANCH  28  29
ATOM     29  C   UNL     1       4.723   7.222  17.373  0.00  0.00    +0.000 C 
BRANCH  29  30
ATOM     30  C   UNL     1       5.534   6.667  16.215  0.00  0.00    +0.000 C 
BRANCH  30  31
ATOM     31  C   UNL     1       6.543   5.664  16.787  0.00  0.00    +0.000 C 
BRANCH  31  32
ATOM     32  C   UNL     1       6.354   4.282  16.188  0.00  0.00    +0.000 C 
BRANCH  32  33
ATOM     33  C   UNL     1       5.559   4.355  14.887  0.00  0.00    +0.000 C 
BRANCH  33  35
ATOM     34  C   UNL     1       5.637   3.459  12.539  0.00  0.00    +0.000 C 
ATOM     35  C   UNL     1       6.450   4.000  13.700  0.00  0.00    +0.000 C 
ENDBRANCH  33  35
ENDBRANCH  32  33
ENDBRANCH  31  32
ENDBRANCH  30  31
ENDBRANCH  29  30
ENDBRANCH  28  29
ENDBRANCH   1  28
TORSDOF 13
ENDMDL
