MODEL 1
REMARK VINA RESULT:      -7.5      0.000      0.000
REMARK  Name = 
REMARK  5 active torsions:
REMARK  status: ('A' for Active; 'I' for Inactive)
REMARK    1  A    between atoms: C_1  and  C_2
REMARK    2  A    between atoms: C_5  and  C_6
REMARK    3  A    between atoms: C_6  and  N_7
REMARK    4  A    between atoms: N_10  and  C_11
REMARK    5  A    between atoms: C_14  and  C_15
REMARK                            x       y       z     vdW  Elec       q    Type
REMARK                         _______ _______ _______ _____ _____    ______ ____
ROOT
ATOM      1  N   UNL     1       7.127   7.461  17.001  0.00  0.00    +0.000 N 
ATOM      2  C   UNL     1       7.985   8.127  17.848  0.00  0.00    +0.000 C 
ATOM      3  O   UNL     1       8.588   7.534  18.735  0.00  0.00    +0.000 OA
ATOM      4  N   UNL     1       8.014   9.482  17.606  0.00  0.00    +0.000 N 
ATOM      5  H   UNL     1       7.034   7.828  16.066  0.00  0.00    +0.000 HD
ATOM      6  H   UNL     1       7.287   9.837  17.002  0.00  0.00    +0.000 HD
ENDROOT
BRANCH   4   7
ATOM      7  C   UNL     1       8.719  10.432  18.383  0.00  0.00    +0.000 A 
ATOM      8  C   UNL     1       9.206  10.155  19.663  0.00  0.00    +0.000 A 
ATOM      9  C   UNL     1       9.784  11.156  20.445  0.00  0.00    +0.000 A 
ATOM     10  C   UNL     1       9.907  12.457  19.952  0.00  0.00    +0.000 A 
ATOM     11  C   UNL     1      10.452  13.548  20.822  0.00  0.00    +0.000 C 
ATOM     12  C   UNL     1       9.482  12.725  18.646  0.00  0.00    +0.000 A 
ATOM     13  C   UNL     1       8.901  11.717  17.863  0.00  0.00    +0.000 A 
ENDBRANCH   4   7
BRANCH   1  14
ATOM     14  C   UNL     1       7.019   6.026  17.151  0.00  0.00    +0.000 C 
BRANCH  14  19
ATOM     15  C   UNL     1       1.521   4.247  17.804  0.00  0.00    +0.000 C 
ATOM     16  C   UNL     1       2.935   4.703  17.600  0.00  0.00    +0.000 A 
ATOM     17  C   UNL     1       3.909   3.828  17.108  0.00  0.00    +0.000 A 
ATOM     18  C   UNL     1       5.228   4.258  16.942  0.00  0.00    +0.000 A 
ATOM     19  C   UNL     1       5.594   5.568  17.273  0.00  0.00    +0.000 A 
ATOM     20  C   UNL     1       4.612   6.449  17.748  0.00  0.00    +0.000 A 
ATOM     21  C   UNL     1       3.295   6.017  17.914  0.00  0.00    +0.000 A 
ENDBRANCH  14  19
ENDBRANCH   1  14
TORSDOF 3
ENDMDL
MODEL 2
REMARK VINA RESULT:      -7.4      0.112      1.108
REMARK  Name = 
REMARK  5 active torsions:
REMARK  status: ('A' for Active; 'I' for Inactive)
REMARK    1  A    between atoms: C_1  and  C_2
REMARK    2  A    between atoms: C_5  and  C_6
REMARK    3  A    between atoms: C_6  and  N_7
REMARK    4  A    between atoms: N_10  and  C_11
REMARK    5  A    between atoms: C_14  and  C_15
REMARK                            x       y       z     vdW  Elec       q    Type
REMARK                         _______ _______ _______ _____ _____    ______ ____
ROOT
ATOM      1  N   UNL     1       7.114   7.498  17.037  0.00  0.00    +0.000 N 
ATOM      2  C   UNL     1       7.993   8.162  17.864  0.00  0.00    +0.000 C 
ATOM      3  O   UNL     1       8.615   7.568  18.738  0.00  0.00    +0.000 OA
ATOM      4  N   UNL     1       8.022   9.517  17.620  0.00  0.00    +0.000 N 
ATOM      5  H   UNL     1       7.000   7.864  16.105  0.00  0.00    +0.000 HD
ATOM      6  H   UNL     1       7.281   9.874  17.033  0.00  0.00    +0.000 HD
ENDROOT
BRANCH   4   7
ATOM      7  C   UNL     1       8.748  10.465  18.380  0.00  0.00    +0.000 A 
ATOM      8  C   UNL     1       9.214  10.207  19.671  0.00  0.00    +0.000 A 
ATOM      9  C   UNL     1       9.815  11.210  20.432  0.00  0.00    +0.000 A 
ATOM     10  C   UNL     1       9.982  12.493  19.907  0.00  0.00    +0.000 A 
ATOM     11  C   UNL     1      10.552  13.590  20.755  0.00  0.00    +0.000 C 
ATOM     12  C   UNL     1       9.578  12.740  18.591  0.00  0.00    +0.000 A 
ATOM     13  C   UNL     1       8.974  11.730  17.828  0.00  0.00    +0.000 A 
ENDBRANCH   4   7
BRANCH   1  14
ATOM     14  C   UNL     1       7.004   6.064  17.191  0.00  0.00    +0.000 C 
BRANCH  14  19
ATOM     15  C   UNL     1       1.488   4.308  17.751  0.00  0.00    +0.000 C 
ATOM     16  C   UNL     1       2.911   4.768  17.642  0.00  0.00    +0.000 A 
ATOM     17  C   UNL     1       3.252   6.111  17.836  0.00  0.00    +0.000 A 
ATOM     18  C   UNL     1       4.578   6.531  17.711  0.00  0.00    +0.000 A 
ATOM     19  C   UNL     1       5.584   5.615  17.382  0.00  0.00    +0.000 A 
ATOM     20  C   UNL     1       5.244   4.266  17.207  0.00  0.00    +0.000 A 
ATOM     21  C   UNL     1       3.918   3.848  17.331  0.00  0.00    +0.000 A 
ENDBRANCH  14  19
ENDBRANCH   1  14
TORSDOF 3
ENDMDL
MODEL 3
REMARK VINA RESULT:      -7.3      1.292      1.370
REMARK  Name = 
REMARK  5 active torsions:
REMARK  status: ('A' for Active; 'I' for Inactive)
REMARK    1  A    between atoms: C_1  and  C_2
REMARK    2  A    between atoms: C_5  and  C_6
REMARK    3  A    between atoms: C_6  and  N_7
REMARK    4  A    between atoms: N_10  and  C_11
REMARK    5  A    between atoms: C_14  and  C_15
REMARK                            x       y       z     vdW  Elec       q    Type
REMARK                         _______ _______ _______ _____ _____    ______ ____
ROOT
ATOM      1  N   UNL     1       6.798   7.625  17.100  0.00  0.00    +0.000 N 
ATOM      2  C   UNL     1       7.859   8.101  17.838  0.00  0.00    +0.000 C 
ATOM      3  O   UNL     1       8.481   7.370  18.601  0.00  0.00    +0.000 OA
ATOM      4  N   UNL     1       8.067   9.449  17.649  0.00  0.00    +0.000 N 
ATOM      5  H   UNL     1       6.633   8.060  16.205  0.00  0.00    +0.000 HD
ATOM      6  H   UNL     1       7.326   9.946  17.175  0.00  0.00    +0.000 HD
ENDROOT
BRANCH   4   7
ATOM      7  C   UNL     1       9.014  10.232  18.351  0.00  0.00    +0.000 A 
ATOM      8  C   UNL     1       9.020  10.349  19.743  0.00  0.00    +0.000 A 
ATOM      9  C   UNL     1       9.891  11.230  20.387  0.00  0.00    +0.000 A 
ATOM     10  C   UNL     1      10.792  12.000  19.649  0.00  0.00    +0.000 A 
ATOM     11  C   UNL     1      11.669  13.003  20.334  0.00  0.00    +0.000 C 
ATOM     12  C   UNL     1      10.837  11.837  18.260  0.00  0.00    +0.000 A 
ATOM     13  C   UNL     1       9.961  10.952  17.616  0.00  0.00    +0.000 A 
ENDBRANCH   4   7
BRANCH   1  14
ATOM     14  C   UNL     1       6.488   6.215  17.206  0.00  0.00    +0.000 C 
BRANCH  14  19
ATOM     15  C   UNL     1       1.666   5.387  20.350  0.00  0.00    +0.000 C 
ATOM     16  C   UNL     1       2.906   5.567  19.525  0.00  0.00    +0.000 A 
ATOM     17  C   UNL     1       4.061   4.826  19.791  0.00  0.00    +0.000 A 
ATOM     18  C   UNL     1       5.217   5.018  19.029  0.00  0.00    +0.000 A 
ATOM     19  C   UNL     1       5.236   5.961  17.995  0.00  0.00    +0.000 A 
ATOM     20  C   UNL     1       4.071   6.690  17.718  0.00  0.00    +0.000 A 
ATOM     21  C   UNL     1       2.918   6.498  18.481  0.00  0.00    +0.000 A 
ENDBRANCH  14  19
ENDBRANCH   1  14
TORSDOF 3
ENDMDL
MODEL 4
REMARK VINA RESULT:      -7.3      1.433      1.767
REMARK  Name = 
REMARK  5 active torsions:
REMARK  status: ('A' for Active; 'I' for Inactive)
REMARK    1  A    between atoms: C_1  and  C_2
REMARK    2  A    between atoms: C_5  and  C_6
REMARK    3  A    between atoms: C_6  and  N_7
REMARK    4  A    between atoms: N_10  and  C_11
REMARK    5  A    between atoms: C_14  and  C_15
REMARK                            x       y       z     vdW  Elec       q    Type
REMARK                         _______ _______ _______ _____ _____    ______ ____
ROOT
ATOM      1  N   UNL     1       7.931   7.258  18.066  0.00  0.00    +0.000 N 
ATOM      2  C   UNL     1       8.096   8.625  18.097  0.00  0.00    +0.000 C 
ATOM      3  O   UNL     1       7.511   9.353  17.301  0.00  0.00    +0.000 OA
ATOM      4  N   UNL     1       9.004   9.024  19.052  0.00  0.00    +0.000 N 
ATOM      5  H   UNL     1       8.016   6.769  18.945  0.00  0.00    +0.000 HD
ATOM      6  H   UNL     1       9.567   8.289  19.457  0.00  0.00    +0.000 HD
ENDROOT
BRANCH   4   7
ATOM      7  C   UNL     1       9.454  10.352  19.242  0.00  0.00    +0.000 A 
ATOM      8  C   UNL     1       9.954  11.140  18.204  0.00  0.00    +0.000 A 
ATOM      9  C   UNL     1      10.504  12.399  18.457  0.00  0.00    +0.000 A 
ATOM     10  C   UNL     1      10.545  12.905  19.757  0.00  0.00    +0.000 A 
ATOM     11  C   UNL     1      11.208  14.218  20.038  0.00  0.00    +0.000 C 
ATOM     12  C   UNL     1       9.984  12.148  20.792  0.00  0.00    +0.000 A 
ATOM     13  C   UNL     1       9.433  10.884  20.536  0.00  0.00    +0.000 A 
ENDBRANCH   4   7
BRANCH   1  14
ATOM     14  C   UNL     1       6.991   6.718  17.109  0.00  0.00    +0.000 C 
BRANCH  14  19
ATOM     15  C   UNL     1       2.056   5.057  19.699  0.00  0.00    +0.000 C 
ATOM     16  C   UNL     1       3.332   5.452  19.018  0.00  0.00    +0.000 A 
ATOM     17  C   UNL     1       4.562   4.934  19.436  0.00  0.00    +0.000 A 
ATOM     18  C   UNL     1       5.747   5.325  18.808  0.00  0.00    +0.000 A 
ATOM     19  C   UNL     1       5.720   6.248  17.756  0.00  0.00    +0.000 A 
ATOM     20  C   UNL     1       4.485   6.752  17.325  0.00  0.00    +0.000 A 
ATOM     21  C   UNL     1       3.302   6.361  17.955  0.00  0.00    +0.000 A 
ENDBRANCH  14  19
ENDBRANCH   1  14
TORSDOF 3
ENDMDL
MODEL 5
REMARK VINA RESULT:      -7.2      5.572      6.873
REMARK  Name = 
REMARK  5 active torsions:
REMARK  status: ('A' for Active; 'I' for Inactive)
REMARK    1  A    between atoms: C_1  and  C_2
REMARK    2  A    between atoms: C_5  and  C_6
REMARK    3  A    between atoms: C_6  and  N_7
REMARK    4  A    between atoms: N_10  and  C_11
REMARK    5  A    between atoms: C_14  and  C_15
REMARK                            x       y       z     vdW  Elec       q    Type
REMARK                         _______ _______ _______ _____ _____    ______ ____
ROOT
ATOM      1  N   UNL     1       3.902   5.351  19.880  0.00  0.00    +0.000 N 
ATOM      2  C   UNL     1       2.794   6.084  19.515  0.00  0.00    +0.000 C 
ATOM      3  O   UNL     1       2.049   5.706  18.618  0.00  0.00    +0.000 OA
ATOM      4  N   UNL     1       2.687   7.261  20.222  0.00  0.00    +0.000 N 
ATOM      5  H   UNL     1       4.190   5.411  20.845  0.00  0.00    +0.000 HD
ATOM      6  H   UNL     1       3.504   7.532  20.752  0.00  0.00    +0.000 HD
ENDROOT
BRANCH   4   7
ATOM      7  C   UNL     1       1.715   8.263  19.991  0.00  0.00    +0.000 A 
ATOM      8  C   UNL     1       0.784   8.655  20.955  0.00  0.00    +0.000 A 
ATOM      9  C   UNL     1      -0.237   9.556  20.645  0.00  0.00    +0.000 A 
ATOM     10  C   UNL     1      -0.335  10.101  19.364  0.00  0.00    +0.000 A 
ATOM     11  C   UNL     1      -1.478  11.003  19.010  0.00  0.00    +0.000 C 
ATOM     12  C   UNL     1       0.635   9.764  18.413  0.00  0.00    +0.000 A 
ATOM     13  C   UNL     1       1.659   8.859  18.726  0.00  0.00    +0.000 A 
ENDBRANCH   4   7
BRANCH   1  14
ATOM     14  C   UNL     1       4.115   4.085  19.213  0.00  0.00    +0.000 C 
BRANCH  14  19
ATOM     15  C   UNL     1       7.294   4.809  14.398  0.00  0.00    +0.000 C 
ATOM     16  C   UNL     1       6.472   4.587  15.633  0.00  0.00    +0.000 A 
ATOM     17  C   UNL     1       5.129   4.207  15.545  0.00  0.00    +0.000 A 
ATOM     18  C   UNL     1       4.368   4.023  16.702  0.00  0.00    +0.000 A 
ATOM     19  C   UNL     1       4.937   4.226  17.965  0.00  0.00    +0.000 A 
ATOM     20  C   UNL     1       6.288   4.587  18.051  0.00  0.00    +0.000 A 
ATOM     21  C   UNL     1       7.048   4.772  16.894  0.00  0.00    +0.000 A 
ENDBRANCH  14  19
ENDBRANCH   1  14
TORSDOF 3
ENDMDL
MODEL 6
REMARK VINA RESULT:      -7.2      5.595      6.968
REMARK  Name = 
REMARK  5 active torsions:
REMARK  status: ('A' for Active; 'I' for Inactive)
REMARK    1  A    between atoms: C_1  and  C_2
REMARK    2  A    between atoms: C_5  and  C_6
REMARK    3  A    between atoms: C_6  and  N_7
REMARK    4  A    between atoms: N_10  and  C_11
REMARK    5  A    between atoms: C_14  and  C_15
REMARK                            x       y       z     vdW  Elec       q    Type
REMARK                         _______ _______ _______ _____ _____    ______ ____
ROOT
ATOM      1  N   UNL     1       3.689   5.201  20.124  0.00  0.00    +0.000 N 
ATOM      2  C   UNL     1       2.606   5.953  19.724  0.00  0.00    +0.000 C 
ATOM      3  O   UNL     1       1.904   5.604  18.781  0.00  0.00    +0.000 OA
ATOM      4  N   UNL     1       2.473   7.112  20.455  0.00  0.00    +0.000 N 
ATOM      5  H   UNL     1       3.930   5.234  21.102  0.00  0.00    +0.000 HD
ATOM      6  H   UNL     1       3.264   7.362  21.031  0.00  0.00    +0.000 HD
ENDROOT
BRANCH   4   7
ATOM      7  C   UNL     1       1.521   8.128  20.202  0.00  0.00    +0.000 A 
ATOM      8  C   UNL     1       1.533   8.910  19.045  0.00  0.00    +0.000 A 
ATOM      9  C   UNL     1       0.654   9.984  18.892  0.00  0.00    +0.000 A 
ATOM     10  C   UNL     1      -0.274  10.285  19.891  0.00  0.00    +0.000 A 
ATOM     11  C   UNL     1      -1.161  11.486  19.762  0.00  0.00    +0.000 C 
ATOM     12  C   UNL     1      -0.337   9.464  21.022  0.00  0.00    +0.000 A 
ATOM     13  C   UNL     1       0.548   8.387  21.173  0.00  0.00    +0.000 A 
ENDBRANCH   4   7
BRANCH   1  14
ATOM     14  C   UNL     1       3.926   3.951  19.436  0.00  0.00    +0.000 C 
BRANCH  14  19
ATOM     15  C   UNL     1       7.195   4.796  14.701  0.00  0.00    +0.000 C 
ATOM     16  C   UNL     1       6.353   4.542  15.916  0.00  0.00    +0.000 A 
ATOM     17  C   UNL     1       5.045   4.060  15.798  0.00  0.00    +0.000 A 
ATOM     18  C   UNL     1       4.263   3.848  16.936  0.00  0.00    +0.000 A 
ATOM     19  C   UNL     1       4.775   4.123  18.210  0.00  0.00    +0.000 A 
ATOM     20  C   UNL     1       6.092   4.588  18.327  0.00  0.00    +0.000 A 
ATOM     21  C   UNL     1       6.872   4.801  17.189  0.00  0.00    +0.000 A 
ENDBRANCH  14  19
ENDBRANCH   1  14
TORSDOF 3
ENDMDL
MODEL 7
REMARK VINA RESULT:      -7.1      5.530      6.894
REMARK  Name = 
REMARK  5 active torsions:
REMARK  status: ('A' for Active; 'I' for Inactive)
REMARK    1  A    between atoms: C_1  and  C_2
REMARK    2  A    between atoms: C_5  and  C_6
REMARK    3  A    between atoms: C_6  and  N_7
REMARK    4  A    between atoms: N_10  and  C_11
REMARK    5  A    between atoms: C_14  and  C_15
REMARK                            x       y       z     vdW  Elec       q    Type
REMARK                         _______ _______ _______ _____ _____    ______ ____
ROOT
ATOM      1  N   UNL     1       3.877   5.333  19.889  0.00  0.00    +0.000 N 
ATOM      2  C   UNL     1       2.789   6.087  19.507  0.00  0.00    +0.000 C 
ATOM      3  O   UNL     1       2.088   5.755  18.557  0.00  0.00    +0.000 OA
ATOM      4  N   UNL     1       2.650   7.229  20.265  0.00  0.00    +0.000 N 
ATOM      5  H   UNL     1       4.119   5.345  20.868  0.00  0.00    +0.000 HD
ATOM      6  H   UNL     1       3.440   7.470  20.846  0.00  0.00    +0.000 HD
ENDROOT
BRANCH   4   7
ATOM      7  C   UNL     1       1.691   8.244  20.036  0.00  0.00    +0.000 A 
ATOM      8  C   UNL     1       0.731   8.609  20.981  0.00  0.00    +0.000 A 
ATOM      9  C   UNL     1      -0.275   9.526  20.669  0.00  0.00    +0.000 A 
ATOM     10  C   UNL     1      -0.327  10.115  19.404  0.00  0.00    +0.000 A 
ATOM     11  C   UNL     1      -1.453  11.035  19.044  0.00  0.00    +0.000 C 
ATOM     12  C   UNL     1       0.671   9.804  18.475  0.00  0.00    +0.000 A 
ATOM     13  C   UNL     1       1.680   8.883  18.791  0.00  0.00    +0.000 A 
ENDBRANCH   4   7
BRANCH   1  14
ATOM     14  C   UNL     1       4.121   4.100  19.173  0.00  0.00    +0.000 C 
BRANCH  14  19
ATOM     15  C   UNL     1       7.294   4.738  14.341  0.00  0.00    +0.000 C 
ATOM     16  C   UNL     1       6.477   4.610  15.592  0.00  0.00    +0.000 A 
ATOM     17  C   UNL     1       7.037   4.868  16.848  0.00  0.00    +0.000 A 
ATOM     18  C   UNL     1       6.272   4.724  18.008  0.00  0.00    +0.000 A 
ATOM     19  C   UNL     1       4.937   4.311  17.930  0.00  0.00    +0.000 A 
ATOM     20  C   UNL     1       4.372   4.071  16.670  0.00  0.00    +0.000 A 
ATOM     21  C   UNL     1       5.138   4.214  15.511  0.00  0.00    +0.000 A 
ENDBRANCH  14  19
ENDBRANCH   1  14
TORSDOF 3
ENDMDL
MODEL 8
REMARK VINA RESULT:      -7.1      5.570      6.860
REMARK  Name = 
REMARK  5 active torsions:
REMARK  status: ('A' for Active; 'I' for Inactive)
REMARK    1  A    between atoms: C_1  and  C_2
REMARK    2  A    between atoms: C_5  and  C_6
REMARK    3  A    between atoms: C_6  and  N_7
REMARK    4  A    between atoms: N_10  and  C_11
REMARK    5  A    between atoms: C_14  and  C_15
REMARK                            x       y       z     vdW  Elec       q    Type
REMARK                         _______ _______ _______ _____ _____    ______ ____
ROOT
ATOM      1  N   UNL     1       4.119   5.018  19.505  0.00  0.00    +0.000 N 
ATOM      2  C   UNL     1       2.999   5.774  19.240  0.00  0.00    +0.000 C 
ATOM      3  O   UNL     1       2.265   5.512  18.293  0.00  0.00    +0.000 OA
ATOM      4  N   UNL     1       2.868   6.838  20.104  0.00  0.00    +0.000 N 
ATOM      5  H   UNL     1       4.403   4.946  20.470  0.00  0.00    +0.000 HD
ATOM      6  H   UNL     1       3.677   7.046  20.672  0.00  0.00    +0.000 HD
ENDROOT
BRANCH   4   7
ATOM      7  C   UNL     1       1.877   7.844  20.010  0.00  0.00    +0.000 A 
ATOM      8  C   UNL     1       1.749   8.682  18.900  0.00  0.00    +0.000 A 
ATOM      9  C   UNL     1       0.841   9.743  18.901  0.00  0.00    +0.000 A 
ATOM     10  C   UNL     1       0.025   9.975  20.010  0.00  0.00    +0.000 A 
ATOM     11  C   UNL     1      -0.889  11.162  20.042  0.00  0.00    +0.000 C 
ATOM     12  C   UNL     1       0.101   9.099  21.098  0.00  0.00    +0.000 A 
ATOM     13  C   UNL     1       1.014   8.035  21.095  0.00  0.00    +0.000 A 
ENDBRANCH   4   7
BRANCH   1  14
ATOM     14  C   UNL     1       4.359   3.862  18.668  0.00  0.00    +0.000 C 
BRANCH  14  19
ATOM     15  C   UNL     1       7.472   4.984  13.886  0.00  0.00    +0.000 C 
ATOM     16  C   UNL     1       6.672   4.730  15.129  0.00  0.00    +0.000 A 
ATOM     17  C   UNL     1       7.256   4.831  16.395  0.00  0.00    +0.000 A 
ATOM     18  C   UNL     1       6.506   4.570  17.545  0.00  0.00    +0.000 A 
ATOM     19  C   UNL     1       5.160   4.197  17.444  0.00  0.00    +0.000 A 
ATOM     20  C   UNL     1       4.571   4.115  16.174  0.00  0.00    +0.000 A 
ATOM     21  C   UNL     1       5.323   4.374  15.027  0.00  0.00    +0.000 A 
ENDBRANCH  14  19
ENDBRANCH   1  14
TORSDOF 3
ENDMDL
MODEL 9
REMARK VINA RESULT:      -7.1      1.366      8.342
REMARK  Name = 
REMARK  5 active torsions:
REMARK  status: ('A' for Active; 'I' for Inactive)
REMARK    1  A    between atoms: C_1  and  C_2
REMARK    2  A    between atoms: C_5  and  C_6
REMARK    3  A    between atoms: C_6  and  N_7
REMARK    4  A    between atoms: N_10  and  C_11
REMARK    5  A    between atoms: C_14  and  C_15
REMARK                            x       y       z     vdW  Elec       q    Type
REMARK                         _______ _______ _______ _____ _____    ______ ____
ROOT
ATOM      1  N   UNL     1       8.194   8.167  18.204  0.00  0.00    +0.000 N 
ATOM      2  C   UNL     1       7.217   7.339  17.695  0.00  0.00    +0.000 C 
ATOM      3  O   UNL     1       6.566   7.659  16.707  0.00  0.00    +0.000 OA
ATOM      4  N   UNL     1       7.050   6.200  18.451  0.00  0.00    +0.000 N 
ATOM      5  H   UNL     1       8.975   7.723  18.661  0.00  0.00    +0.000 HD
ATOM      6  H   UNL     1       7.497   6.203  19.356  0.00  0.00    +0.000 HD
ENDROOT
BRANCH   4   7
ATOM      7  C   UNL     1       6.051   5.221  18.234  0.00  0.00    +0.000 A 
ATOM      8  C   UNL     1       5.926   4.516  17.035  0.00  0.00    +0.000 A 
ATOM      9  C   UNL     1       4.852   3.651  16.818  0.00  0.00    +0.000 A 
ATOM     10  C   UNL     1       3.887   3.458  17.808  0.00  0.00    +0.000 A 
ATOM     11  C   UNL     1       2.692   2.595  17.543  0.00  0.00    +0.000 C 
ATOM     12  C   UNL     1       4.043   4.111  19.036  0.00  0.00    +0.000 A 
ATOM     13  C   UNL     1       5.122   4.979  19.252  0.00  0.00    +0.000 A 
ENDBRANCH   4   7
BRANCH   1  14
ATOM     14  C   UNL     1       8.471   9.394  17.488  0.00  0.00    +0.000 C 
BRANCH  14  19
ATOM     15  C   UNL     1      10.189  13.631  21.082  0.00  0.00    +0.000 C 
ATOM     16  C   UNL     1       9.776  12.543  20.135  0.00  0.00    +0.000 A 
ATOM     17  C   UNL     1       9.435  12.832  18.810  0.00  0.00    +0.000 A 
ATOM     18  C   UNL     1       9.032  11.813  17.944  0.00  0.00    +0.000 A 
ATOM     19  C   UNL     1       8.955  10.489  18.393  0.00  0.00    +0.000 A 
ATOM     20  C   UNL     1       9.316  10.198  19.716  0.00  0.00    +0.000 A 
ATOM     21  C   UNL     1       9.718  11.218  20.581  0.00  0.00    +0.000 A 
ENDBRANCH  14  19
ENDBRANCH   1  14
TORSDOF 3
ENDMDL
