MODEL 1
REMARK VINA RESULT:      -6.4      0.000      0.000
REMARK  Name = 
REMARK  7 active torsions:
REMARK  status: ('A' for Active; 'I' for Inactive)
REMARK    1  A    between atoms: C_1  and  S_2
REMARK    2  A    between atoms: S_2  and  N_5
REMARK    3  A    between atoms: N_5  and  C_6
REMARK    4  A    between atoms: C_9  and  C_10
REMARK    5  A    between atoms: C_10  and  C_24
REMARK    6  A    between atoms: C_11  and  C_12
REMARK    7  A    between atoms: C_11  and  C_18
REMARK                            x       y       z     vdW  Elec       q    Type
REMARK                         _______ _______ _______ _____ _____    ______ ____
ROOT
ATOM      1  C   UNL     1      -0.298  12.221  20.355  0.00  0.00    +0.000 C 
ATOM      2  C   UNL     1       0.525  13.237  19.931  0.00  0.00    +0.000 C 
ENDROOT
BRANCH   1   6
ATOM      3  C   UNL     1      -4.015  13.307  22.211  0.00  0.00    +0.000 A 
ATOM      4  C   UNL     1      -3.989  13.055  20.833  0.00  0.00    +0.000 A 
ATOM      5  C   UNL     1      -2.789  12.669  20.212  0.00  0.00    +0.000 A 
ATOM      6  C   UNL     1      -1.622  12.533  20.963  0.00  0.00    +0.000 A 
ATOM      7  C   UNL     1      -1.688  12.707  22.359  0.00  0.00    +0.000 A 
ATOM      8  C   UNL     1      -2.876  13.088  22.979  0.00  0.00    +0.000 A 
BRANCH   3   9
ATOM      9  N   UNL     1      -5.200  13.804  22.830  0.00  0.00    +0.000 N 
ATOM     10  H   UNL     1      -5.731  14.463  22.261  0.00  0.00    +0.000 HD
BRANCH   9  12
ATOM     11  C   UNL     1      -7.519  13.791  24.200  0.00  0.00    +0.000 C 
ATOM     12  S   UNL     1      -6.257  12.708  23.538  0.00  0.00    +0.000 S 
ATOM     13  O   UNL     1      -5.618  12.007  24.625  0.00  0.00    +0.000 OA
ATOM     14  O   UNL     1      -6.856  11.988  22.432  0.00  0.00    +0.000 OA
ENDBRANCH   9  12
ENDBRANCH   3   9
ENDBRANCH   1   6
BRANCH   2  15
ATOM     15  C   UNL     1       0.075  14.652  19.818  0.00  0.00    +0.000 A 
ATOM     16  C   UNL     1      -0.022  15.459  20.955  0.00  0.00    +0.000 A 
ATOM     17  C   UNL     1      -0.245  16.834  20.848  0.00  0.00    +0.000 A 
ATOM     18  C   UNL     1      -0.450  17.408  19.598  0.00  0.00    +0.000 A 
ATOM     19  C   UNL     1      -0.456  16.601  18.460  0.00  0.00    +0.000 A 
ATOM     20  C   UNL     1      -0.192  15.228  18.570  0.00  0.00    +0.000 A 
ENDBRANCH   2  15
BRANCH   2  21
ATOM     21  C   UNL     1       2.053  13.021  19.731  0.00  0.00    +0.000 C 
ATOM     22  C   UNL     1       2.743  13.270  18.364  0.00  0.00    +0.000 C 
ATOM     23  C   UNL     1       3.518  14.579  18.188  0.00  0.00    +0.000 C 
ATOM     24  C   UNL     1       4.297  15.008  19.424  0.00  0.00    +0.000 C 
ATOM     25  C   UNL     1       3.381  15.057  20.624  0.00  0.00    +0.000 C 
ATOM     26  C   UNL     1       2.809  13.679  20.910  0.00  0.00    +0.000 C 
ENDBRANCH   2  21
BRANCH   1  27
ATOM     27  C   UNL     1       0.231  10.820  20.392  0.00  0.00    +0.000 A 
ATOM     28  C   UNL     1       0.485  10.168  21.610  0.00  0.00    +0.000 A 
ATOM     29  C   UNL     1       1.169   8.950  21.641  0.00  0.00    +0.000 A 
ATOM     30  C   UNL     1       1.562   8.341  20.452  0.00  0.00    +0.000 A 
ATOM     31  C   UNL     1       1.255   8.942  19.232  0.00  0.00    +0.000 A 
ATOM     32  C   UNL     1       0.596  10.176  19.201  0.00  0.00    +0.000 A 
ENDBRANCH   1  27
TORSDOF 6
ENDMDL
MODEL 2
REMARK VINA RESULT:      -6.3      0.809      1.540
REMARK  Name = 
REMARK  7 active torsions:
REMARK  status: ('A' for Active; 'I' for Inactive)
REMARK    1  A    between atoms: C_1  and  S_2
REMARK    2  A    between atoms: S_2  and  N_5
REMARK    3  A    between atoms: N_5  and  C_6
REMARK    4  A    between atoms: C_9  and  C_10
REMARK    5  A    between atoms: C_10  and  C_24
REMARK    6  A    between atoms: C_11  and  C_12
REMARK    7  A    between atoms: C_11  and  C_18
REMARK                            x       y       z     vdW  Elec       q    Type
REMARK                         _______ _______ _______ _____ _____    ______ ____
ROOT
ATOM      1  C   UNL     1       0.021  12.369  20.099  0.00  0.00    +0.000 C 
ATOM      2  C   UNL     1       0.749  13.492  19.786  0.00  0.00    +0.000 C 
ENDROOT
BRANCH   1   6
ATOM      3  C   UNL     1      -3.923  12.564  21.787  0.00  0.00    +0.000 A 
ATOM      4  C   UNL     1      -2.817  12.496  22.645  0.00  0.00    +0.000 A 
ATOM      5  C   UNL     1      -1.517  12.462  22.113  0.00  0.00    +0.000 A 
ATOM      6  C   UNL     1      -1.321  12.498  20.732  0.00  0.00    +0.000 A 
ATOM      7  C   UNL     1      -2.440  12.652  19.892  0.00  0.00    +0.000 A 
ATOM      8  C   UNL     1      -3.732  12.687  20.415  0.00  0.00    +0.000 A 
BRANCH   3   9
ATOM      9  N   UNL     1      -5.247  12.488  22.312  0.00  0.00    +0.000 N 
ATOM     10  H   UNL     1      -5.689  11.574  22.217  0.00  0.00    +0.000 HD
BRANCH   9  12
ATOM     11  C   UNL     1      -7.323  13.084  23.921  0.00  0.00    +0.000 C 
ATOM     12  S   UNL     1      -5.535  13.083  23.855  0.00  0.00    +0.000 S 
ATOM     13  O   UNL     1      -5.057  14.439  23.980  0.00  0.00    +0.000 OA
ATOM     14  O   UNL     1      -5.079  12.043  24.756  0.00  0.00    +0.000 OA
ENDBRANCH   9  12
ENDBRANCH   3   9
ENDBRANCH   1   6
BRANCH   2  15
ATOM     15  C   UNL     1       0.176  14.866  19.819  0.00  0.00    +0.000 A 
ATOM     16  C   UNL     1       0.121  15.584  21.018  0.00  0.00    +0.000 A 
ATOM     17  C   UNL     1      -0.224  16.938  21.033  0.00  0.00    +0.000 A 
ATOM     18  C   UNL     1      -0.592  17.573  19.853  0.00  0.00    +0.000 A 
ATOM     19  C   UNL     1      -0.641  16.846  18.663  0.00  0.00    +0.000 A 
ATOM     20  C   UNL     1      -0.256  15.499  18.646  0.00  0.00    +0.000 A 
ENDBRANCH   2  15
BRANCH   2  21
ATOM     21  C   UNL     1       2.289  13.434  19.569  0.00  0.00    +0.000 C 
ATOM     22  C   UNL     1       2.979  14.175  18.395  0.00  0.00    +0.000 C 
ATOM     23  C   UNL     1       3.682  15.500  18.706  0.00  0.00    +0.000 C 
ATOM     24  C   UNL     1       4.422  15.510  20.038  0.00  0.00    +0.000 C 
ATOM     25  C   UNL     1       3.491  15.095  21.152  0.00  0.00    +0.000 C 
ATOM     26  C   UNL     1       2.994  13.677  20.926  0.00  0.00    +0.000 C 
ENDBRANCH   2  21
BRANCH   1  27
ATOM     27  C   UNL     1       0.671  11.024  19.992  0.00  0.00    +0.000 A 
ATOM     28  C   UNL     1       1.038  10.489  18.746  0.00  0.00    +0.000 A 
ATOM     29  C   UNL     1       1.449   9.158  18.631  0.00  0.00    +0.000 A 
ATOM     30  C   UNL     1       1.548   8.359  19.767  0.00  0.00    +0.000 A 
ATOM     31  C   UNL     1       1.255   8.897  21.020  0.00  0.00    +0.000 A 
ATOM     32  C   UNL     1       0.815  10.221  21.132  0.00  0.00    +0.000 A 
ENDBRANCH   1  27
TORSDOF 6
ENDMDL
MODEL 3
REMARK VINA RESULT:      -6.3      0.943      1.318
REMARK  Name = 
REMARK  7 active torsions:
REMARK  status: ('A' for Active; 'I' for Inactive)
REMARK    1  A    between atoms: C_1  and  S_2
REMARK    2  A    between atoms: S_2  and  N_5
REMARK    3  A    between atoms: N_5  and  C_6
REMARK    4  A    between atoms: C_9  and  C_10
REMARK    5  A    between atoms: C_10  and  C_24
REMARK    6  A    between atoms: C_11  and  C_12
REMARK    7  A    between atoms: C_11  and  C_18
REMARK                            x       y       z     vdW  Elec       q    Type
REMARK                         _______ _______ _______ _____ _____    ______ ____
ROOT
ATOM      1  C   UNL     1      -0.245  12.109  20.081  0.00  0.00    +0.000 C 
ATOM      2  C   UNL     1       0.575  13.194  19.888  0.00  0.00    +0.000 C 
ENDROOT
BRANCH   1   6
ATOM      3  C   UNL     1      -4.053  12.773  21.953  0.00  0.00    +0.000 A 
ATOM      4  C   UNL     1      -3.937  12.933  20.566  0.00  0.00    +0.000 A 
ATOM      5  C   UNL     1      -2.708  12.691  19.931  0.00  0.00    +0.000 A 
ATOM      6  C   UNL     1      -1.599  12.289  20.676  0.00  0.00    +0.000 A 
ATOM      7  C   UNL     1      -1.757  12.052  22.054  0.00  0.00    +0.000 A 
ATOM      8  C   UNL     1      -2.975  12.289  22.688  0.00  0.00    +0.000 A 
BRANCH   3   9
ATOM      9  N   UNL     1      -5.264  13.121  22.621  0.00  0.00    +0.000 N 
ATOM     10  H   UNL     1      -5.332  14.102  22.892  0.00  0.00    +0.000 HD
BRANCH   9  12
ATOM     11  C   UNL     1      -7.743  12.411  23.399  0.00  0.00    +0.000 C 
ATOM     12  S   UNL     1      -6.722  12.632  21.946  0.00  0.00    +0.000 S 
ATOM     13  O   UNL     1      -6.577  11.364  21.274  0.00  0.00    +0.000 OA
ATOM     14  O   UNL     1      -7.228  13.796  21.247  0.00  0.00    +0.000 OA
ENDBRANCH   9  12
ENDBRANCH   3   9
ENDBRANCH   1   6
BRANCH   2  15
ATOM     15  C   UNL     1       0.104  14.601  20.015  0.00  0.00    +0.000 A 
ATOM     16  C   UNL     1      -0.133  15.377  18.876  0.00  0.00    +0.000 A 
ATOM     17  C   UNL     1      -0.763  16.620  18.968  0.00  0.00    +0.000 A 
ATOM     18  C   UNL     1      -1.096  17.138  20.214  0.00  0.00    +0.000 A 
ATOM     19  C   UNL     1      -0.776  16.423  21.368  0.00  0.00    +0.000 A 
ATOM     20  C   UNL     1      -0.180  15.158  21.268  0.00  0.00    +0.000 A 
ENDBRANCH   2  15
BRANCH   2  21
ATOM     21  C   UNL     1       2.115  13.036  19.721  0.00  0.00    +0.000 C 
ATOM     22  C   UNL     1       2.815  13.237  18.352  0.00  0.00    +0.000 C 
ATOM     23  C   UNL     1       3.535  14.567  18.110  0.00  0.00    +0.000 C 
ATOM     24  C   UNL     1       4.274  15.101  19.330  0.00  0.00    +0.000 C 
ATOM     25  C   UNL     1       3.338  15.177  20.512  0.00  0.00    +0.000 C 
ATOM     26  C   UNL     1       2.823  13.794  20.870  0.00  0.00    +0.000 C 
ENDBRANCH   2  21
BRANCH   1  27
ATOM     27  C   UNL     1       0.308  10.731  19.885  0.00  0.00    +0.000 A 
ATOM     28  C   UNL     1       0.648   9.919  20.980  0.00  0.00    +0.000 A 
ATOM     29  C   UNL     1       1.353   8.726  20.796  0.00  0.00    +0.000 A 
ATOM     30  C   UNL     1       1.682   8.304  19.510  0.00  0.00    +0.000 A 
ATOM     31  C   UNL     1       1.290   9.064  18.409  0.00  0.00    +0.000 A 
ATOM     32  C   UNL     1       0.610  10.273  18.595  0.00  0.00    +0.000 A 
ENDBRANCH   1  27
TORSDOF 6
ENDMDL
MODEL 4
REMARK VINA RESULT:      -6.2      3.940      7.038
REMARK  Name = 
REMARK  7 active torsions:
REMARK  status: ('A' for Active; 'I' for Inactive)
REMARK    1  A    between atoms: C_1  and  S_2
REMARK    2  A    between atoms: S_2  and  N_5
REMARK    3  A    between atoms: N_5  and  C_6
REMARK    4  A    between atoms: C_9  and  C_10
REMARK    5  A    between atoms: C_10  and  C_24
REMARK    6  A    between atoms: C_11  and  C_12
REMARK    7  A    between atoms: C_11  and  C_18
REMARK                            x       y       z     vdW  Elec       q    Type
REMARK                         _______ _______ _______ _____ _____    ______ ____
ROOT
ATOM      1  C   UNL     1      -2.723  11.885  19.311  0.00  0.00    +0.000 C 
ATOM      2  C   UNL     1      -3.749  12.365  20.089  0.00  0.00    +0.000 C 
ENDROOT
BRANCH   1   6
ATOM      3  C   UNL     1       1.269  13.173  20.231  0.00  0.00    +0.000 A 
ATOM      4  C   UNL     1       0.751  12.041  20.876  0.00  0.00    +0.000 A 
ATOM      5  C   UNL     1      -0.542  11.586  20.567  0.00  0.00    +0.000 A 
ATOM      6  C   UNL     1      -1.313  12.255  19.617  0.00  0.00    +0.000 A 
ATOM      7  C   UNL     1      -0.744  13.337  18.919  0.00  0.00    +0.000 A 
ATOM      8  C   UNL     1       0.538  13.791  19.221  0.00  0.00    +0.000 A 
BRANCH   3   9
ATOM      9  N   UNL     1       2.533  13.706  20.616  0.00  0.00    +0.000 N 
ATOM     10  H   UNL     1       3.125  13.998  19.839  0.00  0.00    +0.000 HD
BRANCH   9  12
ATOM     11  C   UNL     1       2.863  16.369  20.861  0.00  0.00    +0.000 C 
ATOM     12  S   UNL     1       2.579  14.881  21.815  0.00  0.00    +0.000 S 
ATOM     13  O   UNL     1       3.697  14.668  22.701  0.00  0.00    +0.000 OA
ATOM     14  O   UNL     1       1.224  14.958  22.325  0.00  0.00    +0.000 OA
ENDBRANCH   9  12
ENDBRANCH   3   9
ENDBRANCH   1   6
BRANCH   2  15
ATOM     15  C   UNL     1      -3.527  13.056  21.389  0.00  0.00    +0.000 A 
ATOM     16  C   UNL     1      -3.791  12.401  22.596  0.00  0.00    +0.000 A 
ATOM     17  C   UNL     1      -3.401  12.954  23.818  0.00  0.00    +0.000 A 
ATOM     18  C   UNL     1      -2.807  14.211  23.852  0.00  0.00    +0.000 A 
ATOM     19  C   UNL     1      -2.628  14.923  22.666  0.00  0.00    +0.000 A 
ATOM     20  C   UNL     1      -2.984  14.346  21.439  0.00  0.00    +0.000 A 
ENDBRANCH   2  15
BRANCH   2  21
ATOM     21  C   UNL     1      -5.217  12.406  19.572  0.00  0.00    +0.000 C 
ATOM     22  C   UNL     1      -6.288  11.402  20.070  0.00  0.00    +0.000 C 
ATOM     23  C   UNL     1      -7.285  11.891  21.125  0.00  0.00    +0.000 C 
ATOM     24  C   UNL     1      -7.751  13.326  20.918  0.00  0.00    +0.000 C 
ATOM     25  C   UNL     1      -6.560  14.248  20.803  0.00  0.00    +0.000 C 
ATOM     26  C   UNL     1      -5.714  13.872  19.598  0.00  0.00    +0.000 C 
ENDBRANCH   2  21
BRANCH   1  27
ATOM     27  C   UNL     1      -3.048  11.161  18.040  0.00  0.00    +0.000 A 
ATOM     28  C   UNL     1      -2.346  10.007  17.658  0.00  0.00    +0.000 A 
ATOM     29  C   UNL     1      -2.506   9.458  16.383  0.00  0.00    +0.000 A 
ATOM     30  C   UNL     1      -3.411  10.028  15.489  0.00  0.00    +0.000 A 
ATOM     31  C   UNL     1      -4.167  11.132  15.879  0.00  0.00    +0.000 A 
ATOM     32  C   UNL     1      -3.984  11.699  17.145  0.00  0.00    +0.000 A 
ENDBRANCH   1  27
TORSDOF 6
ENDMDL
MODEL 5
REMARK VINA RESULT:      -6.2      3.355      6.285
REMARK  Name = 
REMARK  7 active torsions:
REMARK  status: ('A' for Active; 'I' for Inactive)
REMARK    1  A    between atoms: C_1  and  S_2
REMARK    2  A    between atoms: S_2  and  N_5
REMARK    3  A    between atoms: N_5  and  C_6
REMARK    4  A    between atoms: C_9  and  C_10
REMARK    5  A    between atoms: C_10  and  C_24
REMARK    6  A    between atoms: C_11  and  C_12
REMARK    7  A    between atoms: C_11  and  C_18
REMARK                            x       y       z     vdW  Elec       q    Type
REMARK                         _______ _______ _______ _____ _____    ______ ____
ROOT
ATOM      1  C   UNL     1      -3.628  12.724  20.038  0.00  0.00    +0.000 C 
ATOM      2  C   UNL     1      -2.981  11.981  19.079  0.00  0.00    +0.000 C 
ENDROOT
BRANCH   1   6
ATOM      3  C   UNL     1      -1.589  14.487  23.380  0.00  0.00    +0.000 A 
ATOM      4  C   UNL     1      -2.056  13.170  23.484  0.00  0.00    +0.000 A 
ATOM      5  C   UNL     1      -2.699  12.565  22.391  0.00  0.00    +0.000 A 
ATOM      6  C   UNL     1      -2.873  13.269  21.200  0.00  0.00    +0.000 A 
ATOM      7  C   UNL     1      -2.321  14.560  21.088  0.00  0.00    +0.000 A 
ATOM      8  C   UNL     1      -1.681  15.164  22.168  0.00  0.00    +0.000 A 
BRANCH   3   9
ATOM      9  N   UNL     1      -1.034  15.146  24.517  0.00  0.00    +0.000 N 
ATOM     10  H   UNL     1      -0.044  15.376  24.433  0.00  0.00    +0.000 HD
BRANCH   9  12
ATOM     11  C   UNL     1      -3.559  15.934  25.030  0.00  0.00    +0.000 C 
ATOM     12  S   UNL     1      -1.854  16.462  25.161  0.00  0.00    +0.000 S 
ATOM     13  O   UNL     1      -1.660  17.637  24.346  0.00  0.00    +0.000 OA
ATOM     14  O   UNL     1      -1.520  16.466  26.571  0.00  0.00    +0.000 OA
ENDBRANCH   9  12
ENDBRANCH   3   9
ENDBRANCH   1   6
BRANCH   2  15
ATOM     15  C   UNL     1      -1.498  11.879  18.996  0.00  0.00    +0.000 A 
ATOM     16  C   UNL     1      -0.766  12.788  18.226  0.00  0.00    +0.000 A 
ATOM     17  C   UNL     1       0.629  12.834  18.295  0.00  0.00    +0.000 A 
ATOM     18  C   UNL     1       1.315  11.915  19.082  0.00  0.00    +0.000 A 
ATOM     19  C   UNL     1       0.605  10.936  19.778  0.00  0.00    +0.000 A 
ATOM     20  C   UNL     1      -0.796  10.920  19.736  0.00  0.00    +0.000 A 
ENDBRANCH   2  15
BRANCH   2  21
ATOM     21  C   UNL     1      -3.754  11.021  18.129  0.00  0.00    +0.000 C 
ATOM     22  C   UNL     1      -4.414  11.522  16.818  0.00  0.00    +0.000 C 
ATOM     23  C   UNL     1      -3.676  11.252  15.503  0.00  0.00    +0.000 C 
ATOM     24  C   UNL     1      -3.003   9.886  15.441  0.00  0.00    +0.000 C 
ATOM     25  C   UNL     1      -2.102   9.696  16.638  0.00  0.00    +0.000 C 
ATOM     26  C   UNL     1      -2.913   9.738  17.922  0.00  0.00    +0.000 C 
ENDBRANCH   2  21
BRANCH   1  27
ATOM     27  C   UNL     1      -5.124  12.804  20.013  0.00  0.00    +0.000 A 
ATOM     28  C   UNL     1      -5.787  13.856  19.361  0.00  0.00    +0.000 A 
ATOM     29  C   UNL     1      -7.163  14.041  19.517  0.00  0.00    +0.000 A 
ATOM     30  C   UNL     1      -7.904  13.146  20.285  0.00  0.00    +0.000 A 
ATOM     31  C   UNL     1      -7.271  12.055  20.881  0.00  0.00    +0.000 A 
ATOM     32  C   UNL     1      -5.888  11.887  20.750  0.00  0.00    +0.000 A 
ENDBRANCH   1  27
TORSDOF 6
ENDMDL
MODEL 6
REMARK VINA RESULT:      -6.2      0.931      1.668
REMARK  Name = 
REMARK  7 active torsions:
REMARK  status: ('A' for Active; 'I' for Inactive)
REMARK    1  A    between atoms: C_1  and  S_2
REMARK    2  A    between atoms: S_2  and  N_5
REMARK    3  A    between atoms: N_5  and  C_6
REMARK    4  A    between atoms: C_9  and  C_10
REMARK    5  A    between atoms: C_10  and  C_24
REMARK    6  A    between atoms: C_11  and  C_12
REMARK    7  A    between atoms: C_11  and  C_18
REMARK                            x       y       z     vdW  Elec       q    Type
REMARK                         _______ _______ _______ _____ _____    ______ ____
ROOT
ATOM      1  C   UNL     1      -0.249  12.238  20.170  0.00  0.00    +0.000 C 
ATOM      2  C   UNL     1       0.549  13.326  19.905  0.00  0.00    +0.000 C 
ENDROOT
BRANCH   1   6
ATOM      3  C   UNL     1      -4.058  12.586  22.122  0.00  0.00    +0.000 A 
ATOM      4  C   UNL     1      -2.914  12.345  22.896  0.00  0.00    +0.000 A 
ATOM      5  C   UNL     1      -1.655  12.258  22.279  0.00  0.00    +0.000 A 
ATOM      6  C   UNL     1      -1.537  12.413  20.898  0.00  0.00    +0.000 A 
ATOM      7  C   UNL     1      -2.684  12.739  20.150  0.00  0.00    +0.000 A 
ATOM      8  C   UNL     1      -3.935  12.827  20.758  0.00  0.00    +0.000 A 
BRANCH   3   9
ATOM      9  N   UNL     1      -5.351  12.567  22.723  0.00  0.00    +0.000 N 
ATOM     10  H   UNL     1      -5.436  11.946  23.528  0.00  0.00    +0.000 HD
BRANCH   9  12
ATOM     11  C   UNL     1      -7.419  13.517  24.165  0.00  0.00    +0.000 C 
ATOM     12  S   UNL     1      -6.096  14.030  23.074  0.00  0.00    +0.000 S 
ATOM     13  O   UNL     1      -6.666  14.615  21.884  0.00  0.00    +0.000 OA
ATOM     14  O   UNL     1      -5.140  14.760  23.883  0.00  0.00    +0.000 OA
ENDBRANCH   9  12
ENDBRANCH   3   9
ENDBRANCH   1   6
BRANCH   2  15
ATOM     15  C   UNL     1       0.093  14.731  20.091  0.00  0.00    +0.000 A 
ATOM     16  C   UNL     1      -0.265  15.514  18.989  0.00  0.00    +0.000 A 
ATOM     17  C   UNL     1      -0.881  16.756  19.156  0.00  0.00    +0.000 A 
ATOM     18  C   UNL     1      -1.079  17.266  20.434  0.00  0.00    +0.000 A 
ATOM     19  C   UNL     1      -0.636  16.544  21.542  0.00  0.00    +0.000 A 
ATOM     20  C   UNL     1      -0.054  15.280  21.371  0.00  0.00    +0.000 A 
ENDBRANCH   2  15
BRANCH   2  21
ATOM     21  C   UNL     1       2.064  13.169  19.583  0.00  0.00    +0.000 C 
ATOM     22  C   UNL     1       2.656  13.582  18.210  0.00  0.00    +0.000 C 
ATOM     23  C   UNL     1       3.397  14.920  18.130  0.00  0.00    +0.000 C 
ATOM     24  C   UNL     1       4.250  15.230  19.353  0.00  0.00    +0.000 C 
ATOM     25  C   UNL     1       3.415  15.126  20.608  0.00  0.00    +0.000 C 
ATOM     26  C   UNL     1       2.886  13.712  20.776  0.00  0.00    +0.000 C 
ENDBRANCH   2  21
BRANCH   1  27
ATOM     27  C   UNL     1       0.281  10.862  19.907  0.00  0.00    +0.000 A 
ATOM     28  C   UNL     1       0.638  10.005  20.960  0.00  0.00    +0.000 A 
ATOM     29  C   UNL     1       1.323   8.812  20.713  0.00  0.00    +0.000 A 
ATOM     30  C   UNL     1       1.613   8.435  19.404  0.00  0.00    +0.000 A 
ATOM     31  C   UNL     1       1.202   9.241  18.343  0.00  0.00    +0.000 A 
ATOM     32  C   UNL     1       0.543  10.450  18.593  0.00  0.00    +0.000 A 
ENDBRANCH   1  27
TORSDOF 6
ENDMDL
MODEL 7
REMARK VINA RESULT:      -6.2      7.730      9.769
REMARK  Name = 
REMARK  7 active torsions:
REMARK  status: ('A' for Active; 'I' for Inactive)
REMARK    1  A    between atoms: C_1  and  S_2
REMARK    2  A    between atoms: S_2  and  N_5
REMARK    3  A    between atoms: N_5  and  C_6
REMARK    4  A    between atoms: C_9  and  C_10
REMARK    5  A    between atoms: C_10  and  C_24
REMARK    6  A    between atoms: C_11  and  C_12
REMARK    7  A    between atoms: C_11  and  C_18
REMARK                            x       y       z     vdW  Elec       q    Type
REMARK                         _______ _______ _______ _____ _____    ______ ____
ROOT
ATOM      1  C   UNL     1       8.789  13.364  20.875  0.00  0.00    +0.000 C 
ATOM      2  C   UNL     1       8.269  14.528  20.361  0.00  0.00    +0.000 C 
ENDROOT
BRANCH   1   6
ATOM      3  C   UNL     1       7.889  12.463  24.976  0.00  0.00    +0.000 A 
ATOM      4  C   UNL     1       7.626  11.500  23.993  0.00  0.00    +0.000 A 
ATOM      5  C   UNL     1       7.941  11.764  22.649  0.00  0.00    +0.000 A 
ATOM      6  C   UNL     1       8.518  12.982  22.289  0.00  0.00    +0.000 A 
ATOM      7  C   UNL     1       8.853  13.901  23.302  0.00  0.00    +0.000 A 
ATOM      8  C   UNL     1       8.544  13.643  24.636  0.00  0.00    +0.000 A 
BRANCH   3   9
ATOM      9  N   UNL     1       7.474  12.250  26.323  0.00  0.00    +0.000 N 
ATOM     10  H   UNL     1       8.098  12.643  27.027  0.00  0.00    +0.000 HD
BRANCH   9  12
ATOM     11  C   UNL     1       5.232  10.969  27.092  0.00  0.00    +0.000 C 
ATOM     12  S   UNL     1       5.884  12.597  26.739  0.00  0.00    +0.000 S 
ATOM     13  O   UNL     1       5.171  13.158  25.616  0.00  0.00    +0.000 OA
ATOM     14  O   UNL     1       5.966  13.304  28.001  0.00  0.00    +0.000 OA
ENDBRANCH   9  12
ENDBRANCH   3   9
ENDBRANCH   1   6
BRANCH   2  15
ATOM     15  C   UNL     1       7.235  15.335  21.066  0.00  0.00    +0.000 A 
ATOM     16  C   UNL     1       5.896  14.930  21.066  0.00  0.00    +0.000 A 
ATOM     17  C   UNL     1       4.953  15.558  21.883  0.00  0.00    +0.000 A 
ATOM     18  C   UNL     1       5.324  16.653  22.656  0.00  0.00    +0.000 A 
ATOM     19  C   UNL     1       6.632  17.134  22.591  0.00  0.00    +0.000 A 
ATOM     20  C   UNL     1       7.584  16.475  21.800  0.00  0.00    +0.000 A 
ENDBRANCH   2  15
BRANCH   2  21
ATOM     21  C   UNL     1       8.871  15.203  19.094  0.00  0.00    +0.000 C 
ATOM     22  C   UNL     1       8.029  16.137  18.186  0.00  0.00    +0.000 C 
ATOM     23  C   UNL     1       8.226  17.647  18.344  0.00  0.00    +0.000 C 
ATOM     24  C   UNL     1       9.672  18.062  18.581  0.00  0.00    +0.000 C 
ATOM     25  C   UNL     1      10.247  17.297  19.750  0.00  0.00    +0.000 C 
ATOM     26  C   UNL     1      10.249  15.806  19.457  0.00  0.00    +0.000 C 
ENDBRANCH   2  21
BRANCH   1  27
ATOM     27  C   UNL     1       9.792  12.595  20.071  0.00  0.00    +0.000 A 
ATOM     28  C   UNL     1      11.121  12.458  20.503  0.00  0.00    +0.000 A 
ATOM     29  C   UNL     1      12.098  11.923  19.657  0.00  0.00    +0.000 A 
ATOM     30  C   UNL     1      11.748  11.471  18.388  0.00  0.00    +0.000 A 
ATOM     31  C   UNL     1      10.418  11.536  17.971  0.00  0.00    +0.000 A 
ATOM     32  C   UNL     1       9.446  12.098  18.806  0.00  0.00    +0.000 A 
ENDBRANCH   1  27
TORSDOF 6
ENDMDL
MODEL 8
REMARK VINA RESULT:      -6.2      0.826      1.302
REMARK  Name = 
REMARK  7 active torsions:
REMARK  status: ('A' for Active; 'I' for Inactive)
REMARK    1  A    between atoms: C_1  and  S_2
REMARK    2  A    between atoms: S_2  and  N_5
REMARK    3  A    between atoms: N_5  and  C_6
REMARK    4  A    between atoms: C_9  and  C_10
REMARK    5  A    between atoms: C_10  and  C_24
REMARK    6  A    between atoms: C_11  and  C_12
REMARK    7  A    between atoms: C_11  and  C_18
REMARK                            x       y       z     vdW  Elec       q    Type
REMARK                         _______ _______ _______ _____ _____    ______ ____
ROOT
ATOM      1  C   UNL     1      -0.230  12.051  19.849  0.00  0.00    +0.000 C 
ATOM      2  C   UNL     1       0.579  13.154  19.713  0.00  0.00    +0.000 C 
ENDROOT
BRANCH   1   6
ATOM      3  C   UNL     1      -4.121  12.638  21.569  0.00  0.00    +0.000 A 
ATOM      4  C   UNL     1      -3.985  12.633  20.173  0.00  0.00    +0.000 A 
ATOM      5  C   UNL     1      -2.726  12.413  19.591  0.00  0.00    +0.000 A 
ATOM      6  C   UNL     1      -1.607  12.196  20.396  0.00  0.00    +0.000 A 
ATOM      7  C   UNL     1      -1.780  12.119  21.792  0.00  0.00    +0.000 A 
ATOM      8  C   UNL     1      -3.028  12.336  22.374  0.00  0.00    +0.000 A 
BRANCH   3   9
ATOM      9  N   UNL     1      -5.371  12.969  22.169  0.00  0.00    +0.000 N 
ATOM     10  H   UNL     1      -6.125  12.312  21.969  0.00  0.00    +0.000 HD
BRANCH   9  12
ATOM     11  C   UNL     1      -7.111  13.822  24.040  0.00  0.00    +0.000 C 
ATOM     12  S   UNL     1      -5.399  13.359  23.802  0.00  0.00    +0.000 S 
ATOM     13  O   UNL     1      -4.560  14.502  24.071  0.00  0.00    +0.000 OA
ATOM     14  O   UNL     1      -5.200  12.104  24.498  0.00  0.00    +0.000 OA
ENDBRANCH   9  12
ENDBRANCH   3   9
ENDBRANCH   1   6
BRANCH   2  15
ATOM     15  C   UNL     1       0.081  14.549  19.856  0.00  0.00    +0.000 A 
ATOM     16  C   UNL     1      -0.112  15.354  18.730  0.00  0.00    +0.000 A 
ATOM     17  C   UNL     1      -0.764  16.586  18.825  0.00  0.00    +0.000 A 
ATOM     18  C   UNL     1      -1.166  17.063  20.068  0.00  0.00    +0.000 A 
ATOM     19  C   UNL     1      -0.892  16.319  21.215  0.00  0.00    +0.000 A 
ATOM     20  C   UNL     1      -0.273  15.065  21.109  0.00  0.00    +0.000 A 
ENDBRANCH   2  15
BRANCH   2  21
ATOM     21  C   UNL     1       2.126  13.023  19.599  0.00  0.00    +0.000 C 
ATOM     22  C   UNL     1       2.880  13.339  18.281  0.00  0.00    +0.000 C 
ATOM     23  C   UNL     1       3.593  14.690  18.177  0.00  0.00    +0.000 C 
ATOM     24  C   UNL     1       4.274  15.132  19.465  0.00  0.00    +0.000 C 
ATOM     25  C   UNL     1       3.288  15.106  20.610  0.00  0.00    +0.000 C 
ATOM     26  C   UNL     1       2.776  13.693  20.834  0.00  0.00    +0.000 C 
ENDBRANCH   2  21
BRANCH   1  27
ATOM     27  C   UNL     1       0.353  10.687  19.640  0.00  0.00    +0.000 A 
ATOM     28  C   UNL     1       0.649   9.847  20.726  0.00  0.00    +0.000 A 
ATOM     29  C   UNL     1       1.380   8.669  20.542  0.00  0.00    +0.000 A 
ATOM     30  C   UNL     1       1.779   8.291  19.263  0.00  0.00    +0.000 A 
ATOM     31  C   UNL     1       1.432   9.079  18.166  0.00  0.00    +0.000 A 
ATOM     32  C   UNL     1       0.726  10.273  18.354  0.00  0.00    +0.000 A 
ENDBRANCH   1  27
TORSDOF 6
ENDMDL
MODEL 9
REMARK VINA RESULT:      -6.2      4.126      7.214
REMARK  Name = 
REMARK  7 active torsions:
REMARK  status: ('A' for Active; 'I' for Inactive)
REMARK    1  A    between atoms: C_1  and  S_2
REMARK    2  A    between atoms: S_2  and  N_5
REMARK    3  A    between atoms: N_5  and  C_6
REMARK    4  A    between atoms: C_9  and  C_10
REMARK    5  A    between atoms: C_10  and  C_24
REMARK    6  A    between atoms: C_11  and  C_12
REMARK    7  A    between atoms: C_11  and  C_18
REMARK                            x       y       z     vdW  Elec       q    Type
REMARK                         _______ _______ _______ _____ _____    ______ ____
ROOT
ATOM      1  C   UNL     1      -2.798  12.062  19.351  0.00  0.00    +0.000 C 
ATOM      2  C   UNL     1      -3.859  12.512  20.100  0.00  0.00    +0.000 C 
ENDROOT
BRANCH   1   6
ATOM      3  C   UNL     1       1.268  13.127  20.234  0.00  0.00    +0.000 A 
ATOM      4  C   UNL     1       0.547  13.894  19.309  0.00  0.00    +0.000 A 
ATOM      5  C   UNL     1      -0.793  13.580  19.029  0.00  0.00    +0.000 A 
ATOM      6  C   UNL     1      -1.413  12.508  19.671  0.00  0.00    +0.000 A 
ATOM      7  C   UNL     1      -0.699  11.803  20.658  0.00  0.00    +0.000 A 
ATOM      8  C   UNL     1       0.630  12.112  20.941  0.00  0.00    +0.000 A 
BRANCH   3   9
ATOM      9  N   UNL     1       2.657  13.368  20.444  0.00  0.00    +0.000 N 
ATOM     10  H   UNL     1       3.225  13.336  19.597  0.00  0.00    +0.000 HD
BRANCH   9  12
ATOM     11  C   UNL     1       4.701  14.175  22.002  0.00  0.00    +0.000 C 
ATOM     12  S   UNL     1       3.112  14.696  21.364  0.00  0.00    +0.000 S 
ATOM     13  O   UNL     1       2.203  14.893  22.467  0.00  0.00    +0.000 OA
ATOM     14  O   UNL     1       3.367  15.754  20.407  0.00  0.00    +0.000 OA
ENDBRANCH   9  12
ENDBRANCH   3   9
ENDBRANCH   1   6
BRANCH   2  15
ATOM     15  C   UNL     1      -3.693  13.244  21.386  0.00  0.00    +0.000 A 
ATOM     16  C   UNL     1      -3.297  14.585  21.393  0.00  0.00    +0.000 A 
ATOM     17  C   UNL     1      -3.331  15.342  22.567  0.00  0.00    +0.000 A 
ATOM     18  C   UNL     1      -3.691  14.742  23.768  0.00  0.00    +0.000 A 
ATOM     19  C   UNL     1      -3.992  13.380  23.797  0.00  0.00    +0.000 A 
ATOM     20  C   UNL     1      -3.995  12.635  22.610  0.00  0.00    +0.000 A 
ENDBRANCH   2  15
BRANCH   2  21
ATOM     21  C   UNL     1      -5.318  12.469  19.559  0.00  0.00    +0.000 C 
ATOM     22  C   UNL     1      -6.349  11.427  20.065  0.00  0.00    +0.000 C 
ATOM     23  C   UNL     1      -7.386  11.894  21.090  0.00  0.00    +0.000 C 
ATOM     24  C   UNL     1      -7.917  13.299  20.838  0.00  0.00    +0.000 C 
ATOM     25  C   UNL     1      -6.769  14.274  20.718  0.00  0.00    +0.000 C 
ATOM     26  C   UNL     1      -5.885  13.909  19.537  0.00  0.00    +0.000 C 
ENDBRANCH   2  21
BRANCH   1  27
ATOM     27  C   UNL     1      -3.065  11.293  18.094  0.00  0.00    +0.000 A 
ATOM     28  C   UNL     1      -2.265  10.200  17.725  0.00  0.00    +0.000 A 
ATOM     29  C   UNL     1      -2.384   9.619  16.459  0.00  0.00    +0.000 A 
ATOM     30  C   UNL     1      -3.342  10.091  15.564  0.00  0.00    +0.000 A 
ATOM     31  C   UNL     1      -4.192  11.130  15.943  0.00  0.00    +0.000 A 
ATOM     32  C   UNL     1      -4.052  11.730  17.199  0.00  0.00    +0.000 A 
ENDBRANCH   1  27
TORSDOF 6
ENDMDL
