MODEL 1
REMARK VINA RESULT:      -7.8      0.000      0.000
REMARK  Name = 
REMARK  12 active torsions:
REMARK  status: ('A' for Active; 'I' for Inactive)
REMARK    1  A    between atoms: C_1  and  C_2
REMARK    2  A    between atoms: C_2  and  O_3
REMARK    3  A    between atoms: O_3  and  C_4
REMARK    4  A    between atoms: C_4  and  C_6
REMARK    5  A    between atoms: C_7  and  C_8
REMARK    6  A    between atoms: C_8  and  C_9
REMARK    7  A    between atoms: C_15  and  O_16
REMARK    8  A    between atoms: C_18  and  C_19
REMARK    9  A    between atoms: C_22  and  O_23
REMARK   10  A    between atoms: O_23  and  C_24
REMARK   11  A    between atoms: C_25  and  O_26
REMARK   12  A    between atoms: O_26  and  C_27
REMARK                            x       y       z     vdW  Elec       q    Type
REMARK                         _______ _______ _______ _____ _____    ______ ____
ROOT
ATOM      1  C   UNL     1       5.124   5.555  17.565  0.00  0.00    +0.000 C 
ATOM      2  C   UNL     1       5.886   4.817  18.401  0.00  0.00    +0.000 C 
ATOM      3  N   UNL     1       5.367   3.819  19.199  0.00  0.00    +0.000 NA
ATOM      4  C   UNL     1       4.113   3.496  19.128  0.00  0.00    +0.000 C 
ATOM      5  C   UNL     1       3.691   2.331  20.000  0.00  0.00    +0.000 C 
ATOM      6  C   UNL     1       2.233   1.907  19.992  0.00  0.00    +0.000 C 
ATOM      7  C   UNL     1       1.268   2.683  19.113  0.00  0.00    +0.000 C 
ATOM      8  C   UNL     1       1.851   3.737  18.230  0.00  0.00    +0.000 C 
ATOM      9  C   UNL     1       3.124   4.159  18.252  0.00  0.00    +0.000 C 
ATOM     10  C   UNL     1       3.627   5.367  17.490  0.00  0.00    +0.000 C 
ENDROOT
BRANCH  10  11
ATOM     11  C   UNL     1       2.896   6.624  17.984  0.00  0.00    +0.000 A 
ATOM     12  C   UNL     1       2.679   7.711  17.127  0.00  0.00    +0.000 A 
ATOM     13  C   UNL     1       2.146   8.891  17.629  0.00  0.00    +0.000 A 
ATOM     14  C   UNL     1       1.796   9.007  18.980  0.00  0.00    +0.000 A 
ATOM     15  C   UNL     1       1.975   7.916  19.850  0.00  0.00    +0.000 A 
ATOM     16  C   UNL     1       2.513   6.730  19.334  0.00  0.00    +0.000 A 
BRANCH  14  17
ATOM     17  O   UNL     1       1.368  10.269  19.306  0.00  0.00    +0.000 OA
ATOM     18  C   UNL     1       0.108  10.670  18.790  0.00  0.00    +0.000 C 
ENDBRANCH  14  17
BRANCH  15  19
ATOM     19  O   UNL     1       1.664   8.083  21.173  0.00  0.00    +0.000 OA
ATOM     20  C   UNL     1       0.289   8.142  21.535  0.00  0.00    +0.000 C 
ENDBRANCH  15  19
ENDBRANCH  10  11
BRANCH   1  21
ATOM     21  C   UNL     1       5.689   6.635  16.709  0.00  0.00    +0.000 C 
ATOM     22  O   UNL     1       6.189   7.674  17.114  0.00  0.00    +0.000 OA
BRANCH  21  23
ATOM     23  O   UNL     1       5.534   6.303  15.399  0.00  0.00    +0.000 OA
BRANCH  23  25
ATOM     24  C   UNL     1       5.573   4.213  14.202  0.00  0.00    +0.000 C 
ATOM     25  C   UNL     1       6.400   5.282  14.883  0.00  0.00    +0.000 C 
ENDBRANCH  23  25
ENDBRANCH  21  23
ENDBRANCH   1  21
BRANCH   2  26
ATOM     26  C   UNL     1       7.397   4.929  18.537  0.00  0.00    +0.000 C 
ATOM     27  C   UNL     1       7.827   5.825  19.695  0.00  0.00    +0.000 C 
ENDBRANCH   2  26
BRANCH   8  28
ATOM     28  O   UNL     1       0.943   4.342  17.372  0.00  0.00    +0.000 OA
ATOM     29  H   UNL     1       1.418   4.975  16.803  0.00  0.00    +0.000 HD
ENDBRANCH   8  28
TORSDOF 8
ENDMDL
MODEL 2
REMARK VINA RESULT:      -7.7      0.748      1.705
REMARK  Name = 
REMARK  12 active torsions:
REMARK  status: ('A' for Active; 'I' for Inactive)
REMARK    1  A    between atoms: C_1  and  C_2
REMARK    2  A    between atoms: C_2  and  O_3
REMARK    3  A    between atoms: O_3  and  C_4
REMARK    4  A    between atoms: C_4  and  C_6
REMARK    5  A    between atoms: C_7  and  C_8
REMARK    6  A    between atoms: C_8  and  C_9
REMARK    7  A    between atoms: C_15  and  O_16
REMARK    8  A    between atoms: C_18  and  C_19
REMARK    9  A    between atoms: C_22  and  O_23
REMARK   10  A    between atoms: O_23  and  C_24
REMARK   11  A    between atoms: C_25  and  O_26
REMARK   12  A    between atoms: O_26  and  C_27
REMARK                            x       y       z     vdW  Elec       q    Type
REMARK                         _______ _______ _______ _____ _____    ______ ____
ROOT
ATOM      1  C   UNL     1       5.219   5.575  17.576  0.00  0.00    +0.000 C 
ATOM      2  C   UNL     1       5.978   4.688  18.255  0.00  0.00    +0.000 C 
ATOM      3  N   UNL     1       5.445   3.597  18.911  0.00  0.00    +0.000 NA
ATOM      4  C   UNL     1       4.177   3.336  18.843  0.00  0.00    +0.000 C 
ATOM      5  C   UNL     1       3.736   2.066  19.542  0.00  0.00    +0.000 C 
ATOM      6  C   UNL     1       2.262   1.703  19.531  0.00  0.00    +0.000 C 
ATOM      7  C   UNL     1       1.301   2.642  18.824  0.00  0.00    +0.000 C 
ATOM      8  C   UNL     1       1.896   3.799  18.091  0.00  0.00    +0.000 C 
ATOM      9  C   UNL     1       3.186   4.164  18.124  0.00  0.00    +0.000 C 
ATOM     10  C   UNL     1       3.714   5.457  17.537  0.00  0.00    +0.000 C 
ENDROOT
BRANCH  10  11
ATOM     11  C   UNL     1       3.056   6.647  18.249  0.00  0.00    +0.000 A 
ATOM     12  C   UNL     1       2.630   6.542  19.579  0.00  0.00    +0.000 A 
ATOM     13  C   UNL     1       1.910   7.578  20.159  0.00  0.00    +0.000 A 
ATOM     14  C   UNL     1       1.620   8.744  19.441  0.00  0.00    +0.000 A 
ATOM     15  C   UNL     1       2.066   8.884  18.115  0.00  0.00    +0.000 A 
ATOM     16  C   UNL     1       2.793   7.833  17.539  0.00  0.00    +0.000 A 
BRANCH  14  17
ATOM     17  O   UNL     1       0.829   9.614  20.148  0.00  0.00    +0.000 OA
ATOM     18  C   UNL     1       0.062   9.063  21.208  0.00  0.00    +0.000 C 
ENDBRANCH  14  17
BRANCH  15  19
ATOM     19  O   UNL     1       1.723  10.019  17.430  0.00  0.00    +0.000 OA
ATOM     20  C   UNL     1       2.331  11.246  17.822  0.00  0.00    +0.000 C 
ENDBRANCH  15  19
ENDBRANCH  10  11
BRANCH   1  21
ATOM     21  C   UNL     1       5.799   6.753  16.875  0.00  0.00    +0.000 C 
ATOM     22  O   UNL     1       6.299   7.728  17.417  0.00  0.00    +0.000 OA
BRANCH  21  23
ATOM     23  O   UNL     1       5.657   6.596  15.530  0.00  0.00    +0.000 OA
BRANCH  23  25
ATOM     24  C   UNL     1       5.558   4.484  14.374  0.00  0.00    +0.000 C 
ATOM     25  C   UNL     1       6.457   5.578  14.911  0.00  0.00    +0.000 C 
ENDBRANCH  23  25
ENDBRANCH  21  23
ENDBRANCH   1  21
BRANCH   2  26
ATOM     26  C   UNL     1       7.496   4.720  18.343  0.00  0.00    +0.000 C 
ATOM     27  C   UNL     1       8.009   5.571  19.501  0.00  0.00    +0.000 C 
ENDBRANCH   2  26
BRANCH   8  28
ATOM     28  O   UNL     1       0.985   4.563  17.375  0.00  0.00    +0.000 OA
ATOM     29  H   UNL     1       1.357   5.453  17.239  0.00  0.00    +0.000 HD
ENDBRANCH   8  28
TORSDOF 8
ENDMDL
MODEL 3
REMARK VINA RESULT:      -7.4      1.170      2.352
REMARK  Name = 
REMARK  12 active torsions:
REMARK  status: ('A' for Active; 'I' for Inactive)
REMARK    1  A    between atoms: C_1  and  C_2
REMARK    2  A    between atoms: C_2  and  O_3
REMARK    3  A    between atoms: O_3  and  C_4
REMARK    4  A    between atoms: C_4  and  C_6
REMARK    5  A    between atoms: C_7  and  C_8
REMARK    6  A    between atoms: C_8  and  C_9
REMARK    7  A    between atoms: C_15  and  O_16
REMARK    8  A    between atoms: C_18  and  C_19
REMARK    9  A    between atoms: C_22  and  O_23
REMARK   10  A    between atoms: O_23  and  C_24
REMARK   11  A    between atoms: C_25  and  O_26
REMARK   12  A    between atoms: O_26  and  C_27
REMARK                            x       y       z     vdW  Elec       q    Type
REMARK                         _______ _______ _______ _____ _____    ______ ____
ROOT
ATOM      1  C   UNL     1       5.191   5.634  17.514  0.00  0.00    +0.000 C 
ATOM      2  C   UNL     1       5.981   4.749  18.160  0.00  0.00    +0.000 C 
ATOM      3  N   UNL     1       5.484   3.635  18.804  0.00  0.00    +0.000 NA
ATOM      4  C   UNL     1       4.219   3.351  18.757  0.00  0.00    +0.000 C 
ATOM      5  C   UNL     1       3.819   2.058  19.439  0.00  0.00    +0.000 C 
ATOM      6  C   UNL     1       2.353   1.665  19.451  0.00  0.00    +0.000 C 
ATOM      7  C   UNL     1       1.358   2.599  18.783  0.00  0.00    +0.000 C 
ATOM      8  C   UNL     1       1.915   3.782  18.061  0.00  0.00    +0.000 C 
ATOM      9  C   UNL     1       3.198   4.172  18.075  0.00  0.00    +0.000 C 
ATOM     10  C   UNL     1       3.688   5.487  17.504  0.00  0.00    +0.000 C 
ENDROOT
BRANCH  10  11
ATOM     11  C   UNL     1       3.021   6.650  18.253  0.00  0.00    +0.000 A 
ATOM     12  C   UNL     1       2.613   6.504  19.585  0.00  0.00    +0.000 A 
ATOM     13  C   UNL     1       1.885   7.515  20.199  0.00  0.00    +0.000 A 
ATOM     14  C   UNL     1       1.570   8.695  19.514  0.00  0.00    +0.000 A 
ATOM     15  C   UNL     1       1.999   8.875  18.187  0.00  0.00    +0.000 A 
ATOM     16  C   UNL     1       2.733   7.849  17.576  0.00  0.00    +0.000 A 
BRANCH  14  17
ATOM     17  O   UNL     1       0.775   9.535  20.252  0.00  0.00    +0.000 OA
ATOM     18  C   UNL     1       1.047   9.614  21.643  0.00  0.00    +0.000 C 
ENDBRANCH  14  17
BRANCH  15  19
ATOM     19  O   UNL     1       1.632  10.022  17.535  0.00  0.00    +0.000 OA
ATOM     20  C   UNL     1       2.251  11.241  17.929  0.00  0.00    +0.000 C 
ENDBRANCH  15  19
ENDBRANCH  10  11
BRANCH   1  21
ATOM     21  C   UNL     1       5.732   6.838  16.825  0.00  0.00    +0.000 C 
ATOM     22  O   UNL     1       5.575   7.112  15.644  0.00  0.00    +0.000 OA
BRANCH  21  23
ATOM     23  O   UNL     1       6.460   7.576  17.706  0.00  0.00    +0.000 OA
BRANCH  23  25
ATOM     24  C   UNL     1       8.236   9.129  18.194  0.00  0.00    +0.000 C 
ATOM     25  C   UNL     1       7.733   8.057  17.251  0.00  0.00    +0.000 C 
ENDBRANCH  23  25
ENDBRANCH  21  23
ENDBRANCH   1  21
BRANCH   2  26
ATOM     26  C   UNL     1       7.500   4.811  18.216  0.00  0.00    +0.000 C 
ATOM     27  C   UNL     1       8.026   5.351  19.543  0.00  0.00    +0.000 C 
ENDBRANCH   2  26
BRANCH   8  28
ATOM     28  O   UNL     1       0.975   4.542  17.380  0.00  0.00    +0.000 OA
ATOM     29  H   UNL     1       1.066   4.376  16.424  0.00  0.00    +0.000 HD
ENDBRANCH   8  28
TORSDOF 8
ENDMDL
MODEL 4
REMARK VINA RESULT:      -7.4      0.844      1.589
REMARK  Name = 
REMARK  12 active torsions:
REMARK  status: ('A' for Active; 'I' for Inactive)
REMARK    1  A    between atoms: C_1  and  C_2
REMARK    2  A    between atoms: C_2  and  O_3
REMARK    3  A    between atoms: O_3  and  C_4
REMARK    4  A    between atoms: C_4  and  C_6
REMARK    5  A    between atoms: C_7  and  C_8
REMARK    6  A    between atoms: C_8  and  C_9
REMARK    7  A    between atoms: C_15  and  O_16
REMARK    8  A    between atoms: C_18  and  C_19
REMARK    9  A    between atoms: C_22  and  O_23
REMARK   10  A    between atoms: O_23  and  C_24
REMARK   11  A    between atoms: C_25  and  O_26
REMARK   12  A    between atoms: O_26  and  C_27
REMARK                            x       y       z     vdW  Elec       q    Type
REMARK                         _______ _______ _______ _____ _____    ______ ____
ROOT
ATOM      1  C   UNL     1       5.118   5.631  17.589  0.00  0.00    +0.000 C 
ATOM      2  C   UNL     1       5.882   4.880  18.411  0.00  0.00    +0.000 C 
ATOM      3  N   UNL     1       5.369   3.856  19.180  0.00  0.00    +0.000 NA
ATOM      4  C   UNL     1       4.119   3.522  19.092  0.00  0.00    +0.000 C 
ATOM      5  C   UNL     1       3.704   2.330  19.932  0.00  0.00    +0.000 C 
ATOM      6  C   UNL     1       2.251   1.891  19.904  0.00  0.00    +0.000 C 
ATOM      7  C   UNL     1       1.283   2.680  19.039  0.00  0.00    +0.000 C 
ATOM      8  C   UNL     1       1.860   3.762  18.188  0.00  0.00    +0.000 C 
ATOM      9  C   UNL     1       3.128   4.196  18.228  0.00  0.00    +0.000 C 
ATOM     10  C   UNL     1       3.624   5.429  17.501  0.00  0.00    +0.000 C 
ENDROOT
BRANCH  10  11
ATOM     11  C   UNL     1       2.876   6.665  18.022  0.00  0.00    +0.000 A 
ATOM     12  C   UNL     1       2.644   7.767  17.189  0.00  0.00    +0.000 A 
ATOM     13  C   UNL     1       2.095   8.929  17.716  0.00  0.00    +0.000 A 
ATOM     14  C   UNL     1       1.745   9.010  19.069  0.00  0.00    +0.000 A 
ATOM     15  C   UNL     1       1.939   7.904  19.916  0.00  0.00    +0.000 A 
ATOM     16  C   UNL     1       2.493   6.736  19.374  0.00  0.00    +0.000 A 
BRANCH  14  17
ATOM     17  O   UNL     1       1.301  10.260  19.423  0.00  0.00    +0.000 OA
ATOM     18  C   UNL     1       0.159  10.750  18.737  0.00  0.00    +0.000 C 
ENDBRANCH  14  17
BRANCH  15  19
ATOM     19  O   UNL     1       1.627   8.038  21.242  0.00  0.00    +0.000 OA
ATOM     20  C   UNL     1       0.270   8.289  21.588  0.00  0.00    +0.000 C 
ENDBRANCH  15  19
ENDBRANCH  10  11
BRANCH   1  21
ATOM     21  C   UNL     1       5.676   6.738  16.765  0.00  0.00    +0.000 C 
ATOM     22  O   UNL     1       5.592   6.831  15.549  0.00  0.00    +0.000 OA
BRANCH  21  23
ATOM     23  O   UNL     1       6.325   7.620  17.572  0.00  0.00    +0.000 OA
BRANCH  23  25
ATOM     24  C   UNL     1       8.175   9.067  18.113  0.00  0.00    +0.000 C 
ATOM     25  C   UNL     1       7.666   7.971  17.200  0.00  0.00    +0.000 C 
ENDBRANCH  23  25
ENDBRANCH  21  23
ENDBRANCH   1  21
BRANCH   2  26
ATOM     26  C   UNL     1       7.391   5.003  18.560  0.00  0.00    +0.000 C 
ATOM     27  C   UNL     1       7.813   5.560  19.916  0.00  0.00    +0.000 C 
ENDBRANCH   2  26
BRANCH   8  28
ATOM     28  O   UNL     1       0.951   4.379  17.339  0.00  0.00    +0.000 OA
ATOM     29  H   UNL     1       0.951   5.336  17.517  0.00  0.00    +0.000 HD
ENDBRANCH   8  28
TORSDOF 8
ENDMDL
MODEL 5
REMARK VINA RESULT:      -7.0      1.854      5.863
REMARK  Name = 
REMARK  12 active torsions:
REMARK  status: ('A' for Active; 'I' for Inactive)
REMARK    1  A    between atoms: C_1  and  C_2
REMARK    2  A    between atoms: C_2  and  O_3
REMARK    3  A    between atoms: O_3  and  C_4
REMARK    4  A    between atoms: C_4  and  C_6
REMARK    5  A    between atoms: C_7  and  C_8
REMARK    6  A    between atoms: C_8  and  C_9
REMARK    7  A    between atoms: C_15  and  O_16
REMARK    8  A    between atoms: C_18  and  C_19
REMARK    9  A    between atoms: C_22  and  O_23
REMARK   10  A    between atoms: O_23  and  C_24
REMARK   11  A    between atoms: C_25  and  O_26
REMARK   12  A    between atoms: O_26  and  C_27
REMARK                            x       y       z     vdW  Elec       q    Type
REMARK                         _______ _______ _______ _____ _____    ______ ____
ROOT
ATOM      1  C   UNL     1       1.952   4.207  18.745  0.00  0.00    +0.000 C 
ATOM      2  C   UNL     1       1.385   4.132  19.968  0.00  0.00    +0.000 C 
ATOM      3  N   UNL     1       1.111   5.246  20.734  0.00  0.00    +0.000 NA
ATOM      4  C   UNL     1       1.329   6.439  20.274  0.00  0.00    +0.000 C 
ATOM      5  C   UNL     1       0.910   7.575  21.186  0.00  0.00    +0.000 C 
ATOM      6  C   UNL     1       1.155   9.002  20.730  0.00  0.00    +0.000 C 
ATOM      7  C   UNL     1       1.820   9.217  19.381  0.00  0.00    +0.000 C 
ATOM      8  C   UNL     1       2.078   8.003  18.550  0.00  0.00    +0.000 C 
ATOM      9  C   UNL     1       1.912   6.733  18.948  0.00  0.00    +0.000 C 
ATOM     10  C   UNL     1       2.378   5.531  18.155  0.00  0.00    +0.000 C 
ENDROOT
BRANCH  10  11
ATOM     11  C   UNL     1       3.904   5.587  17.990  0.00  0.00    +0.000 A 
ATOM     12  C   UNL     1       4.745   5.637  19.108  0.00  0.00    +0.000 A 
ATOM     13  C   UNL     1       6.110   5.833  18.940  0.00  0.00    +0.000 A 
ATOM     14  C   UNL     1       6.667   5.957  17.661  0.00  0.00    +0.000 A 
ATOM     15  C   UNL     1       5.845   5.878  16.523  0.00  0.00    +0.000 A 
ATOM     16  C   UNL     1       4.469   5.680  16.705  0.00  0.00    +0.000 A 
BRANCH  14  17
ATOM     17  O   UNL     1       8.011   6.231  17.698  0.00  0.00    +0.000 OA
ATOM     18  C   UNL     1       8.409   7.386  18.420  0.00  0.00    +0.000 C 
ENDBRANCH  14  17
BRANCH  15  19
ATOM     19  O   UNL     1       6.420   6.051  15.293  0.00  0.00    +0.000 OA
ATOM     20  C   UNL     1       6.730   4.889  14.530  0.00  0.00    +0.000 C 
ENDBRANCH  15  19
ENDBRANCH  10  11
BRANCH   1  21
ATOM     21  C   UNL     1       2.251   3.002  17.924  0.00  0.00    +0.000 C 
ATOM     22  O   UNL     1       2.140   2.923  16.710  0.00  0.00    +0.000 OA
BRANCH  21  23
ATOM     23  O   UNL     1       2.637   1.983  18.739  0.00  0.00    +0.000 OA
BRANCH  23  25
ATOM     24  C   UNL     1       4.600   2.104  20.130  0.00  0.00    +0.000 C 
ATOM     25  C   UNL     1       4.040   1.689  18.786  0.00  0.00    +0.000 C 
ENDBRANCH  23  25
ENDBRANCH  21  23
ENDBRANCH   1  21
BRANCH   2  26
ATOM     26  C   UNL     1       0.916   2.850  20.638  0.00  0.00    +0.000 C 
ATOM     27  C   UNL     1       1.578   2.607  21.992  0.00  0.00    +0.000 C 
ENDBRANCH   2  26
BRANCH   8  28
ATOM     28  O   UNL     1       2.587   8.264  17.286  0.00  0.00    +0.000 OA
ATOM     29  H   UNL     1       3.091   9.097  17.312  0.00  0.00    +0.000 HD
ENDBRANCH   8  28
TORSDOF 8
ENDMDL
MODEL 6
REMARK VINA RESULT:      -6.6      3.911      8.802
REMARK  Name = 
REMARK  12 active torsions:
REMARK  status: ('A' for Active; 'I' for Inactive)
REMARK    1  A    between atoms: C_1  and  C_2
REMARK    2  A    between atoms: C_2  and  O_3
REMARK    3  A    between atoms: O_3  and  C_4
REMARK    4  A    between atoms: C_4  and  C_6
REMARK    5  A    between atoms: C_7  and  C_8
REMARK    6  A    between atoms: C_8  and  C_9
REMARK    7  A    between atoms: C_15  and  O_16
REMARK    8  A    between atoms: C_18  and  C_19
REMARK    9  A    between atoms: C_22  and  O_23
REMARK   10  A    between atoms: O_23  and  C_24
REMARK   11  A    between atoms: C_25  and  O_26
REMARK   12  A    between atoms: O_26  and  C_27
REMARK                            x       y       z     vdW  Elec       q    Type
REMARK                         _______ _______ _______ _____ _____    ______ ____
ROOT
ATOM      1  C   UNL     1      -1.448  11.491  18.409  0.00  0.00    +0.000 C 
ATOM      2  C   UNL     1      -2.075  12.347  19.244  0.00  0.00    +0.000 C 
ATOM      3  N   UNL     1      -1.426  13.394  19.866  0.00  0.00    +0.000 NA
ATOM      4  C   UNL     1      -0.179  13.644  19.617  0.00  0.00    +0.000 C 
ATOM      5  C   UNL     1       0.389  14.869  20.305  0.00  0.00    +0.000 C 
ATOM      6  C   UNL     1       1.850  15.216  20.085  0.00  0.00    +0.000 C 
ATOM      7  C   UNL     1       2.673  14.307  19.189  0.00  0.00    +0.000 C 
ATOM      8  C   UNL     1       1.949  13.199  18.496  0.00  0.00    +0.000 C 
ATOM      9  C   UNL     1       0.672  12.847  18.709  0.00  0.00    +0.000 C 
ATOM     10  C   UNL     1       0.036  11.595  18.143  0.00  0.00    +0.000 C 
ENDROOT
BRANCH  10  11
ATOM     11  C   UNL     1       0.773  10.359  18.680  0.00  0.00    +0.000 A 
ATOM     12  C   UNL     1       1.419   9.474  17.809  0.00  0.00    +0.000 A 
ATOM     13  C   UNL     1       1.956   8.290  18.297  0.00  0.00    +0.000 A 
ATOM     14  C   UNL     1       1.882   7.974  19.660  0.00  0.00    +0.000 A 
ATOM     15  C   UNL     1       1.265   8.863  20.557  0.00  0.00    +0.000 A 
ATOM     16  C   UNL     1       0.728  10.056  20.054  0.00  0.00    +0.000 A 
BRANCH  14  17
ATOM     17  O   UNL     1       2.387   6.729  19.938  0.00  0.00    +0.000 OA
ATOM     18  C   UNL     1       3.083   6.072  18.890  0.00  0.00    +0.000 C 
ENDBRANCH  14  17
BRANCH  15  19
ATOM     19  O   UNL     1       1.171   8.498  21.873  0.00  0.00    +0.000 OA
ATOM     20  C   UNL     1       0.395   9.317  22.741  0.00  0.00    +0.000 C 
ENDBRANCH  15  19
ENDBRANCH  10  11
BRANCH   1  21
ATOM     21  C   UNL     1      -2.151  10.360  17.744  0.00  0.00    +0.000 C 
ATOM     22  O   UNL     1      -2.693   9.425  18.316  0.00  0.00    +0.000 OA
BRANCH  21  23
ATOM     23  O   UNL     1      -2.072  10.507  16.394  0.00  0.00    +0.000 OA
BRANCH  23  25
ATOM     24  C   UNL     1      -3.327  10.119  14.374  0.00  0.00    +0.000 C 
ATOM     25  C   UNL     1      -3.287  10.838  15.707  0.00  0.00    +0.000 C 
ENDBRANCH  23  25
ENDBRANCH  21  23
ENDBRANCH   1  21
BRANCH   2  26
ATOM     26  C   UNL     1      -3.562  12.326  19.564  0.00  0.00    +0.000 C 
ATOM     27  C   UNL     1      -3.909  13.096  20.835  0.00  0.00    +0.000 C 
ENDBRANCH   2  26
BRANCH   8  28
ATOM     28  O   UNL     1       2.723  12.466  17.608  0.00  0.00    +0.000 OA
ATOM     29  H   UNL     1       3.416  13.043  17.241  0.00  0.00    +0.000 HD
ENDBRANCH   8  28
TORSDOF 8
ENDMDL
MODEL 7
REMARK VINA RESULT:      -6.4      1.849      5.703
REMARK  Name = 
REMARK  12 active torsions:
REMARK  status: ('A' for Active; 'I' for Inactive)
REMARK    1  A    between atoms: C_1  and  C_2
REMARK    2  A    between atoms: C_2  and  O_3
REMARK    3  A    between atoms: O_3  and  C_4
REMARK    4  A    between atoms: C_4  and  C_6
REMARK    5  A    between atoms: C_7  and  C_8
REMARK    6  A    between atoms: C_8  and  C_9
REMARK    7  A    between atoms: C_15  and  O_16
REMARK    8  A    between atoms: C_18  and  C_19
REMARK    9  A    between atoms: C_22  and  O_23
REMARK   10  A    between atoms: O_23  and  C_24
REMARK   11  A    between atoms: C_25  and  O_26
REMARK   12  A    between atoms: O_26  and  C_27
REMARK                            x       y       z     vdW  Elec       q    Type
REMARK                         _______ _______ _______ _____ _____    ______ ____
ROOT
ATOM      1  C   UNL     1       1.884   4.699  18.840  0.00  0.00    +0.000 C 
ATOM      2  C   UNL     1       1.533   4.623  20.142  0.00  0.00    +0.000 C 
ATOM      3  N   UNL     1       1.380   5.738  20.940  0.00  0.00    +0.000 NA
ATOM      4  C   UNL     1       1.503   6.930  20.446  0.00  0.00    +0.000 C 
ATOM      5  C   UNL     1       1.232   8.066  21.413  0.00  0.00    +0.000 C 
ATOM      6  C   UNL     1       1.379   9.493  20.918  0.00  0.00    +0.000 C 
ATOM      7  C   UNL     1       1.803   9.709  19.475  0.00  0.00    +0.000 C 
ATOM      8  C   UNL     1       1.931   8.495  18.616  0.00  0.00    +0.000 C 
ATOM      9  C   UNL     1       1.849   7.225  19.040  0.00  0.00    +0.000 C 
ATOM     10  C   UNL     1       2.188   6.024  18.182  0.00  0.00    +0.000 C 
ENDROOT
BRANCH  10  11
ATOM     11  C   UNL     1       3.663   6.096  17.760  0.00  0.00    +0.000 A 
ATOM     12  C   UNL     1       4.028   6.615  16.512  0.00  0.00    +0.000 A 
ATOM     13  C   UNL     1       5.349   6.540  16.091  0.00  0.00    +0.000 A 
ATOM     14  C   UNL     1       6.335   5.974  16.908  0.00  0.00    +0.000 A 
ATOM     15  C   UNL     1       5.996   5.476  18.179  0.00  0.00    +0.000 A 
ATOM     16  C   UNL     1       4.659   5.557  18.594  0.00  0.00    +0.000 A 
BRANCH  14  17
ATOM     17  O   UNL     1       7.558   5.910  16.290  0.00  0.00    +0.000 OA
ATOM     18  C   UNL     1       7.643   5.106  15.123  0.00  0.00    +0.000 C 
ENDBRANCH  14  17
BRANCH  15  19
ATOM     19  O   UNL     1       6.978   4.887  18.929  0.00  0.00    +0.000 OA
ATOM     20  C   UNL     1       7.894   5.734  19.615  0.00  0.00    +0.000 C 
ENDBRANCH  15  19
ENDBRANCH  10  11
BRANCH   1  21
ATOM     21  C   UNL     1       2.053   3.492  17.984  0.00  0.00    +0.000 C 
ATOM     22  O   UNL     1       1.840   3.438  16.782  0.00  0.00    +0.000 OA
BRANCH  21  23
ATOM     23  O   UNL     1       2.451   2.443  18.753  0.00  0.00    +0.000 OA
BRANCH  23  25
ATOM     24  C   UNL     1       4.571   2.006  19.812  0.00  0.00    +0.000 C 
ATOM     25  C   UNL     1       3.775   1.940  18.525  0.00  0.00    +0.000 C 
ENDBRANCH  23  25
ENDBRANCH  21  23
ENDBRANCH   1  21
BRANCH   2  26
ATOM     26  C   UNL     1       1.200   3.338  20.886  0.00  0.00    +0.000 C 
ATOM     27  C   UNL     1       2.120   3.082  22.076  0.00  0.00    +0.000 C 
ENDBRANCH   2  26
BRANCH   8  28
ATOM     28  O   UNL     1       2.215   8.755  17.282  0.00  0.00    +0.000 OA
ATOM     29  H   UNL     1       3.075   9.208  17.224  0.00  0.00    +0.000 HD
ENDBRANCH   8  28
TORSDOF 8
ENDMDL
MODEL 8
REMARK VINA RESULT:      -6.2      7.218      9.824
REMARK  Name = 
REMARK  12 active torsions:
REMARK  status: ('A' for Active; 'I' for Inactive)
REMARK    1  A    between atoms: C_1  and  C_2
REMARK    2  A    between atoms: C_2  and  O_3
REMARK    3  A    between atoms: O_3  and  C_4
REMARK    4  A    between atoms: C_4  and  C_6
REMARK    5  A    between atoms: C_7  and  C_8
REMARK    6  A    between atoms: C_8  and  C_9
REMARK    7  A    between atoms: C_15  and  O_16
REMARK    8  A    between atoms: C_18  and  C_19
REMARK    9  A    between atoms: C_22  and  O_23
REMARK   10  A    between atoms: O_23  and  C_24
REMARK   11  A    between atoms: C_25  and  O_26
REMARK   12  A    between atoms: O_26  and  C_27
REMARK                            x       y       z     vdW  Elec       q    Type
REMARK                         _______ _______ _______ _____ _____    ______ ____
ROOT
ATOM      1  C   UNL     1      -1.737  12.319  21.228  0.00  0.00    +0.000 C 
ATOM      2  C   UNL     1      -3.050  12.635  21.223  0.00  0.00    +0.000 C 
ATOM      3  N   UNL     1      -3.862  12.438  20.125  0.00  0.00    +0.000 NA
ATOM      4  C   UNL     1      -3.404  11.866  19.055  0.00  0.00    +0.000 C 
ATOM      5  C   UNL     1      -4.420  11.639  17.954  0.00  0.00    +0.000 C 
ATOM      6  C   UNL     1      -3.958  10.997  16.658  0.00  0.00    +0.000 C 
ATOM      7  C   UNL     1      -2.491  10.625  16.529  0.00  0.00    +0.000 C 
ATOM      8  C   UNL     1      -1.633  10.813  17.737  0.00  0.00    +0.000 C 
ATOM      9  C   UNL     1      -2.008  11.417  18.875  0.00  0.00    +0.000 C 
ATOM     10  C   UNL     1      -1.054  11.772  19.996  0.00  0.00    +0.000 C 
ENDROOT
BRANCH  10  11
ATOM     11  C   UNL     1       0.002  12.759  19.476  0.00  0.00    +0.000 A 
ATOM     12  C   UNL     1       1.358  12.410  19.448  0.00  0.00    +0.000 A 
ATOM     13  C   UNL     1       2.310  13.362  19.111  0.00  0.00    +0.000 A 
ATOM     14  C   UNL     1       1.935  14.668  18.773  0.00  0.00    +0.000 A 
ATOM     15  C   UNL     1       0.576  15.031  18.763  0.00  0.00    +0.000 A 
ATOM     16  C   UNL     1      -0.377  14.062  19.104  0.00  0.00    +0.000 A 
BRANCH  14  17
ATOM     17  O   UNL     1       3.016  15.486  18.555  0.00  0.00    +0.000 OA
ATOM     18  C   UNL     1       4.224  15.135  19.212  0.00  0.00    +0.000 C 
ENDBRANCH  14  17
BRANCH  15  19
ATOM     19  O   UNL     1       0.253  16.329  18.472  0.00  0.00    +0.000 OA
ATOM     20  C   UNL     1       0.043  17.225  19.558  0.00  0.00    +0.000 C 
ENDBRANCH  15  19
ENDBRANCH  10  11
BRANCH   1  21
ATOM     21  C   UNL     1      -0.864  12.539  22.413  0.00  0.00    +0.000 C 
ATOM     22  O   UNL     1      -0.769  13.583  23.042  0.00  0.00    +0.000 OA
BRANCH  21  23
ATOM     23  O   UNL     1      -0.159  11.405  22.674  0.00  0.00    +0.000 OA
BRANCH  23  25
ATOM     24  C   UNL     1      -0.459   9.021  22.502  0.00  0.00    +0.000 C 
ATOM     25  C   UNL     1      -0.895  10.292  23.200  0.00  0.00    +0.000 C 
ENDBRANCH  23  25
ENDBRANCH  21  23
ENDBRANCH   1  21
BRANCH   2  26
ATOM     26  C   UNL     1      -3.824  13.181  22.414  0.00  0.00    +0.000 C 
ATOM     27  C   UNL     1      -5.323  13.290  22.151  0.00  0.00    +0.000 C 
ENDBRANCH   2  26
BRANCH   8  28
ATOM     28  O   UNL     1      -0.330  10.358  17.599  0.00  0.00    +0.000 OA
ATOM     29  H   UNL     1       0.157  10.963  17.011  0.00  0.00    +0.000 HD
ENDBRANCH   8  28
TORSDOF 8
ENDMDL
MODEL 9
REMARK VINA RESULT:      -6.1      8.116     11.695
REMARK  Name = 
REMARK  12 active torsions:
REMARK  status: ('A' for Active; 'I' for Inactive)
REMARK    1  A    between atoms: C_1  and  C_2
REMARK    2  A    between atoms: C_2  and  O_3
REMARK    3  A    between atoms: O_3  and  C_4
REMARK    4  A    between atoms: C_4  and  C_6
REMARK    5  A    between atoms: C_7  and  C_8
REMARK    6  A    between atoms: C_8  and  C_9
REMARK    7  A    between atoms: C_15  and  O_16
REMARK    8  A    between atoms: C_18  and  C_19
REMARK    9  A    between atoms: C_22  and  O_23
REMARK   10  A    between atoms: O_23  and  C_24
REMARK   11  A    between atoms: C_25  and  O_26
REMARK   12  A    between atoms: O_26  and  C_27
REMARK                            x       y       z     vdW  Elec       q    Type
REMARK                         _______ _______ _______ _____ _____    ______ ____
ROOT
ATOM      1  C   UNL     1      -5.544  12.153  19.786  0.00  0.00    +0.000 C 
ATOM      2  C   UNL     1      -6.450  11.253  20.225  0.00  0.00    +0.000 C 
ATOM      3  N   UNL     1      -7.155  11.415  21.400  0.00  0.00    +0.000 NA
ATOM      4  C   UNL     1      -7.023  12.493  22.110  0.00  0.00    +0.000 C 
ATOM      5  C   UNL     1      -7.913  12.578  23.334  0.00  0.00    +0.000 C 
ATOM      6  C   UNL     1      -7.800  13.797  24.232  0.00  0.00    +0.000 C 
ATOM      7  C   UNL     1      -6.789  14.867  23.859  0.00  0.00    +0.000 C 
ATOM      8  C   UNL     1      -6.060  14.694  22.568  0.00  0.00    +0.000 C 
ATOM      9  C   UNL     1      -6.110  13.607  21.782  0.00  0.00    +0.000 C 
ATOM     10  C   UNL     1      -5.201  13.383  20.591  0.00  0.00    +0.000 C 
ENDROOT
BRANCH  10  11
ATOM     11  C   UNL     1      -3.741  13.335  21.064  0.00  0.00    +0.000 A 
ATOM     12  C   UNL     1      -2.764  14.137  20.461  0.00  0.00    +0.000 A 
ATOM     13  C   UNL     1      -1.428  13.975  20.803  0.00  0.00    +0.000 A 
ATOM     14  C   UNL     1      -1.039  13.035  21.765  0.00  0.00    +0.000 A 
ATOM     15  C   UNL     1      -2.007  12.241  22.407  0.00  0.00    +0.000 A 
ATOM     16  C   UNL     1      -3.353  12.413  22.054  0.00  0.00    +0.000 A 
BRANCH  14  17
ATOM     17  O   UNL     1       0.323  12.959  21.906  0.00  0.00    +0.000 OA
ATOM     18  C   UNL     1       1.082  12.822  20.714  0.00  0.00    +0.000 C 
ENDBRANCH  14  17
BRANCH  15  19
ATOM     19  O   UNL     1      -1.584  11.301  23.307  0.00  0.00    +0.000 OA
ATOM     20  C   UNL     1      -0.856  10.182  22.813  0.00  0.00    +0.000 C 
ENDBRANCH  15  19
ENDBRANCH  10  11
BRANCH   1  21
ATOM     21  C   UNL     1      -4.783  11.970  18.520  0.00  0.00    +0.000 C 
ATOM     22  O   UNL     1      -5.102  12.416  17.427  0.00  0.00    +0.000 OA
BRANCH  21  23
ATOM     23  O   UNL     1      -3.687  11.199  18.757  0.00  0.00    +0.000 OA
BRANCH  23  25
ATOM     24  C   UNL     1      -1.308  10.843  18.612  0.00  0.00    +0.000 C 
ATOM     25  C   UNL     1      -2.525  11.462  17.957  0.00  0.00    +0.000 C 
ENDBRANCH  23  25
ENDBRANCH  21  23
ENDBRANCH   1  21
BRANCH   2  26
ATOM     26  C   UNL     1      -6.866   9.993  19.480  0.00  0.00    +0.000 C 
ATOM     27  C   UNL     1      -7.511   8.949  20.387  0.00  0.00    +0.000 C 
ENDBRANCH   2  26
BRANCH   8  28
ATOM     28  O   UNL     1      -5.229  15.750  22.224  0.00  0.00    +0.000 OA
ATOM     29  H   UNL     1      -4.316  15.421  22.138  0.00  0.00    +0.000 HD
ENDBRANCH   8  28
TORSDOF 8
ENDMDL
