MODEL 1
REMARK VINA RESULT:      -7.6      0.000      0.000
REMARK  Name = 
REMARK  9 active torsions:
REMARK  status: ('A' for Active; 'I' for Inactive)
REMARK    1  A    between atoms: C_1  and  S_2
REMARK    2  A    between atoms: S_2  and  C_3
REMARK    3  A    between atoms: C_6  and  C_7
REMARK    4  A    between atoms: C_7  and  N_8
REMARK    5  A    between atoms: C_9  and  C_10
REMARK    6  A    between atoms: C_11  and  C_12
REMARK    7  A    between atoms: N_14  and  C_15
REMARK    8  A    between atoms: C_15  and  C_16
REMARK    9  A    between atoms: C_21  and  C_22
REMARK                            x       y       z     vdW  Elec       q    Type
REMARK                         _______ _______ _______ _____ _____    ______ ____
ROOT
ATOM      1  N   UNL     1       1.017   9.893  19.741  0.00  0.00    +0.000 N 
ATOM      2  C   UNL     1       1.426   8.614  19.340  0.00  0.00    +0.000 A 
ATOM      3  C   UNL     1       1.540   8.223  17.899  0.00  0.00    +0.000 C 
ATOM      4  C   UNL     1       1.668   7.793  20.383  0.00  0.00    +0.000 A 
ATOM      5  S   UNL     1       1.356   8.567  21.913  0.00  0.00    +0.000 S 
ATOM      6  C   UNL     1       0.888  10.063  21.115  0.00  0.00    +0.000 A 
ATOM      7  O   UNL     1       0.503  11.048  21.721  0.00  0.00    +0.000 OA
ENDROOT
BRANCH   4   8
ATOM      8  C   UNL     1       2.139   6.370  20.353  0.00  0.00    +0.000 C 
ATOM      9  O   UNL     1       1.413   5.435  20.669  0.00  0.00    +0.000 OA
ATOM     10  N   UNL     1       3.446   6.207  19.944  0.00  0.00    +0.000 N 
ATOM     11  H   UNL     1       3.976   7.035  19.703  0.00  0.00    +0.000 HD
BRANCH  10  12
ATOM     12  C   UNL     1       4.112   4.930  19.856  0.00  0.00    +0.000 C 
BRANCH  12  13
ATOM     13  C   UNL     1       5.286   4.965  18.902  0.00  0.00    +0.000 A 
ATOM     14  C   UNL     1       6.500   5.479  19.399  0.00  0.00    +0.000 A 
ATOM     15  C   UNL     1       7.626   5.607  18.584  0.00  0.00    +0.000 A 
ATOM     16  C   UNL     1       7.562   5.223  17.252  0.00  0.00    +0.000 A 
ATOM     17  C   UNL     1       6.383   4.680  16.747  0.00  0.00    +0.000 A 
ATOM     18  C   UNL     1       5.237   4.519  17.560  0.00  0.00    +0.000 A 
BRANCH  18  19
ATOM     19  C   UNL     1       4.040   3.862  16.909  0.00  0.00    +0.000 C 
ATOM     20  F   UNL     1       3.757   2.605  17.345  0.00  0.00    +0.000 F 
ATOM     21  F   UNL     1       2.895   4.582  17.085  0.00  0.00    +0.000 F 
ATOM     22  F   UNL     1       4.194   3.745  15.558  0.00  0.00    +0.000 F 
ENDBRANCH  18  19
ENDBRANCH  12  13
ENDBRANCH  10  12
ENDBRANCH   4   8
BRANCH   1  23
ATOM     23  C   UNL     1       0.707  11.019  18.875  0.00  0.00    +0.000 C 
BRANCH  23  27
ATOM     24  C   UNL     1      -3.537  11.307  17.987  0.00  0.00    +0.000 A 
ATOM     25  C   UNL     1      -2.733  10.383  17.317  0.00  0.00    +0.000 A 
ATOM     26  C   UNL     1      -1.362  10.301  17.587  0.00  0.00    +0.000 A 
ATOM     27  C   UNL     1      -0.763  11.150  18.527  0.00  0.00    +0.000 A 
ATOM     28  C   UNL     1      -1.570  12.104  19.168  0.00  0.00    +0.000 A 
ATOM     29  C   UNL     1      -2.944  12.180  18.902  0.00  0.00    +0.000 A 
BRANCH  24  31
ATOM     30  C   UNL     1      -5.957  11.612  19.282  0.00  0.00    +0.000 C 
ATOM     31  S   UNL     1      -5.280  11.387  17.613  0.00  0.00    +0.000 S 
ENDBRANCH  24  31
ENDBRANCH  23  27
ENDBRANCH   1  23
TORSDOF 7
ENDMDL
MODEL 2
REMARK VINA RESULT:      -7.6      1.779      2.804
REMARK  Name = 
REMARK  9 active torsions:
REMARK  status: ('A' for Active; 'I' for Inactive)
REMARK    1  A    between atoms: C_1  and  S_2
REMARK    2  A    between atoms: S_2  and  C_3
REMARK    3  A    between atoms: C_6  and  C_7
REMARK    4  A    between atoms: C_7  and  N_8
REMARK    5  A    between atoms: C_9  and  C_10
REMARK    6  A    between atoms: C_11  and  C_12
REMARK    7  A    between atoms: N_14  and  C_15
REMARK    8  A    between atoms: C_15  and  C_16
REMARK    9  A    between atoms: C_21  and  C_22
REMARK                            x       y       z     vdW  Elec       q    Type
REMARK                         _______ _______ _______ _____ _____    ______ ____
ROOT
ATOM      1  N   UNL     1       0.091  10.669  20.165  0.00  0.00    +0.000 N 
ATOM      2  C   UNL     1       0.908   9.868  19.357  0.00  0.00    +0.000 A 
ATOM      3  C   UNL     1       1.266  10.245  17.953  0.00  0.00    +0.000 C 
ATOM      4  C   UNL     1       1.298   8.731  19.973  0.00  0.00    +0.000 A 
ATOM      5  S   UNL     1       0.626   8.592  21.575  0.00  0.00    +0.000 S 
ATOM      6  C   UNL     1      -0.207  10.132  21.413  0.00  0.00    +0.000 A 
ATOM      7  O   UNL     1      -0.929  10.592  22.280  0.00  0.00    +0.000 OA
ENDROOT
BRANCH   4   8
ATOM      8  C   UNL     1       2.185   7.647  19.441  0.00  0.00    +0.000 C 
ATOM      9  O   UNL     1       2.541   7.610  18.269  0.00  0.00    +0.000 OA
ATOM     10  N   UNL     1       2.561   6.704  20.374  0.00  0.00    +0.000 N 
ATOM     11  H   UNL     1       2.218   6.809  21.322  0.00  0.00    +0.000 HD
BRANCH  10  12
ATOM     12  C   UNL     1       3.397   5.564  20.082  0.00  0.00    +0.000 C 
BRANCH  12  13
ATOM     13  C   UNL     1       2.609   4.418  19.487  0.00  0.00    +0.000 A 
ATOM     14  C   UNL     1       1.453   4.008  20.179  0.00  0.00    +0.000 A 
ATOM     15  C   UNL     1       0.688   2.924  19.744  0.00  0.00    +0.000 A 
ATOM     16  C   UNL     1       1.064   2.226  18.605  0.00  0.00    +0.000 A 
ATOM     17  C   UNL     1       2.184   2.635  17.884  0.00  0.00    +0.000 A 
ATOM     18  C   UNL     1       2.960   3.744  18.292  0.00  0.00    +0.000 A 
BRANCH  18  19
ATOM     19  C   UNL     1       4.115   4.123  17.391  0.00  0.00    +0.000 C 
ATOM     20  F   UNL     1       4.373   3.251  16.380  0.00  0.00    +0.000 F 
ATOM     21  F   UNL     1       3.931   5.336  16.797  0.00  0.00    +0.000 F 
ATOM     22  F   UNL     1       5.287   4.227  18.081  0.00  0.00    +0.000 F 
ENDBRANCH  18  19
ENDBRANCH  12  13
ENDBRANCH  10  12
ENDBRANCH   4   8
BRANCH   1  23
ATOM     23  C   UNL     1      -0.473  11.964  19.821  0.00  0.00    +0.000 C 
BRANCH  23  27
ATOM     24  C   UNL     1      -4.613  11.690  18.530  0.00  0.00    +0.000 A 
ATOM     25  C   UNL     1      -3.589  11.155  17.746  0.00  0.00    +0.000 A 
ATOM     26  C   UNL     1      -2.252  11.259  18.149  0.00  0.00    +0.000 A 
ATOM     27  C   UNL     1      -1.911  11.910  19.343  0.00  0.00    +0.000 A 
ATOM     28  C   UNL     1      -2.943  12.480  20.106  0.00  0.00    +0.000 A 
ATOM     29  C   UNL     1      -4.281  12.369  19.704  0.00  0.00    +0.000 A 
BRANCH  24  31
ATOM     30  C   UNL     1      -7.169  12.261  19.407  0.00  0.00    +0.000 C 
ATOM     31  S   UNL     1      -6.304  11.544  17.981  0.00  0.00    +0.000 S 
ENDBRANCH  24  31
ENDBRANCH  23  27
ENDBRANCH   1  23
TORSDOF 7
ENDMDL
MODEL 3
REMARK VINA RESULT:      -7.6      1.928      2.430
REMARK  Name = 
REMARK  9 active torsions:
REMARK  status: ('A' for Active; 'I' for Inactive)
REMARK    1  A    between atoms: C_1  and  S_2
REMARK    2  A    between atoms: S_2  and  C_3
REMARK    3  A    between atoms: C_6  and  C_7
REMARK    4  A    between atoms: C_7  and  N_8
REMARK    5  A    between atoms: C_9  and  C_10
REMARK    6  A    between atoms: C_11  and  C_12
REMARK    7  A    between atoms: N_14  and  C_15
REMARK    8  A    between atoms: C_15  and  C_16
REMARK    9  A    between atoms: C_21  and  C_22
REMARK                            x       y       z     vdW  Elec       q    Type
REMARK                         _______ _______ _______ _____ _____    ______ ____
ROOT
ATOM      1  N   UNL     1       1.157   9.527  19.566  0.00  0.00    +0.000 N 
ATOM      2  C   UNL     1       1.865   8.485  18.955  0.00  0.00    +0.000 A 
ATOM      3  C   UNL     1       2.293   8.537  17.520  0.00  0.00    +0.000 C 
ATOM      4  C   UNL     1       2.082   7.443  19.786  0.00  0.00    +0.000 A 
ATOM      5  S   UNL     1       1.374   7.702  21.357  0.00  0.00    +0.000 S 
ATOM      6  C   UNL     1       0.769   9.282  20.878  0.00  0.00    +0.000 A 
ATOM      7  O   UNL     1       0.106   9.991  21.615  0.00  0.00    +0.000 OA
ENDROOT
BRANCH   4   8
ATOM      8  C   UNL     1       2.817   6.168  19.501  0.00  0.00    +0.000 C 
ATOM      9  O   UNL     1       2.234   5.102  19.337  0.00  0.00    +0.000 OA
ATOM     10  N   UNL     1       4.188   6.296  19.444  0.00  0.00    +0.000 N 
ATOM     11  H   UNL     1       4.588   7.215  19.595  0.00  0.00    +0.000 HD
BRANCH  10  12
ATOM     12  C   UNL     1       5.094   5.199  19.200  0.00  0.00    +0.000 C 
BRANCH  12  13
ATOM     13  C   UNL     1       5.415   5.042  17.730  0.00  0.00    +0.000 A 
ATOM     14  C   UNL     1       4.694   4.064  17.018  0.00  0.00    +0.000 A 
ATOM     15  C   UNL     1       4.955   3.802  15.672  0.00  0.00    +0.000 A 
ATOM     16  C   UNL     1       5.944   4.514  15.008  0.00  0.00    +0.000 A 
ATOM     17  C   UNL     1       6.646   5.511  15.683  0.00  0.00    +0.000 A 
ATOM     18  C   UNL     1       6.383   5.809  17.039  0.00  0.00    +0.000 A 
BRANCH  18  19
ATOM     19  C   UNL     1       7.172   6.953  17.639  0.00  0.00    +0.000 C 
ATOM     20  F   UNL     1       7.815   6.667  18.803  0.00  0.00    +0.000 F 
ATOM     21  F   UNL     1       8.130   7.421  16.790  0.00  0.00    +0.000 F 
ATOM     22  F   UNL     1       6.379   8.025  17.923  0.00  0.00    +0.000 F 
ENDBRANCH  18  19
ENDBRANCH  12  13
ENDBRANCH  10  12
ENDBRANCH   4   8
BRANCH   1  23
ATOM     23  C   UNL     1       0.786  10.798  18.964  0.00  0.00    +0.000 C 
BRANCH  23  27
ATOM     24  C   UNL     1      -3.460  11.043  18.072  0.00  0.00    +0.000 A 
ATOM     25  C   UNL     1      -2.637  10.162  17.368  0.00  0.00    +0.000 A 
ATOM     26  C   UNL     1      -1.265  10.094  17.639  0.00  0.00    +0.000 A 
ATOM     27  C   UNL     1      -0.686  10.915  18.616  0.00  0.00    +0.000 A 
ATOM     28  C   UNL     1      -1.512  11.827  19.292  0.00  0.00    +0.000 A 
ATOM     29  C   UNL     1      -2.886  11.888  19.024  0.00  0.00    +0.000 A 
BRANCH  24  31
ATOM     30  C   UNL     1      -5.657  12.653  18.527  0.00  0.00    +0.000 C 
ATOM     31  S   UNL     1      -5.203  11.105  17.696  0.00  0.00    +0.000 S 
ENDBRANCH  24  31
ENDBRANCH  23  27
ENDBRANCH   1  23
TORSDOF 7
ENDMDL
MODEL 4
REMARK VINA RESULT:      -7.5      2.643      3.694
REMARK  Name = 
REMARK  9 active torsions:
REMARK  status: ('A' for Active; 'I' for Inactive)
REMARK    1  A    between atoms: C_1  and  S_2
REMARK    2  A    between atoms: S_2  and  C_3
REMARK    3  A    between atoms: C_6  and  C_7
REMARK    4  A    between atoms: C_7  and  N_8
REMARK    5  A    between atoms: C_9  and  C_10
REMARK    6  A    between atoms: C_11  and  C_12
REMARK    7  A    between atoms: N_14  and  C_15
REMARK    8  A    between atoms: C_15  and  C_16
REMARK    9  A    between atoms: C_21  and  C_22
REMARK                            x       y       z     vdW  Elec       q    Type
REMARK                         _______ _______ _______ _____ _____    ______ ____
ROOT
ATOM      1  N   UNL     1       0.273  11.046  21.387  0.00  0.00    +0.000 N 
ATOM      2  C   UNL     1       0.643  10.797  20.059  0.00  0.00    +0.000 A 
ATOM      3  C   UNL     1       0.509  11.828  18.982  0.00  0.00    +0.000 C 
ATOM      4  C   UNL     1       1.094   9.539  19.870  0.00  0.00    +0.000 A 
ATOM      5  S   UNL     1       1.037   8.596  21.334  0.00  0.00    +0.000 S 
ATOM      6  C   UNL     1       0.388   9.955  22.242  0.00  0.00    +0.000 A 
ATOM      7  O   UNL     1       0.088   9.884  23.421  0.00  0.00    +0.000 OA
ENDROOT
BRANCH   4   8
ATOM      8  C   UNL     1       1.595   8.915  18.602  0.00  0.00    +0.000 C 
ATOM      9  O   UNL     1       1.138   9.209  17.504  0.00  0.00    +0.000 OA
ATOM     10  N   UNL     1       2.604   7.991  18.777  0.00  0.00    +0.000 N 
ATOM     11  H   UNL     1       2.921   7.806  19.721  0.00  0.00    +0.000 HD
BRANCH  10  12
ATOM     12  C   UNL     1       3.224   7.257  17.701  0.00  0.00    +0.000 C 
BRANCH  12  13
ATOM     13  C   UNL     1       3.026   5.764  17.842  0.00  0.00    +0.000 A 
ATOM     14  C   UNL     1       1.854   5.332  18.496  0.00  0.00    +0.000 A 
ATOM     15  C   UNL     1       1.605   3.979  18.727  0.00  0.00    +0.000 A 
ATOM     16  C   UNL     1       2.522   3.025  18.308  0.00  0.00    +0.000 A 
ATOM     17  C   UNL     1       3.671   3.426  17.628  0.00  0.00    +0.000 A 
ATOM     18  C   UNL     1       3.933   4.790  17.362  0.00  0.00    +0.000 A 
BRANCH  18  19
ATOM     19  C   UNL     1       5.183   5.089  16.565  0.00  0.00    +0.000 C 
ATOM     20  F   UNL     1       4.989   5.807  15.426  0.00  0.00    +0.000 F 
ATOM     21  F   UNL     1       6.105   5.785  17.289  0.00  0.00    +0.000 F 
ATOM     22  F   UNL     1       5.818   3.949  16.164  0.00  0.00    +0.000 F 
ENDBRANCH  18  19
ENDBRANCH  12  13
ENDBRANCH  10  12
ENDBRANCH   4   8
BRANCH   1  23
ATOM     23  C   UNL     1      -0.222  12.299  21.933  0.00  0.00    +0.000 C 
BRANCH  23  27
ATOM     24  C   UNL     1      -4.542  12.755  22.039  0.00  0.00    +0.000 A 
ATOM     25  C   UNL     1      -3.827  12.496  23.210  0.00  0.00    +0.000 A 
ATOM     26  C   UNL     1      -2.438  12.329  23.176  0.00  0.00    +0.000 A 
ATOM     27  C   UNL     1      -1.734  12.408  21.967  0.00  0.00    +0.000 A 
ATOM     28  C   UNL     1      -2.464  12.630  20.788  0.00  0.00    +0.000 A 
ATOM     29  C   UNL     1      -3.854  12.804  20.824  0.00  0.00    +0.000 A 
BRANCH  24  31
ATOM     30  C   UNL     1      -6.547  13.044  23.917  0.00  0.00    +0.000 C 
ATOM     31  S   UNL     1      -6.313  12.957  22.119  0.00  0.00    +0.000 S 
ENDBRANCH  24  31
ENDBRANCH  23  27
ENDBRANCH   1  23
TORSDOF 7
ENDMDL
MODEL 5
REMARK VINA RESULT:      -7.5      2.274      3.412
REMARK  Name = 
REMARK  9 active torsions:
REMARK  status: ('A' for Active; 'I' for Inactive)
REMARK    1  A    between atoms: C_1  and  S_2
REMARK    2  A    between atoms: S_2  and  C_3
REMARK    3  A    between atoms: C_6  and  C_7
REMARK    4  A    between atoms: C_7  and  N_8
REMARK    5  A    between atoms: C_9  and  C_10
REMARK    6  A    between atoms: C_11  and  C_12
REMARK    7  A    between atoms: N_14  and  C_15
REMARK    8  A    between atoms: C_15  and  C_16
REMARK    9  A    between atoms: C_21  and  C_22
REMARK                            x       y       z     vdW  Elec       q    Type
REMARK                         _______ _______ _______ _____ _____    ______ ____
ROOT
ATOM      1  N   UNL     1       0.006  11.105  21.300  0.00  0.00    +0.000 N 
ATOM      2  C   UNL     1       0.613  10.563  20.160  0.00  0.00    +0.000 A 
ATOM      3  C   UNL     1       0.757  11.334  18.884  0.00  0.00    +0.000 C 
ATOM      4  C   UNL     1       1.014   9.287  20.338  0.00  0.00    +0.000 A 
ATOM      5  S   UNL     1       0.614   8.691  21.926  0.00  0.00    +0.000 S 
ATOM      6  C   UNL     1      -0.116  10.227  22.372  0.00  0.00    +0.000 A 
ATOM      7  O   UNL     1      -0.645  10.423  23.452  0.00  0.00    +0.000 OA
ENDROOT
BRANCH   4   8
ATOM      8  C   UNL     1       1.716   8.391  19.363  0.00  0.00    +0.000 C 
ATOM      9  O   UNL     1       1.690   8.594  18.155  0.00  0.00    +0.000 OA
ATOM     10  N   UNL     1       2.384   7.329  19.936  0.00  0.00    +0.000 N 
ATOM     11  H   UNL     1       2.351   7.235  20.944  0.00  0.00    +0.000 HD
BRANCH  10  12
ATOM     12  C   UNL     1       3.112   6.332  19.188  0.00  0.00    +0.000 C 
BRANCH  12  13
ATOM     13  C   UNL     1       2.594   4.935  19.448  0.00  0.00    +0.000 A 
ATOM     14  C   UNL     1       1.558   4.801  20.393  0.00  0.00    +0.000 A 
ATOM     15  C   UNL     1       1.049   3.550  20.746  0.00  0.00    +0.000 A 
ATOM     16  C   UNL     1       1.566   2.404  20.159  0.00  0.00    +0.000 A 
ATOM     17  C   UNL     1       2.567   2.514  19.196  0.00  0.00    +0.000 A 
ATOM     18  C   UNL     1       3.081   3.772  18.806  0.00  0.00    +0.000 A 
BRANCH  18  19
ATOM     19  C   UNL     1       4.122   3.759  17.708  0.00  0.00    +0.000 C 
ATOM     20  F   UNL     1       4.332   2.551  17.119  0.00  0.00    +0.000 F 
ATOM     21  F   UNL     1       3.814   4.617  16.694  0.00  0.00    +0.000 F 
ATOM     22  F   UNL     1       5.346   4.153  18.161  0.00  0.00    +0.000 F 
ENDBRANCH  18  19
ENDBRANCH  12  13
ENDBRANCH  10  12
ENDBRANCH   4   8
BRANCH   1  23
ATOM     23  C   UNL     1      -0.509  12.456  21.454  0.00  0.00    +0.000 C 
BRANCH  23  27
ATOM     24  C   UNL     1      -4.821  12.654  20.961  0.00  0.00    +0.000 A 
ATOM     25  C   UNL     1      -3.985  12.532  19.850  0.00  0.00    +0.000 A 
ATOM     26  C   UNL     1      -2.594  12.488  20.004  0.00  0.00    +0.000 A 
ATOM     27  C   UNL     1      -2.010  12.574  21.274  0.00  0.00    +0.000 A 
ATOM     28  C   UNL     1      -2.855  12.736  22.384  0.00  0.00    +0.000 A 
ATOM     29  C   UNL     1      -4.247  12.774  22.229  0.00  0.00    +0.000 A 
BRANCH  24  31
ATOM     30  C   UNL     1      -7.143  12.728  22.455  0.00  0.00    +0.000 C 
ATOM     31  S   UNL     1      -6.589  12.713  20.727  0.00  0.00    +0.000 S 
ENDBRANCH  24  31
ENDBRANCH  23  27
ENDBRANCH   1  23
TORSDOF 7
ENDMDL
MODEL 6
REMARK VINA RESULT:      -7.5      2.453      3.352
REMARK  Name = 
REMARK  9 active torsions:
REMARK  status: ('A' for Active; 'I' for Inactive)
REMARK    1  A    between atoms: C_1  and  S_2
REMARK    2  A    between atoms: S_2  and  C_3
REMARK    3  A    between atoms: C_6  and  C_7
REMARK    4  A    between atoms: C_7  and  N_8
REMARK    5  A    between atoms: C_9  and  C_10
REMARK    6  A    between atoms: C_11  and  C_12
REMARK    7  A    between atoms: N_14  and  C_15
REMARK    8  A    between atoms: C_15  and  C_16
REMARK    9  A    between atoms: C_21  and  C_22
REMARK                            x       y       z     vdW  Elec       q    Type
REMARK                         _______ _______ _______ _____ _____    ______ ____
ROOT
ATOM      1  N   UNL     1       0.148  11.196  21.177  0.00  0.00    +0.000 N 
ATOM      2  C   UNL     1       0.730  10.573  20.065  0.00  0.00    +0.000 A 
ATOM      3  C   UNL     1       0.849  11.252  18.735  0.00  0.00    +0.000 C 
ATOM      4  C   UNL     1       1.130   9.310  20.323  0.00  0.00    +0.000 A 
ATOM      5  S   UNL     1       0.761   8.828  21.957  0.00  0.00    +0.000 S 
ATOM      6  C   UNL     1       0.046  10.396  22.309  0.00  0.00    +0.000 A 
ATOM      7  O   UNL     1      -0.460  10.669  23.384  0.00  0.00    +0.000 OA
ENDROOT
BRANCH   4   8
ATOM      8  C   UNL     1       1.808   8.345  19.399  0.00  0.00    +0.000 C 
ATOM      9  O   UNL     1       1.954   8.578  18.205  0.00  0.00    +0.000 OA
ATOM     10  N   UNL     1       2.248   7.185  20.001  0.00  0.00    +0.000 N 
ATOM     11  H   UNL     1       2.083   7.073  20.994  0.00  0.00    +0.000 HD
BRANCH  10  12
ATOM     12  C   UNL     1       2.911   6.111  19.301  0.00  0.00    +0.000 C 
BRANCH  12  13
ATOM     13  C   UNL     1       2.519   4.753  19.841  0.00  0.00    +0.000 A 
ATOM     14  C   UNL     1       2.324   4.648  21.232  0.00  0.00    +0.000 A 
ATOM     15  C   UNL     1       2.017   3.428  21.835  0.00  0.00    +0.000 A 
ATOM     16  C   UNL     1       1.895   2.284  21.059  0.00  0.00    +0.000 A 
ATOM     17  C   UNL     1       2.048   2.370  19.676  0.00  0.00    +0.000 A 
ATOM     18  C   UNL     1       2.338   3.600  19.041  0.00  0.00    +0.000 A 
BRANCH  18  19
ATOM     19  C   UNL     1       2.420   3.570  17.531  0.00  0.00    +0.000 C 
ATOM     20  F   UNL     1       3.579   4.049  17.002  0.00  0.00    +0.000 F 
ATOM     21  F   UNL     1       2.276   2.311  17.029  0.00  0.00    +0.000 F 
ATOM     22  F   UNL     1       1.432   4.310  16.951  0.00  0.00    +0.000 F 
ENDBRANCH  18  19
ENDBRANCH  12  13
ENDBRANCH  10  12
ENDBRANCH   4   8
BRANCH   1  23
ATOM     23  C   UNL     1      -0.359  12.556  21.246  0.00  0.00    +0.000 C 
BRANCH  23  27
ATOM     24  C   UNL     1      -4.662  12.765  20.680  0.00  0.00    +0.000 A 
ATOM     25  C   UNL     1      -3.828  12.358  19.637  0.00  0.00    +0.000 A 
ATOM     26  C   UNL     1      -2.440  12.308  19.810  0.00  0.00    +0.000 A 
ATOM     27  C   UNL     1      -1.855  12.675  21.029  0.00  0.00    +0.000 A 
ATOM     28  C   UNL     1      -2.696  13.121  22.061  0.00  0.00    +0.000 A 
ATOM     29  C   UNL     1      -4.086  13.164  21.889  0.00  0.00    +0.000 A 
BRANCH  24  31
ATOM     30  C   UNL     1      -6.512  12.349  18.671  0.00  0.00    +0.000 C 
ATOM     31  S   UNL     1      -6.427  12.821  20.422  0.00  0.00    +0.000 S 
ENDBRANCH  24  31
ENDBRANCH  23  27
ENDBRANCH   1  23
TORSDOF 7
ENDMDL
MODEL 7
REMARK VINA RESULT:      -7.5      2.350      3.325
REMARK  Name = 
REMARK  9 active torsions:
REMARK  status: ('A' for Active; 'I' for Inactive)
REMARK    1  A    between atoms: C_1  and  S_2
REMARK    2  A    between atoms: S_2  and  C_3
REMARK    3  A    between atoms: C_6  and  C_7
REMARK    4  A    between atoms: C_7  and  N_8
REMARK    5  A    between atoms: C_9  and  C_10
REMARK    6  A    between atoms: C_11  and  C_12
REMARK    7  A    between atoms: N_14  and  C_15
REMARK    8  A    between atoms: C_15  and  C_16
REMARK    9  A    between atoms: C_21  and  C_22
REMARK                            x       y       z     vdW  Elec       q    Type
REMARK                         _______ _______ _______ _____ _____    ______ ____
ROOT
ATOM      1  N   UNL     1       0.200  10.779  21.152  0.00  0.00    +0.000 N 
ATOM      2  C   UNL     1       0.864  10.606  19.931  0.00  0.00    +0.000 A 
ATOM      3  C   UNL     1       1.128  11.741  18.991  0.00  0.00    +0.000 C 
ATOM      4  C   UNL     1       1.201   9.319  19.698  0.00  0.00    +0.000 A 
ATOM      5  S   UNL     1       0.666   8.261  20.976  0.00  0.00    +0.000 S 
ATOM      6  C   UNL     1      -0.032   9.609  21.865  0.00  0.00    +0.000 A 
ATOM      7  O   UNL     1      -0.628   9.471  22.919  0.00  0.00    +0.000 OA
ENDROOT
BRANCH   4   8
ATOM      8  C   UNL     1       1.934   8.751  18.520  0.00  0.00    +0.000 C 
ATOM      9  O   UNL     1       1.899   9.277  17.415  0.00  0.00    +0.000 OA
ATOM     10  N   UNL     1       2.641   7.598  18.786  0.00  0.00    +0.000 N 
ATOM     11  H   UNL     1       2.613   7.229  19.729  0.00  0.00    +0.000 HD
BRANCH  10  12
ATOM     12  C   UNL     1       3.404   6.871  17.800  0.00  0.00    +0.000 C 
BRANCH  12  13
ATOM     13  C   UNL     1       3.057   5.399  17.782  0.00  0.00    +0.000 A 
ATOM     14  C   UNL     1       1.817   5.027  18.338  0.00  0.00    +0.000 A 
ATOM     15  C   UNL     1       1.427   3.689  18.422  0.00  0.00    +0.000 A 
ATOM     16  C   UNL     1       2.270   2.693  17.949  0.00  0.00    +0.000 A 
ATOM     17  C   UNL     1       3.486   3.040  17.363  0.00  0.00    +0.000 A 
ATOM     18  C   UNL     1       3.891   4.389  17.246  0.00  0.00    +0.000 A 
BRANCH  18  19
ATOM     19  C   UNL     1       5.204   4.636  16.537  0.00  0.00    +0.000 C 
ATOM     20  F   UNL     1       5.821   3.525  16.052  0.00  0.00    +0.000 F 
ATOM     21  F   UNL     1       5.066   5.478  15.473  0.00  0.00    +0.000 F 
ATOM     22  F   UNL     1       6.122   5.227  17.354  0.00  0.00    +0.000 F 
ENDBRANCH  18  19
ENDBRANCH  12  13
ENDBRANCH  10  12
ENDBRANCH   4   8
BRANCH   1  23
ATOM     23  C   UNL     1      -0.271  12.034  21.716  0.00  0.00    +0.000 C 
BRANCH  23  27
ATOM     24  C   UNL     1      -4.500  12.718  20.991  0.00  0.00    +0.000 A 
ATOM     25  C   UNL     1      -3.615  12.552  19.924  0.00  0.00    +0.000 A 
ATOM     26  C   UNL     1      -2.249  12.351  20.154  0.00  0.00    +0.000 A 
ATOM     27  C   UNL     1      -1.737  12.321  21.458  0.00  0.00    +0.000 A 
ATOM     28  C   UNL     1      -2.626  12.529  22.525  0.00  0.00    +0.000 A 
ATOM     29  C   UNL     1      -3.995  12.723  22.293  0.00  0.00    +0.000 A 
BRANCH  24  31
ATOM     30  C   UNL     1      -6.949  12.423  22.234  0.00  0.00    +0.000 C 
ATOM     31  S   UNL     1      -6.234  12.977  20.660  0.00  0.00    +0.000 S 
ENDBRANCH  24  31
ENDBRANCH  23  27
ENDBRANCH   1  23
TORSDOF 7
ENDMDL
MODEL 8
REMARK VINA RESULT:      -7.4      1.123      1.679
REMARK  Name = 
REMARK  9 active torsions:
REMARK  status: ('A' for Active; 'I' for Inactive)
REMARK    1  A    between atoms: C_1  and  S_2
REMARK    2  A    between atoms: S_2  and  C_3
REMARK    3  A    between atoms: C_6  and  C_7
REMARK    4  A    between atoms: C_7  and  N_8
REMARK    5  A    between atoms: C_9  and  C_10
REMARK    6  A    between atoms: C_11  and  C_12
REMARK    7  A    between atoms: N_14  and  C_15
REMARK    8  A    between atoms: C_15  and  C_16
REMARK    9  A    between atoms: C_21  and  C_22
REMARK                            x       y       z     vdW  Elec       q    Type
REMARK                         _______ _______ _______ _____ _____    ______ ____
ROOT
ATOM      1  N   UNL     1       0.843   9.947  19.745  0.00  0.00    +0.000 N 
ATOM      2  C   UNL     1       1.409   8.845  19.091  0.00  0.00    +0.000 A 
ATOM      3  C   UNL     1       1.606   8.806  17.607  0.00  0.00    +0.000 C 
ATOM      4  C   UNL     1       1.717   7.839  19.936  0.00  0.00    +0.000 A 
ATOM      5  S   UNL     1       1.276   8.207  21.582  0.00  0.00    +0.000 S 
ATOM      6  C   UNL     1       0.658   9.786  21.113  0.00  0.00    +0.000 A 
ATOM      7  O   UNL     1       0.145  10.560  21.903  0.00  0.00    +0.000 OA
ENDROOT
BRANCH   4   8
ATOM      8  C   UNL     1       2.352   6.519  19.614  0.00  0.00    +0.000 C 
ATOM      9  O   UNL     1       2.361   5.588  20.410  0.00  0.00    +0.000 OA
ATOM     10  N   UNL     1       2.918   6.446  18.360  0.00  0.00    +0.000 N 
ATOM     11  H   UNL     1       2.867   7.265  17.765  0.00  0.00    +0.000 HD
BRANCH  10  12
ATOM     12  C   UNL     1       3.597   5.281  17.845  0.00  0.00    +0.000 C 
BRANCH  12  13
ATOM     13  C   UNL     1       5.099   5.392  17.978  0.00  0.00    +0.000 A 
ATOM     14  C   UNL     1       5.631   5.353  19.282  0.00  0.00    +0.000 A 
ATOM     15  C   UNL     1       6.999   5.505  19.517  0.00  0.00    +0.000 A 
ATOM     16  C   UNL     1       7.866   5.697  18.450  0.00  0.00    +0.000 A 
ATOM     17  C   UNL     1       7.367   5.704  17.149  0.00  0.00    +0.000 A 
ATOM     18  C   UNL     1       5.989   5.529  16.886  0.00  0.00    +0.000 A 
BRANCH  18  19
ATOM     19  C   UNL     1       5.584   5.497  15.429  0.00  0.00    +0.000 C 
ATOM     20  F   UNL     1       4.767   4.468  15.076  0.00  0.00    +0.000 F 
ATOM     21  F   UNL     1       4.936   6.634  15.047  0.00  0.00    +0.000 F 
ATOM     22  F   UNL     1       6.663   5.395  14.601  0.00  0.00    +0.000 F 
ENDBRANCH  18  19
ENDBRANCH  12  13
ENDBRANCH  10  12
ENDBRANCH   4   8
BRANCH   1  23
ATOM     23  C   UNL     1       0.427  11.201  19.137  0.00  0.00    +0.000 C 
BRANCH  23  27
ATOM     24  C   UNL     1      -3.776  11.493  18.074  0.00  0.00    +0.000 A 
ATOM     25  C   UNL     1      -3.257  12.250  19.125  0.00  0.00    +0.000 A 
ATOM     26  C   UNL     1      -1.907  12.144  19.483  0.00  0.00    +0.000 A 
ATOM     27  C   UNL     1      -1.051  11.269  18.801  0.00  0.00    +0.000 A 
ATOM     28  C   UNL     1      -1.589  10.481  17.771  0.00  0.00    +0.000 A 
ATOM     29  C   UNL     1      -2.939  10.594  17.410  0.00  0.00    +0.000 A 
BRANCH  24  31
ATOM     30  C   UNL     1      -6.228  10.442  18.792  0.00  0.00    +0.000 C 
ATOM     31  S   UNL     1      -5.502  11.651  17.650  0.00  0.00    +0.000 S 
ENDBRANCH  24  31
ENDBRANCH  23  27
ENDBRANCH   1  23
TORSDOF 7
ENDMDL
MODEL 9
REMARK VINA RESULT:      -7.4      1.273      1.668
REMARK  Name = 
REMARK  9 active torsions:
REMARK  status: ('A' for Active; 'I' for Inactive)
REMARK    1  A    between atoms: C_1  and  S_2
REMARK    2  A    between atoms: S_2  and  C_3
REMARK    3  A    between atoms: C_6  and  C_7
REMARK    4  A    between atoms: C_7  and  N_8
REMARK    5  A    between atoms: C_9  and  C_10
REMARK    6  A    between atoms: C_11  and  C_12
REMARK    7  A    between atoms: N_14  and  C_15
REMARK    8  A    between atoms: C_15  and  C_16
REMARK    9  A    between atoms: C_21  and  C_22
REMARK                            x       y       z     vdW  Elec       q    Type
REMARK                         _______ _______ _______ _____ _____    ______ ____
ROOT
ATOM      1  N   UNL     1       0.963  10.200  19.896  0.00  0.00    +0.000 N 
ATOM      2  C   UNL     1       1.397   9.086  19.166  0.00  0.00    +0.000 A 
ATOM      3  C   UNL     1       1.462   9.081  17.670  0.00  0.00    +0.000 C 
ATOM      4  C   UNL     1       1.713   8.036  19.954  0.00  0.00    +0.000 A 
ATOM      5  S   UNL     1       1.441   8.379  21.641  0.00  0.00    +0.000 S 
ATOM      6  C   UNL     1       0.889  10.008  21.271  0.00  0.00    +0.000 A 
ATOM      7  O   UNL     1       0.498  10.787  22.123  0.00  0.00    +0.000 OA
ENDROOT
BRANCH   4   8
ATOM      8  C   UNL     1       2.230   6.691  19.543  0.00  0.00    +0.000 C 
ATOM      9  O   UNL     1       2.054   5.688  20.223  0.00  0.00    +0.000 OA
ATOM     10  N   UNL     1       2.915   6.681  18.346  0.00  0.00    +0.000 N 
ATOM     11  H   UNL     1       3.017   7.557  17.849  0.00  0.00    +0.000 HD
BRANCH  10  12
ATOM     12  C   UNL     1       3.513   5.502  17.766  0.00  0.00    +0.000 C 
BRANCH  12  13
ATOM     13  C   UNL     1       5.015   5.481  17.943  0.00  0.00    +0.000 A 
ATOM     14  C   UNL     1       5.504   5.419  19.263  0.00  0.00    +0.000 A 
ATOM     15  C   UNL     1       6.873   5.451  19.536  0.00  0.00    +0.000 A 
ATOM     16  C   UNL     1       7.784   5.546  18.493  0.00  0.00    +0.000 A 
ATOM     17  C   UNL     1       7.325   5.573  17.177  0.00  0.00    +0.000 A 
ATOM     18  C   UNL     1       5.944   5.518  16.876  0.00  0.00    +0.000 A 
BRANCH  18  19
ATOM     19  C   UNL     1       5.579   5.495  15.408  0.00  0.00    +0.000 C 
ATOM     20  F   UNL     1       6.630   5.400  14.549  0.00  0.00    +0.000 F 
ATOM     21  F   UNL     1       4.751   4.457  15.097  0.00  0.00    +0.000 F 
ATOM     22  F   UNL     1       4.911   6.622  15.031  0.00  0.00    +0.000 F 
ENDBRANCH  18  19
ENDBRANCH  12  13
ENDBRANCH  10  12
ENDBRANCH   4   8
BRANCH   1  23
ATOM     23  C   UNL     1       0.577  11.495  19.360  0.00  0.00    +0.000 C 
BRANCH  23  27
ATOM     24  C   UNL     1      -3.733  11.946  19.049  0.00  0.00    +0.000 A 
ATOM     25  C   UNL     1      -3.035  11.156  18.134  0.00  0.00    +0.000 A 
ATOM     26  C   UNL     1      -1.644  11.024  18.220  0.00  0.00    +0.000 A 
ATOM     27  C   UNL     1      -0.920  11.689  19.219  0.00  0.00    +0.000 A 
ATOM     28  C   UNL     1      -1.624  12.514  20.111  0.00  0.00    +0.000 A 
ATOM     29  C   UNL     1      -3.018  12.639  20.028  0.00  0.00    +0.000 A 
BRANCH  24  31
ATOM     30  C   UNL     1      -5.672  12.254  17.105  0.00  0.00    +0.000 C 
ATOM     31  S   UNL     1      -5.506  12.094  18.906  0.00  0.00    +0.000 S 
ENDBRANCH  24  31
ENDBRANCH  23  27
ENDBRANCH   1  23
TORSDOF 7
ENDMDL
