MODEL 1
REMARK VINA RESULT:      -9.1      0.000      0.000
REMARK  Name = 
REMARK  7 active torsions:
REMARK  status: ('A' for Active; 'I' for Inactive)
REMARK    1  A    between atoms: C_1  and  O_2
REMARK    2  A    between atoms: O_2  and  C_3
REMARK    3  A    between atoms: C_8  and  N_9
REMARK    4  A    between atoms: C_10  and  C_12
REMARK    5  A    between atoms: C_12  and  N_13
REMARK    6  A    between atoms: N_20  and  C_21
REMARK    7  A    between atoms: N_24  and  C_25
REMARK                            x       y       z     vdW  Elec       q    Type
REMARK                         _______ _______ _______ _____ _____    ______ ____
ROOT
ATOM      1  N   UNL     1       2.626   6.356  19.957  0.00  0.00    +0.000 N 
ATOM      2  C   UNL     1       2.192   5.051  20.148  0.00  0.00    +0.000 C 
ATOM      3  O   UNL     1       1.033   4.703  20.376  0.00  0.00    +0.000 OA
ATOM      4  H   UNL     1       3.591   6.524  19.671  0.00  0.00    +0.000 HD
ENDROOT
BRANCH   1  10
ATOM      5  C   UNL     1       1.592   8.372  19.016  0.00  0.00    +0.000 A 
ATOM      6  C   UNL     1       0.898   9.589  19.171  0.00  0.00    +0.000 A 
ATOM      7  C   UNL     1       0.372   9.924  20.426  0.00  0.00    +0.000 A 
ATOM      8  C   UNL     1       0.591   9.060  21.486  0.00  0.00    +0.000 A 
ATOM      9  C   UNL     1       1.328   7.882  21.391  0.00  0.00    +0.000 A 
ATOM     10  C   UNL     1       1.840   7.532  20.131  0.00  0.00    +0.000 A 
ATOM     11  O   UNL     1      -0.005   9.531  22.615  0.00  0.00    +0.000 OA
ATOM     12  C   UNL     1      -0.617  10.700  22.282  0.00  0.00    +0.000 A 
ATOM     13  C   UNL     1      -1.365  11.494  23.147  0.00  0.00    +0.000 A 
ATOM     14  C   UNL     1      -1.905  12.666  22.603  0.00  0.00    +0.000 A 
ATOM     15  C   UNL     1      -1.696  13.009  21.264  0.00  0.00    +0.000 A 
ATOM     16  C   UNL     1      -0.945  12.184  20.417  0.00  0.00    +0.000 A 
ATOM     17  C   UNL     1      -0.398  11.000  20.943  0.00  0.00    +0.000 A 
BRANCH   5  19
ATOM     18  C   UNL     1       3.446   8.120  17.570  0.00  0.00    +0.000 C 
ATOM     19  O   UNL     1       2.036   7.951  17.778  0.00  0.00    +0.000 OA
ENDBRANCH   5  19
ENDBRANCH   1  10
BRANCH   2  20
ATOM     20  C   UNL     1       3.263   3.987  20.052  0.00  0.00    +0.000 C 
BRANCH  20  21
ATOM     21  N   UNL     1       3.737   3.830  18.688  0.00  0.00    +0.000 N 
ATOM     22  C   UNL     1       3.161   3.067  17.709  0.00  0.00    +0.000 A 
ATOM     23  N   UNL     1       3.774   3.220  16.549  0.00  0.00    +0.000 NA
ATOM     24  C   UNL     1       4.795   4.079  16.816  0.00  0.00    +0.000 A 
ATOM     25  C   UNL     1       4.808   4.460  18.123  0.00  0.00    +0.000 A 
ATOM     26  C   UNL     1       5.784   5.331  18.671  0.00  0.00    +0.000 A 
ATOM     27  O   UNL     1       5.778   5.658  19.857  0.00  0.00    +0.000 OA
ATOM     28  N   UNL     1       6.725   5.749  17.733  0.00  0.00    +0.000 N 
ATOM     29  C   UNL     1       7.799   6.615  18.185  0.00  0.00    +0.000 C 
ATOM     30  C   UNL     1       6.731   5.409  16.363  0.00  0.00    +0.000 A 
ATOM     31  O   UNL     1       7.589   5.863  15.601  0.00  0.00    +0.000 OA
ATOM     32  N   UNL     1       5.728   4.545  15.919  0.00  0.00    +0.000 N 
ATOM     33  C   UNL     1       5.661   4.149  14.523  0.00  0.00    +0.000 C 
ENDBRANCH  20  21
ENDBRANCH   2  20
TORSDOF 4
ENDMDL
MODEL 2
REMARK VINA RESULT:      -8.4      4.464     10.290
REMARK  Name = 
REMARK  7 active torsions:
REMARK  status: ('A' for Active; 'I' for Inactive)
REMARK    1  A    between atoms: C_1  and  O_2
REMARK    2  A    between atoms: O_2  and  C_3
REMARK    3  A    between atoms: C_8  and  N_9
REMARK    4  A    between atoms: C_10  and  C_12
REMARK    5  A    between atoms: C_12  and  N_13
REMARK    6  A    between atoms: N_20  and  C_21
REMARK    7  A    between atoms: N_24  and  C_25
REMARK                            x       y       z     vdW  Elec       q    Type
REMARK                         _______ _______ _______ _____ _____    ______ ____
ROOT
ATOM      1  N   UNL     1       0.295  10.594  19.227  0.00  0.00    +0.000 N 
ATOM      2  C   UNL     1      -0.822  10.856  18.445  0.00  0.00    +0.000 C 
ATOM      3  O   UNL     1      -1.384  10.055  17.699  0.00  0.00    +0.000 OA
ATOM      4  H   UNL     1       0.619  11.300  19.889  0.00  0.00    +0.000 HD
ENDROOT
BRANCH   1  10
ATOM      5  C   UNL     1       1.042   8.526  20.315  0.00  0.00    +0.000 A 
ATOM      6  C   UNL     1       1.869   7.386  20.360  0.00  0.00    +0.000 A 
ATOM      7  C   UNL     1       2.661   7.068  19.248  0.00  0.00    +0.000 A 
ATOM      8  C   UNL     1       2.634   7.917  18.154  0.00  0.00    +0.000 A 
ATOM      9  C   UNL     1       1.884   9.088  18.095  0.00  0.00    +0.000 A 
ATOM     10  C   UNL     1       1.073   9.400  19.199  0.00  0.00    +0.000 A 
ATOM     11  O   UNL     1       3.442   7.446  17.166  0.00  0.00    +0.000 OA
ATOM     12  C   UNL     1       3.989   6.284  17.620  0.00  0.00    +0.000 A 
ATOM     13  C   UNL     1       4.858   5.467  16.904  0.00  0.00    +0.000 A 
ATOM     14  C   UNL     1       5.313   4.317  17.561  0.00  0.00    +0.000 A 
ATOM     15  C   UNL     1       4.908   4.019  18.866  0.00  0.00    +0.000 A 
ATOM     16  C   UNL     1       4.026   4.858  19.557  0.00  0.00    +0.000 A 
ATOM     17  C   UNL     1       3.554   6.015  18.912  0.00  0.00    +0.000 A 
BRANCH   5  19
ATOM     18  C   UNL     1       0.804   9.285  22.542  0.00  0.00    +0.000 C 
ATOM     19  O   UNL     1       0.167   8.819  21.343  0.00  0.00    +0.000 OA
ENDBRANCH   5  19
ENDBRANCH   1  10
BRANCH   2  20
ATOM     20  C   UNL     1      -1.376  12.260  18.550  0.00  0.00    +0.000 C 
BRANCH  20  21
ATOM     21  N   UNL     1      -2.256  12.401  19.697  0.00  0.00    +0.000 N 
ATOM     22  C   UNL     1      -1.883  12.731  20.972  0.00  0.00    +0.000 A 
ATOM     23  N   UNL     1      -2.932  12.882  21.761  0.00  0.00    +0.000 NA
ATOM     24  C   UNL     1      -3.999  12.598  20.965  0.00  0.00    +0.000 A 
ATOM     25  C   UNL     1      -3.616  12.285  19.698  0.00  0.00    +0.000 A 
ATOM     26  C   UNL     1      -4.529  11.923  18.675  0.00  0.00    +0.000 A 
ATOM     27  O   UNL     1      -4.159  11.639  17.536  0.00  0.00    +0.000 OA
ATOM     28  N   UNL     1      -5.854  11.920  19.107  0.00  0.00    +0.000 N 
ATOM     29  C   UNL     1      -6.879  11.528  18.157  0.00  0.00    +0.000 C 
ATOM     30  C   UNL     1      -6.299  12.271  20.399  0.00  0.00    +0.000 A 
ATOM     31  O   UNL     1      -7.502  12.273  20.675  0.00  0.00    +0.000 OA
ATOM     32  N   UNL     1      -5.323  12.613  21.337  0.00  0.00    +0.000 N 
ATOM     33  C   UNL     1      -5.699  12.991  22.688  0.00  0.00    +0.000 C 
ENDBRANCH  20  21
ENDBRANCH   2  20
TORSDOF 4
ENDMDL
MODEL 3
REMARK VINA RESULT:      -8.2      4.369     10.081
REMARK  Name = 
REMARK  7 active torsions:
REMARK  status: ('A' for Active; 'I' for Inactive)
REMARK    1  A    between atoms: C_1  and  O_2
REMARK    2  A    between atoms: O_2  and  C_3
REMARK    3  A    between atoms: C_8  and  N_9
REMARK    4  A    between atoms: C_10  and  C_12
REMARK    5  A    between atoms: C_12  and  N_13
REMARK    6  A    between atoms: N_20  and  C_21
REMARK    7  A    between atoms: N_24  and  C_25
REMARK                            x       y       z     vdW  Elec       q    Type
REMARK                         _______ _______ _______ _____ _____    ______ ____
ROOT
ATOM      1  N   UNL     1       0.177  10.553  18.881  0.00  0.00    +0.000 N 
ATOM      2  C   UNL     1      -0.997  10.664  18.148  0.00  0.00    +0.000 C 
ATOM      3  O   UNL     1      -1.552   9.752  17.536  0.00  0.00    +0.000 OA
ATOM      4  H   UNL     1       0.496  11.348  19.437  0.00  0.00    +0.000 HD
ENDROOT
BRANCH   1  10
ATOM      5  C   UNL     1       1.036   8.615  20.116  0.00  0.00    +0.000 A 
ATOM      6  C   UNL     1       1.925   7.529  20.242  0.00  0.00    +0.000 A 
ATOM      7  C   UNL     1       2.738   7.177  19.156  0.00  0.00    +0.000 A 
ATOM      8  C   UNL     1       2.667   7.942  18.003  0.00  0.00    +0.000 A 
ATOM      9  C   UNL     1       1.852   9.061  17.860  0.00  0.00    +0.000 A 
ATOM     10  C   UNL     1       1.021   9.406  18.939  0.00  0.00    +0.000 A 
ATOM     11  O   UNL     1       3.504   7.447  17.051  0.00  0.00    +0.000 OA
ATOM     12  C   UNL     1       4.113   6.354  17.588  0.00  0.00    +0.000 A 
ATOM     13  C   UNL     1       5.030   5.538  16.932  0.00  0.00    +0.000 A 
ATOM     14  C   UNL     1       5.546   4.466  17.670  0.00  0.00    +0.000 A 
ATOM     15  C   UNL     1       5.155   4.240  18.993  0.00  0.00    +0.000 A 
ATOM     16  C   UNL     1       4.224   5.076  19.622  0.00  0.00    +0.000 A 
ATOM     17  C   UNL     1       3.690   6.155  18.896  0.00  0.00    +0.000 A 
BRANCH   5  19
ATOM     18  C   UNL     1       0.761   9.340  22.349  0.00  0.00    +0.000 C 
ATOM     19  O   UNL     1       0.142   8.932  21.120  0.00  0.00    +0.000 OA
ENDBRANCH   5  19
ENDBRANCH   1  10
BRANCH   2  20
ATOM     20  C   UNL     1      -1.626  12.040  18.128  0.00  0.00    +0.000 C 
BRANCH  20  21
ATOM     21  N   UNL     1      -3.065  11.969  18.312  0.00  0.00    +0.000 N 
ATOM     22  C   UNL     1      -3.991  11.631  17.363  0.00  0.00    +0.000 A 
ATOM     23  N   UNL     1      -5.207  11.557  17.874  0.00  0.00    +0.000 NA
ATOM     24  C   UNL     1      -5.047  11.900  19.182  0.00  0.00    +0.000 A 
ATOM     25  C   UNL     1      -3.746  12.173  19.477  0.00  0.00    +0.000 A 
ATOM     26  C   UNL     1      -3.309  12.581  20.763  0.00  0.00    +0.000 A 
ATOM     27  O   UNL     1      -2.128  12.826  21.007  0.00  0.00    +0.000 OA
ATOM     28  N   UNL     1      -4.349  12.674  21.685  0.00  0.00    +0.000 N 
ATOM     29  C   UNL     1      -4.030  13.119  23.029  0.00  0.00    +0.000 C 
ATOM     30  C   UNL     1      -5.703  12.368  21.433  0.00  0.00    +0.000 A 
ATOM     31  O   UNL     1      -6.548  12.446  22.329  0.00  0.00    +0.000 OA
ATOM     32  N   UNL     1      -6.035  11.975  20.134  0.00  0.00    +0.000 N 
ATOM     33  C   UNL     1      -7.407  11.638  19.793  0.00  0.00    +0.000 C 
ENDBRANCH  20  21
ENDBRANCH   2  20
TORSDOF 4
ENDMDL
MODEL 4
REMARK VINA RESULT:      -8.2      4.851      8.467
REMARK  Name = 
REMARK  7 active torsions:
REMARK  status: ('A' for Active; 'I' for Inactive)
REMARK    1  A    between atoms: C_1  and  O_2
REMARK    2  A    between atoms: O_2  and  C_3
REMARK    3  A    between atoms: C_8  and  N_9
REMARK    4  A    between atoms: C_10  and  C_12
REMARK    5  A    between atoms: C_12  and  N_13
REMARK    6  A    between atoms: N_20  and  C_21
REMARK    7  A    between atoms: N_24  and  C_25
REMARK                            x       y       z     vdW  Elec       q    Type
REMARK                         _______ _______ _______ _____ _____    ______ ____
ROOT
ATOM      1  N   UNL     1       6.886   8.045  16.961  0.00  0.00    +0.000 N 
ATOM      2  C   UNL     1       7.961   8.404  17.763  0.00  0.00    +0.000 C 
ATOM      3  O   UNL     1       8.384   7.769  18.729  0.00  0.00    +0.000 OA
ATOM      4  H   UNL     1       6.684   8.591  16.123  0.00  0.00    +0.000 HD
ENDROOT
BRANCH   1  10
ATOM      5  C   UNL     1       6.172   5.749  16.475  0.00  0.00    +0.000 A 
ATOM      6  C   UNL     1       5.256   4.687  16.614  0.00  0.00    +0.000 A 
ATOM      7  C   UNL     1       4.212   4.798  17.542  0.00  0.00    +0.000 A 
ATOM      8  C   UNL     1       4.093   5.974  18.264  0.00  0.00    +0.000 A 
ATOM      9  C   UNL     1       4.935   7.071  18.110  0.00  0.00    +0.000 A 
ATOM     10  C   UNL     1       5.995   6.957  17.195  0.00  0.00    +0.000 A 
ATOM     11  O   UNL     1       3.043   5.899  19.126  0.00  0.00    +0.000 OA
ATOM     12  C   UNL     1       2.485   4.667  18.966  0.00  0.00    +0.000 A 
ATOM     13  C   UNL     1       1.397   4.175  19.680  0.00  0.00    +0.000 A 
ATOM     14  C   UNL     1       0.974   2.880  19.353  0.00  0.00    +0.000 A 
ATOM     15  C   UNL     1       1.617   2.135  18.360  0.00  0.00    +0.000 A 
ATOM     16  C   UNL     1       2.714   2.657  17.665  0.00  0.00    +0.000 A 
ATOM     17  C   UNL     1       3.158   3.953  17.982  0.00  0.00    +0.000 A 
BRANCH   5  19
ATOM     18  C   UNL     1       7.072   4.810  14.501  0.00  0.00    +0.000 C 
ATOM     19  O   UNL     1       7.276   5.642  15.652  0.00  0.00    +0.000 OA
ENDBRANCH   5  19
ENDBRANCH   1  10
BRANCH   2  20
ATOM     20  C   UNL     1       8.655   9.694  17.384  0.00  0.00    +0.000 C 
BRANCH  20  21
ATOM     21  N   UNL     1       8.944  10.506  18.552  0.00  0.00    +0.000 N 
ATOM     22  C   UNL     1       9.563  10.090  19.700  0.00  0.00    +0.000 A 
ATOM     23  N   UNL     1       9.772  11.095  20.532  0.00  0.00    +0.000 NA
ATOM     24  C   UNL     1       9.231  12.174  19.903  0.00  0.00    +0.000 A 
ATOM     25  C   UNL     1       8.703  11.842  18.693  0.00  0.00    +0.000 A 
ATOM     26  C   UNL     1       8.054  12.775  17.844  0.00  0.00    +0.000 A 
ATOM     27  O   UNL     1       7.579  12.452  16.756  0.00  0.00    +0.000 OA
ATOM     28  N   UNL     1       8.014  14.060  18.381  0.00  0.00    +0.000 N 
ATOM     29  C   UNL     1       7.341  15.096  17.619  0.00  0.00    +0.000 C 
ATOM     30  C   UNL     1       8.578  14.456  19.612  0.00  0.00    +0.000 A 
ATOM     31  O   UNL     1       8.524  15.632  19.985  0.00  0.00    +0.000 OA
ATOM     32  N   UNL     1       9.196  13.464  20.377  0.00  0.00    +0.000 N 
ATOM     33  C   UNL     1       9.806  13.791  21.655  0.00  0.00    +0.000 C 
ENDBRANCH  20  21
ENDBRANCH   2  20
TORSDOF 4
ENDMDL
MODEL 5
REMARK VINA RESULT:      -8.2      4.077      9.925
REMARK  Name = 
REMARK  7 active torsions:
REMARK  status: ('A' for Active; 'I' for Inactive)
REMARK    1  A    between atoms: C_1  and  O_2
REMARK    2  A    between atoms: O_2  and  C_3
REMARK    3  A    between atoms: C_8  and  N_9
REMARK    4  A    between atoms: C_10  and  C_12
REMARK    5  A    between atoms: C_12  and  N_13
REMARK    6  A    between atoms: N_20  and  C_21
REMARK    7  A    between atoms: N_24  and  C_25
REMARK                            x       y       z     vdW  Elec       q    Type
REMARK                         _______ _______ _______ _____ _____    ______ ____
ROOT
ATOM      1  N   UNL     1       0.397  10.994  19.463  0.00  0.00    +0.000 N 
ATOM      2  C   UNL     1       0.754  12.067  20.269  0.00  0.00    +0.000 C 
ATOM      3  O   UNL     1       1.690  12.088  21.067  0.00  0.00    +0.000 OA
ATOM      4  H   UNL     1      -0.334  11.118  18.761  0.00  0.00    +0.000 HD
ENDROOT
BRANCH   1  10
ATOM      5  C   UNL     1       0.689   8.861  20.640  0.00  0.00    +0.000 A 
ATOM      6  C   UNL     1       1.300   7.598  20.769  0.00  0.00    +0.000 A 
ATOM      7  C   UNL     1       2.110   7.119  19.731  0.00  0.00    +0.000 A 
ATOM      8  C   UNL     1       2.315   7.927  18.626  0.00  0.00    +0.000 A 
ATOM      9  C   UNL     1       1.785   9.208  18.488  0.00  0.00    +0.000 A 
ATOM     10  C   UNL     1       0.957   9.685  19.517  0.00  0.00    +0.000 A 
ATOM     11  O   UNL     1       3.105   7.297  17.714  0.00  0.00    +0.000 OA
ATOM     12  C   UNL     1       3.406   6.073  18.228  0.00  0.00    +0.000 A 
ATOM     13  C   UNL     1       4.175   5.100  17.599  0.00  0.00    +0.000 A 
ATOM     14  C   UNL     1       4.371   3.908  18.307  0.00  0.00    +0.000 A 
ATOM     15  C   UNL     1       3.821   3.720  19.579  0.00  0.00    +0.000 A 
ATOM     16  C   UNL     1       3.045   4.718  20.182  0.00  0.00    +0.000 A 
ATOM     17  C   UNL     1       2.831   5.919  19.485  0.00  0.00    +0.000 A 
BRANCH   5  19
ATOM     18  C   UNL     1       0.343   9.408  22.914  0.00  0.00    +0.000 C 
ATOM     19  O   UNL     1      -0.200   9.329  21.588  0.00  0.00    +0.000 OA
ENDBRANCH   5  19
ENDBRANCH   1  10
BRANCH   2  20
ATOM     20  C   UNL     1      -0.101  13.306  20.122  0.00  0.00    +0.000 C 
BRANCH  20  21
ATOM     21  N   UNL     1      -1.333  13.197  20.884  0.00  0.00    +0.000 N 
ATOM     22  C   UNL     1      -1.511  13.547  22.195  0.00  0.00    +0.000 A 
ATOM     23  N   UNL     1      -2.775  13.426  22.563  0.00  0.00    +0.000 NA
ATOM     24  C   UNL     1      -3.406  12.945  21.457  0.00  0.00    +0.000 A 
ATOM     25  C   UNL     1      -2.545  12.780  20.416  0.00  0.00    +0.000 A 
ATOM     26  C   UNL     1      -2.939  12.267  19.153  0.00  0.00    +0.000 A 
ATOM     27  O   UNL     1      -2.143  12.123  18.227  0.00  0.00    +0.000 OA
ATOM     28  N   UNL     1      -4.294  11.949  19.096  0.00  0.00    +0.000 N 
ATOM     29  C   UNL     1      -4.809  11.380  17.865  0.00  0.00    +0.000 C 
ATOM     30  C   UNL     1      -5.228  12.136  20.138  0.00  0.00    +0.000 A 
ATOM     31  O   UNL     1      -6.420  11.857  19.977  0.00  0.00    +0.000 OA
ATOM     32  N   UNL     1      -4.743  12.647  21.343  0.00  0.00    +0.000 N 
ATOM     33  C   UNL     1      -5.640  12.872  22.463  0.00  0.00    +0.000 C 
ENDBRANCH  20  21
ENDBRANCH   2  20
TORSDOF 4
ENDMDL
MODEL 6
REMARK VINA RESULT:      -8.2      4.234     10.314
REMARK  Name = 
REMARK  7 active torsions:
REMARK  status: ('A' for Active; 'I' for Inactive)
REMARK    1  A    between atoms: C_1  and  O_2
REMARK    2  A    between atoms: O_2  and  C_3
REMARK    3  A    between atoms: C_8  and  N_9
REMARK    4  A    between atoms: C_10  and  C_12
REMARK    5  A    between atoms: C_12  and  N_13
REMARK    6  A    between atoms: N_20  and  C_21
REMARK    7  A    between atoms: N_24  and  C_25
REMARK                            x       y       z     vdW  Elec       q    Type
REMARK                         _______ _______ _______ _____ _____    ______ ____
ROOT
ATOM      1  N   UNL     1      -0.053  11.425  19.920  0.00  0.00    +0.000 N 
ATOM      2  C   UNL     1       0.383  12.515  20.662  0.00  0.00    +0.000 C 
ATOM      3  O   UNL     1       1.455  12.596  21.260  0.00  0.00    +0.000 OA
ATOM      4  H   UNL     1      -0.915  11.503  19.377  0.00  0.00    +0.000 HD
ENDROOT
BRANCH   1  10
ATOM      5  C   UNL     1       0.447   9.233  20.900  0.00  0.00    +0.000 A 
ATOM      6  C   UNL     1       1.146   8.009  20.892  0.00  0.00    +0.000 A 
ATOM      7  C   UNL     1       1.922   7.670  19.775  0.00  0.00    +0.000 A 
ATOM      8  C   UNL     1       2.007   8.574  18.731  0.00  0.00    +0.000 A 
ATOM      9  C   UNL     1       1.388   9.821  18.728  0.00  0.00    +0.000 A 
ATOM     10  C   UNL     1       0.593  10.158  19.836  0.00  0.00    +0.000 A 
ATOM     11  O   UNL     1       2.780   8.074  17.729  0.00  0.00    +0.000 OA
ATOM     12  C   UNL     1       3.190   6.838  18.124  0.00  0.00    +0.000 A 
ATOM     13  C   UNL     1       3.982   5.972  17.376  0.00  0.00    +0.000 A 
ATOM     14  C   UNL     1       4.298   4.745  17.973  0.00  0.00    +0.000 A 
ATOM     15  C   UNL     1       3.838   4.421  19.253  0.00  0.00    +0.000 A 
ATOM     16  C   UNL     1       3.036   5.311  19.977  0.00  0.00    +0.000 A 
ATOM     17  C   UNL     1       2.703   6.546  19.393  0.00  0.00    +0.000 A 
BRANCH   5  19
ATOM     18  C   UNL     1       0.174   9.468  23.237  0.00  0.00    +0.000 C 
ATOM     19  O   UNL     1      -0.412   9.562  21.930  0.00  0.00    +0.000 OA
ENDBRANCH   5  19
ENDBRANCH   1  10
BRANCH   2  20
ATOM     20  C   UNL     1      -0.566  13.693  20.710  0.00  0.00    +0.000 C 
BRANCH  20  21
ATOM     21  N   UNL     1      -1.608  13.495  21.702  0.00  0.00    +0.000 N 
ATOM     22  C   UNL     1      -1.508  13.735  23.046  0.00  0.00    +0.000 A 
ATOM     23  N   UNL     1      -2.665  13.556  23.660  0.00  0.00    +0.000 NA
ATOM     24  C   UNL     1      -3.512  13.152  22.674  0.00  0.00    +0.000 A 
ATOM     25  C   UNL     1      -2.890  13.091  21.466  0.00  0.00    +0.000 A 
ATOM     26  C   UNL     1      -3.539  12.673  20.276  0.00  0.00    +0.000 A 
ATOM     27  O   UNL     1      -2.955  12.621  19.194  0.00  0.00    +0.000 OA
ATOM     28  N   UNL     1      -4.874  12.331  20.478  0.00  0.00    +0.000 N 
ATOM     29  C   UNL     1      -5.635  11.851  19.339  0.00  0.00    +0.000 C 
ATOM     30  C   UNL     1      -5.569  12.412  21.704  0.00  0.00    +0.000 A 
ATOM     31  O   UNL     1      -6.766  12.122  21.774  0.00  0.00    +0.000 OA
ATOM     32  N   UNL     1      -4.842  12.835  22.819  0.00  0.00    +0.000 N 
ATOM     33  C   UNL     1      -5.484  12.950  24.118  0.00  0.00    +0.000 C 
ENDBRANCH  20  21
ENDBRANCH   2  20
TORSDOF 4
ENDMDL
MODEL 7
REMARK VINA RESULT:      -8.1      3.960      9.876
REMARK  Name = 
REMARK  7 active torsions:
REMARK  status: ('A' for Active; 'I' for Inactive)
REMARK    1  A    between atoms: C_1  and  O_2
REMARK    2  A    between atoms: O_2  and  C_3
REMARK    3  A    between atoms: C_8  and  N_9
REMARK    4  A    between atoms: C_10  and  C_12
REMARK    5  A    between atoms: C_12  and  N_13
REMARK    6  A    between atoms: N_20  and  C_21
REMARK    7  A    between atoms: N_24  and  C_25
REMARK                            x       y       z     vdW  Elec       q    Type
REMARK                         _______ _______ _______ _____ _____    ______ ____
ROOT
ATOM      1  N   UNL     1       0.214  10.643  18.839  0.00  0.00    +0.000 N 
ATOM      2  C   UNL     1      -1.015  10.752  18.203  0.00  0.00    +0.000 C 
ATOM      3  O   UNL     1      -1.662   9.823  17.720  0.00  0.00    +0.000 OA
ATOM      4  H   UNL     1       0.615  11.463  19.296  0.00  0.00    +0.000 HD
ENDROOT
BRANCH   1  10
ATOM      5  C   UNL     1       0.989   8.690  20.106  0.00  0.00    +0.000 A 
ATOM      6  C   UNL     1       1.833   7.572  20.254  0.00  0.00    +0.000 A 
ATOM      7  C   UNL     1       2.637   7.173  19.178  0.00  0.00    +0.000 A 
ATOM      8  C   UNL     1       2.603   7.922  18.015  0.00  0.00    +0.000 A 
ATOM      9  C   UNL     1       1.834   9.071  17.850  0.00  0.00    +0.000 A 
ATOM     10  C   UNL     1       1.012   9.465  18.919  0.00  0.00    +0.000 A 
ATOM     11  O   UNL     1       3.425   7.380  17.075  0.00  0.00    +0.000 OA
ATOM     12  C   UNL     1       3.988   6.273  17.631  0.00  0.00    +0.000 A 
ATOM     13  C   UNL     1       4.875   5.411  16.993  0.00  0.00    +0.000 A 
ATOM     14  C   UNL     1       5.344   4.330  17.750  0.00  0.00    +0.000 A 
ATOM     15  C   UNL     1       4.937   4.140  19.074  0.00  0.00    +0.000 A 
ATOM     16  C   UNL     1       4.036   5.021  19.685  0.00  0.00    +0.000 A 
ATOM     17  C   UNL     1       3.549   6.109  18.940  0.00  0.00    +0.000 A 
BRANCH   5  19
ATOM     18  C   UNL     1       0.711   9.257  22.385  0.00  0.00    +0.000 C 
ATOM     19  O   UNL     1       0.103   9.057  21.101  0.00  0.00    +0.000 OA
ENDBRANCH   5  19
ENDBRANCH   1  10
BRANCH   2  20
ATOM     20  C   UNL     1      -1.586  12.151  18.123  0.00  0.00    +0.000 C 
BRANCH  20  21
ATOM     21  N   UNL     1      -2.768  12.292  18.955  0.00  0.00    +0.000 N 
ATOM     22  C   UNL     1      -4.062  12.053  18.576  0.00  0.00    +0.000 A 
ATOM     23  N   UNL     1      -4.897  12.171  19.594  0.00  0.00    +0.000 NA
ATOM     24  C   UNL     1      -4.106  12.535  20.640  0.00  0.00    +0.000 A 
ATOM     25  C   UNL     1      -2.798  12.632  20.276  0.00  0.00    +0.000 A 
ATOM     26  C   UNL     1      -1.767  13.020  21.171  0.00  0.00    +0.000 A 
ATOM     27  O   UNL     1      -0.592  13.105  20.818  0.00  0.00    +0.000 OA
ATOM     28  N   UNL     1      -2.237  13.293  22.453  0.00  0.00    +0.000 N 
ATOM     29  C   UNL     1      -1.279  13.737  23.449  0.00  0.00    +0.000 C 
ATOM     30  C   UNL     1      -3.576  13.172  22.883  0.00  0.00    +0.000 A 
ATOM     31  O   UNL     1      -3.888  13.401  24.055  0.00  0.00    +0.000 OA
ATOM     32  N   UNL     1      -4.517  12.783  21.928  0.00  0.00    +0.000 N 
ATOM     33  C   UNL     1      -5.916  12.631  22.291  0.00  0.00    +0.000 C 
ENDBRANCH  20  21
ENDBRANCH   2  20
TORSDOF 4
ENDMDL
MODEL 8
REMARK VINA RESULT:      -8.1      3.995     10.159
REMARK  Name = 
REMARK  7 active torsions:
REMARK  status: ('A' for Active; 'I' for Inactive)
REMARK    1  A    between atoms: C_1  and  O_2
REMARK    2  A    between atoms: O_2  and  C_3
REMARK    3  A    between atoms: C_8  and  N_9
REMARK    4  A    between atoms: C_10  and  C_12
REMARK    5  A    between atoms: C_12  and  N_13
REMARK    6  A    between atoms: N_20  and  C_21
REMARK    7  A    between atoms: N_24  and  C_25
REMARK                            x       y       z     vdW  Elec       q    Type
REMARK                         _______ _______ _______ _____ _____    ______ ____
ROOT
ATOM      1  N   UNL     1       0.222  10.789  19.242  0.00  0.00    +0.000 N 
ATOM      2  C   UNL     1       0.726  12.066  19.450  0.00  0.00    +0.000 C 
ATOM      3  O   UNL     1       1.916  12.367  19.528  0.00  0.00    +0.000 OA
ATOM      4  H   UNL     1      -0.780  10.666  19.090  0.00  0.00    +0.000 HD
ENDROOT
BRANCH   1  10
ATOM      5  C   UNL     1       0.964   8.736  20.361  0.00  0.00    +0.000 A 
ATOM      6  C   UNL     1       1.774   7.584  20.413  0.00  0.00    +0.000 A 
ATOM      7  C   UNL     1       2.535   7.229  19.291  0.00  0.00    +0.000 A 
ATOM      8  C   UNL     1       2.495   8.052  18.178  0.00  0.00    +0.000 A 
ATOM      9  C   UNL     1       1.761   9.233  18.110  0.00  0.00    +0.000 A 
ATOM     10  C   UNL     1       0.981   9.583  19.224  0.00  0.00    +0.000 A 
ATOM     11  O   UNL     1       3.273   7.546  17.183  0.00  0.00    +0.000 OA
ATOM     12  C   UNL     1       3.812   6.388  17.651  0.00  0.00    +0.000 A 
ATOM     13  C   UNL     1       4.653   5.541  16.935  0.00  0.00    +0.000 A 
ATOM     14  C   UNL     1       5.105   4.399  17.608  0.00  0.00    +0.000 A 
ATOM     15  C   UNL     1       4.728   4.137  18.928  0.00  0.00    +0.000 A 
ATOM     16  C   UNL     1       3.874   5.006  19.619  0.00  0.00    +0.000 A 
ATOM     17  C   UNL     1       3.404   6.155  18.959  0.00  0.00    +0.000 A 
BRANCH   5  19
ATOM     18  C   UNL     1       0.787   9.309  22.648  0.00  0.00    +0.000 C 
ATOM     19  O   UNL     1       0.118   9.066  21.402  0.00  0.00    +0.000 OA
ENDBRANCH   5  19
ENDBRANCH   1  10
BRANCH   2  20
ATOM     20  C   UNL     1      -0.309  13.162  19.580  0.00  0.00    +0.000 C 
BRANCH  20  21
ATOM     21  N   UNL     1      -0.979  13.112  20.868  0.00  0.00    +0.000 N 
ATOM     22  C   UNL     1      -0.403  13.321  22.092  0.00  0.00    +0.000 A 
ATOM     23  N   UNL     1      -1.303  13.310  23.060  0.00  0.00    +0.000 NA
ATOM     24  C   UNL     1      -2.479  13.045  22.428  0.00  0.00    +0.000 A 
ATOM     25  C   UNL     1      -2.310  12.904  21.085  0.00  0.00    +0.000 A 
ATOM     26  C   UNL     1      -3.371  12.598  20.194  0.00  0.00    +0.000 A 
ATOM     27  O   UNL     1      -3.194  12.471  18.983  0.00  0.00    +0.000 OA
ATOM     28  N   UNL     1      -4.597  12.456  20.841  0.00  0.00    +0.000 N 
ATOM     29  C   UNL     1      -5.754  12.105  20.037  0.00  0.00    +0.000 C 
ATOM     30  C   UNL     1      -4.824  12.627  22.223  0.00  0.00    +0.000 A 
ATOM     31  O   UNL     1      -5.958  12.517  22.697  0.00  0.00    +0.000 OA
ATOM     32  N   UNL     1      -3.715  12.927  23.017  0.00  0.00    +0.000 N 
ATOM     33  C   UNL     1      -3.865  13.123  24.449  0.00  0.00    +0.000 C 
ENDBRANCH  20  21
ENDBRANCH   2  20
TORSDOF 4
ENDMDL
MODEL 9
REMARK VINA RESULT:      -8.1      4.426     10.402
REMARK  Name = 
REMARK  7 active torsions:
REMARK  status: ('A' for Active; 'I' for Inactive)
REMARK    1  A    between atoms: C_1  and  O_2
REMARK    2  A    between atoms: O_2  and  C_3
REMARK    3  A    between atoms: C_8  and  N_9
REMARK    4  A    between atoms: C_10  and  C_12
REMARK    5  A    between atoms: C_12  and  N_13
REMARK    6  A    between atoms: N_20  and  C_21
REMARK    7  A    between atoms: N_24  and  C_25
REMARK                            x       y       z     vdW  Elec       q    Type
REMARK                         _______ _______ _______ _____ _____    ______ ____
ROOT
ATOM      1  N   UNL     1      -0.176  10.832  19.796  0.00  0.00    +0.000 N 
ATOM      2  C   UNL     1      -1.374  11.068  19.136  0.00  0.00    +0.000 C 
ATOM      3  O   UNL     1      -1.997  10.249  18.459  0.00  0.00    +0.000 OA
ATOM      4  H   UNL     1       0.203  11.551  20.415  0.00  0.00    +0.000 HD
ENDROOT
BRANCH   1  10
ATOM      5  C   UNL     1       0.605   8.715  20.758  0.00  0.00    +0.000 A 
ATOM      6  C   UNL     1       1.446   7.585  20.731  0.00  0.00    +0.000 A 
ATOM      7  C   UNL     1       2.235   7.343  19.599  0.00  0.00    +0.000 A 
ATOM      8  C   UNL     1       2.190   8.253  18.556  0.00  0.00    +0.000 A 
ATOM      9  C   UNL     1       1.425   9.416  18.570  0.00  0.00    +0.000 A 
ATOM     10  C   UNL     1       0.617   9.653  19.695  0.00  0.00    +0.000 A 
ATOM     11  O   UNL     1       2.998   7.851  17.538  0.00  0.00    +0.000 OA
ATOM     12  C   UNL     1       3.562   6.673  17.920  0.00  0.00    +0.000 A 
ATOM     13  C   UNL     1       4.438   5.911  17.153  0.00  0.00    +0.000 A 
ATOM     14  C   UNL     1       4.911   4.730  17.739  0.00  0.00    +0.000 A 
ATOM     15  C   UNL     1       4.519   4.351  19.027  0.00  0.00    +0.000 A 
ATOM     16  C   UNL     1       3.630   5.137  19.770  0.00  0.00    +0.000 A 
ATOM     17  C   UNL     1       3.139   6.323  19.197  0.00  0.00    +0.000 A 
BRANCH   5  19
ATOM     18  C   UNL     1       0.361   9.419  23.002  0.00  0.00    +0.000 C 
ATOM     19  O   UNL     1      -0.268   8.936  21.806  0.00  0.00    +0.000 OA
ENDBRANCH   5  19
ENDBRANCH   1  10
BRANCH   2  20
ATOM     20  C   UNL     1      -1.941  12.462  19.289  0.00  0.00    +0.000 C 
BRANCH  20  21
ATOM     21  N   UNL     1      -3.341  12.429  19.671  0.00  0.00    +0.000 N 
ATOM     22  C   UNL     1      -4.394  12.068  18.874  0.00  0.00    +0.000 A 
ATOM     23  N   UNL     1      -5.529  12.041  19.550  0.00  0.00    +0.000 NA
ATOM     24  C   UNL     1      -5.185  12.436  20.807  0.00  0.00    +0.000 A 
ATOM     25  C   UNL     1      -3.853  12.695  20.908  0.00  0.00    +0.000 A 
ATOM     26  C   UNL     1      -3.237  13.149  22.103  0.00  0.00    +0.000 A 
ATOM     27  O   UNL     1      -2.030  13.382  22.170  0.00  0.00    +0.000 OA
ATOM     28  N   UNL     1      -4.139  13.303  23.153  0.00  0.00    +0.000 N 
ATOM     29  C   UNL     1      -3.631  13.799  24.419  0.00  0.00    +0.000 C 
ATOM     30  C   UNL     1      -5.519  13.013  23.103  0.00  0.00    +0.000 A 
ATOM     31  O   UNL     1      -6.231  13.147  24.102  0.00  0.00    +0.000 OA
ATOM     32  N   UNL     1      -6.031  12.571  21.882  0.00  0.00    +0.000 N 
ATOM     33  C   UNL     1      -7.442  12.248  21.747  0.00  0.00    +0.000 C 
ENDBRANCH  20  21
ENDBRANCH   2  20
TORSDOF 4
ENDMDL
