MODEL 1
REMARK VINA RESULT:      -7.9      0.000      0.000
REMARK  Name = 
REMARK  11 active torsions:
REMARK  status: ('A' for Active; 'I' for Inactive)
REMARK    1  A    between atoms: C_1  and  C_2
REMARK    2  A    between atoms: C_2  and  N_3
REMARK    3  A    between atoms: C_2  and  C_22
REMARK    4  A    between atoms: C_4  and  C_6
REMARK    5  A    between atoms: C_10  and  C_11
REMARK    6  A    between atoms: N_13  and  C_14
REMARK    7  A    between atoms: C_22  and  O_24
REMARK    8  A    between atoms: O_24  and  C_25
REMARK    9  A    between atoms: C_25  and  C_26
REMARK   10  A    between atoms: C_25  and  C_27
REMARK   11  A    between atoms: C_25  and  C_28
REMARK                            x       y       z     vdW  Elec       q    Type
REMARK                         _______ _______ _______ _____ _____    ______ ____
ROOT
ATOM      1  C   UNL     1       4.157   4.210  19.582  0.00  0.00    +0.000 A 
ATOM      2  N   UNL     1       4.577   2.904  19.761  0.00  0.00    +0.000 N 
ATOM      3  C   UNL     1       3.656   2.243  20.507  0.00  0.00    +0.000 A 
ATOM      4  N   UNL     1       2.659   3.028  20.817  0.00  0.00    +0.000 NA
ATOM      5  C   UNL     1       2.925   4.269  20.237  0.00  0.00    +0.000 A 
ATOM      6  H   UNL     1       5.412   2.491  19.368  0.00  0.00    +0.000 HD
ENDROOT
BRANCH   1   8
ATOM      7  N   UNL     1       6.240   5.133  18.953  0.00  0.00    +0.000 N 
ATOM      8  C   UNL     1       4.881   5.199  18.827  0.00  0.00    +0.000 C 
ATOM      9  O   UNL     1       4.333   6.047  18.129  0.00  0.00    +0.000 OA
ATOM     10  H   UNL     1       6.671   4.491  19.606  0.00  0.00    +0.000 HD
BRANCH   7  12
ATOM     11  C   UNL     1       8.249   6.525  19.091  0.00  0.00    +0.000 C 
ATOM     12  C   UNL     1       7.165   5.970  18.180  0.00  0.00    +0.000 C 
BRANCH  12  13
ATOM     13  C   UNL     1       7.745   5.057  17.093  0.00  0.00    +0.000 C 
ATOM     14  O   UNL     1       8.380   4.040  17.366  0.00  0.00    +0.000 OA
BRANCH  13  15
ATOM     15  O   UNL     1       7.465   5.509  15.845  0.00  0.00    +0.000 OA
BRANCH  15  16
ATOM     16  C   UNL     1       6.377   4.905  15.090  0.00  0.00    +0.000 C 
ATOM     17  C   UNL     1       5.175   5.853  15.007  0.00  0.00    +0.000 C 
ATOM     18  C   UNL     1       6.917   4.684  13.666  0.00  0.00    +0.000 C 
ATOM     19  C   UNL     1       5.996   3.534  15.666  0.00  0.00    +0.000 C 
ENDBRANCH  15  16
ENDBRANCH  13  15
ENDBRANCH  12  13
ENDBRANCH   7  12
ENDBRANCH   1   8
BRANCH   5  20
ATOM     20  C   UNL     1       1.956   5.373  20.416  0.00  0.00    +0.000 C 
ATOM     21  O   UNL     1       0.813   5.126  20.792  0.00  0.00    +0.000 OA
ATOM     22  N   UNL     1       2.396   6.652  20.107  0.00  0.00    +0.000 N 
ATOM     23  H   UNL     1       3.297   6.730  19.640  0.00  0.00    +0.000 HD
BRANCH  22  24
ATOM     24  C   UNL     1       1.634   7.837  20.170  0.00  0.00    +0.000 A 
ATOM     25  C   UNL     1       1.559   8.759  19.127  0.00  0.00    +0.000 A 
ATOM     26  C   UNL     1       0.862   9.960  19.285  0.00  0.00    +0.000 A 
ATOM     27  C   UNL     1       0.221  10.244  20.490  0.00  0.00    +0.000 A 
ATOM     28 CL   UNL     1      -0.575  11.770  20.637  0.00  0.00    +0.000 Cl
ATOM     29  C   UNL     1       0.249   9.304  21.525  0.00  0.00    +0.000 A 
ATOM     30 CL   UNL     1      -0.526   9.582  23.045  0.00  0.00    +0.000 Cl
ATOM     31  C   UNL     1       0.940   8.097  21.359  0.00  0.00    +0.000 A 
ENDBRANCH  22  24
ENDBRANCH   5  20
TORSDOF 7
ENDMDL
MODEL 2
REMARK VINA RESULT:      -7.9      0.706      1.356
REMARK  Name = 
REMARK  11 active torsions:
REMARK  status: ('A' for Active; 'I' for Inactive)
REMARK    1  A    between atoms: C_1  and  C_2
REMARK    2  A    between atoms: C_2  and  N_3
REMARK    3  A    between atoms: C_2  and  C_22
REMARK    4  A    between atoms: C_4  and  C_6
REMARK    5  A    between atoms: C_10  and  C_11
REMARK    6  A    between atoms: N_13  and  C_14
REMARK    7  A    between atoms: C_22  and  O_24
REMARK    8  A    between atoms: O_24  and  C_25
REMARK    9  A    between atoms: C_25  and  C_26
REMARK   10  A    between atoms: C_25  and  C_27
REMARK   11  A    between atoms: C_25  and  C_28
REMARK                            x       y       z     vdW  Elec       q    Type
REMARK                         _______ _______ _______ _____ _____    ______ ____
ROOT
ATOM      1  C   UNL     1       3.969   4.345  19.674  0.00  0.00    +0.000 A 
ATOM      2  N   UNL     1       4.386   3.047  19.905  0.00  0.00    +0.000 N 
ATOM      3  C   UNL     1       3.482   2.430  20.709  0.00  0.00    +0.000 A 
ATOM      4  N   UNL     1       2.500   3.237  21.008  0.00  0.00    +0.000 NA
ATOM      5  C   UNL     1       2.756   4.446  20.360  0.00  0.00    +0.000 A 
ATOM      6  H   UNL     1       5.205   2.608  19.509  0.00  0.00    +0.000 HD
ENDROOT
BRANCH   1   8
ATOM      7  N   UNL     1       6.036   5.151  18.858  0.00  0.00    +0.000 N 
ATOM      8  C   UNL     1       4.676   5.290  18.851  0.00  0.00    +0.000 C 
ATOM      9  O   UNL     1       4.117   6.163  18.195  0.00  0.00    +0.000 OA
ATOM     10  H   UNL     1       6.487   4.489  19.478  0.00  0.00    +0.000 HD
BRANCH   7  12
ATOM     11  C   UNL     1       7.901   6.736  18.857  0.00  0.00    +0.000 C 
ATOM     12  C   UNL     1       6.934   5.932  18.002  0.00  0.00    +0.000 C 
BRANCH  12  13
ATOM     13  C   UNL     1       7.664   4.911  17.120  0.00  0.00    +0.000 C 
ATOM     14  O   UNL     1       8.300   3.974  17.599  0.00  0.00    +0.000 OA
BRANCH  13  15
ATOM     15  O   UNL     1       7.511   5.175  15.799  0.00  0.00    +0.000 OA
BRANCH  15  16
ATOM     16  C   UNL     1       6.283   4.777  15.126  0.00  0.00    +0.000 C 
ATOM     17  C   UNL     1       5.283   5.939  15.077  0.00  0.00    +0.000 C 
ATOM     18  C   UNL     1       6.683   4.424  13.682  0.00  0.00    +0.000 C 
ATOM     19  C   UNL     1       5.681   3.520  15.767  0.00  0.00    +0.000 C 
ENDBRANCH  15  16
ENDBRANCH  13  15
ENDBRANCH  12  13
ENDBRANCH   7  12
ENDBRANCH   1   8
BRANCH   5  20
ATOM     20  C   UNL     1       1.801   5.565  20.512  0.00  0.00    +0.000 C 
ATOM     21  O   UNL     1       0.593   5.337  20.535  0.00  0.00    +0.000 OA
ATOM     22  N   UNL     1       2.334   6.843  20.588  0.00  0.00    +0.000 N 
ATOM     23  H   UNL     1       3.328   6.941  20.385  0.00  0.00    +0.000 HD
BRANCH  22  24
ATOM     24  C   UNL     1       1.611   8.048  20.698  0.00  0.00    +0.000 A 
ATOM     25  C   UNL     1       1.299   8.650  21.917  0.00  0.00    +0.000 A 
ATOM     26  C   UNL     1       0.501   9.795  21.963  0.00  0.00    +0.000 A 
ATOM     27  C   UNL     1       0.014  10.358  20.783  0.00  0.00    +0.000 A 
ATOM     28 CL   UNL     1      -1.013  11.740  20.917  0.00  0.00    +0.000 Cl
ATOM     29  C   UNL     1       0.361   9.791  19.554  0.00  0.00    +0.000 A 
ATOM     30 CL   UNL     1      -0.197  10.435  18.050  0.00  0.00    +0.000 Cl
ATOM     31  C   UNL     1       1.172   8.649  19.511  0.00  0.00    +0.000 A 
ENDBRANCH  22  24
ENDBRANCH   5  20
TORSDOF 7
ENDMDL
MODEL 3
REMARK VINA RESULT:      -7.8      1.571      2.250
REMARK  Name = 
REMARK  11 active torsions:
REMARK  status: ('A' for Active; 'I' for Inactive)
REMARK    1  A    between atoms: C_1  and  C_2
REMARK    2  A    between atoms: C_2  and  N_3
REMARK    3  A    between atoms: C_2  and  C_22
REMARK    4  A    between atoms: C_4  and  C_6
REMARK    5  A    between atoms: C_10  and  C_11
REMARK    6  A    between atoms: N_13  and  C_14
REMARK    7  A    between atoms: C_22  and  O_24
REMARK    8  A    between atoms: O_24  and  C_25
REMARK    9  A    between atoms: C_25  and  C_26
REMARK   10  A    between atoms: C_25  and  C_27
REMARK   11  A    between atoms: C_25  and  C_28
REMARK                            x       y       z     vdW  Elec       q    Type
REMARK                         _______ _______ _______ _____ _____    ______ ____
ROOT
ATOM      1  C   UNL     1       4.724   3.873  18.629  0.00  0.00    +0.000 A 
ATOM      2  N   UNL     1       5.209   2.707  19.195  0.00  0.00    +0.000 N 
ATOM      3  C   UNL     1       4.366   2.312  20.182  0.00  0.00    +0.000 A 
ATOM      4  N   UNL     1       3.359   3.137  20.291  0.00  0.00    +0.000 NA
ATOM      5  C   UNL     1       3.534   4.121  19.317  0.00  0.00    +0.000 A 
ATOM      6  H   UNL     1       6.033   2.203  18.898  0.00  0.00    +0.000 HD
ENDROOT
BRANCH   1   8
ATOM      7  N   UNL     1       4.809   4.327  16.311  0.00  0.00    +0.000 N 
ATOM      8  C   UNL     1       5.356   4.570  17.540  0.00  0.00    +0.000 C 
ATOM      9  O   UNL     1       6.315   5.320  17.687  0.00  0.00    +0.000 OA
ATOM     10  H   UNL     1       4.082   3.632  16.194  0.00  0.00    +0.000 HD
BRANCH   7  12
ATOM     11  C   UNL     1       5.406   6.506  15.369  0.00  0.00    +0.000 C 
ATOM     12  C   UNL     1       5.226   5.022  15.088  0.00  0.00    +0.000 C 
BRANCH  12  13
ATOM     13  C   UNL     1       6.539   4.358  14.656  0.00  0.00    +0.000 C 
ATOM     14  O   UNL     1       7.633   4.774  15.030  0.00  0.00    +0.000 OA
BRANCH  13  15
ATOM     15  O   UNL     1       6.329   3.292  13.845  0.00  0.00    +0.000 OA
BRANCH  15  16
ATOM     16  C   UNL     1       6.251   3.490  12.405  0.00  0.00    +0.000 C 
ATOM     17  C   UNL     1       7.155   4.647  11.962  0.00  0.00    +0.000 C 
ATOM     18  C   UNL     1       6.779   2.193  11.767  0.00  0.00    +0.000 C 
ATOM     19  C   UNL     1       4.799   3.681  11.949  0.00  0.00    +0.000 C 
ENDBRANCH  15  16
ENDBRANCH  13  15
ENDBRANCH  12  13
ENDBRANCH   7  12
ENDBRANCH   1   8
BRANCH   5  20
ATOM     20  C   UNL     1       2.534   5.204  19.195  0.00  0.00    +0.000 C 
ATOM     21  O   UNL     1       1.559   5.055  18.462  0.00  0.00    +0.000 OA
ATOM     22  N   UNL     1       2.777   6.369  19.907  0.00  0.00    +0.000 N 
ATOM     23  H   UNL     1       3.692   6.461  20.344  0.00  0.00    +0.000 HD
BRANCH  22  24
ATOM     24  C   UNL     1       1.980   7.533  19.909  0.00  0.00    +0.000 A 
ATOM     25  C   UNL     1       1.904   8.415  18.831  0.00  0.00    +0.000 A 
ATOM     26  C   UNL     1       1.168   9.598  18.930  0.00  0.00    +0.000 A 
ATOM     27  C   UNL     1       0.488   9.905  20.107  0.00  0.00    +0.000 A 
ATOM     28 CL   UNL     1      -0.357  11.409  20.179  0.00  0.00    +0.000 Cl
ATOM     29  C   UNL     1       0.516   9.003  21.175  0.00  0.00    +0.000 A 
ATOM     30 CL   UNL     1      -0.307   9.309  22.664  0.00  0.00    +0.000 Cl
ATOM     31  C   UNL     1       1.247   7.812  21.069  0.00  0.00    +0.000 A 
ENDBRANCH  22  24
ENDBRANCH   5  20
TORSDOF 7
ENDMDL
MODEL 4
REMARK VINA RESULT:      -7.7      1.398      2.408
REMARK  Name = 
REMARK  11 active torsions:
REMARK  status: ('A' for Active; 'I' for Inactive)
REMARK    1  A    between atoms: C_1  and  C_2
REMARK    2  A    between atoms: C_2  and  N_3
REMARK    3  A    between atoms: C_2  and  C_22
REMARK    4  A    between atoms: C_4  and  C_6
REMARK    5  A    between atoms: C_10  and  C_11
REMARK    6  A    between atoms: N_13  and  C_14
REMARK    7  A    between atoms: C_22  and  O_24
REMARK    8  A    between atoms: O_24  and  C_25
REMARK    9  A    between atoms: C_25  and  C_26
REMARK   10  A    between atoms: C_25  and  C_27
REMARK   11  A    between atoms: C_25  and  C_28
REMARK                            x       y       z     vdW  Elec       q    Type
REMARK                         _______ _______ _______ _____ _____    ______ ____
ROOT
ATOM      1  C   UNL     1       4.076   2.863  19.198  0.00  0.00    +0.000 A 
ATOM      2  N   UNL     1       4.618   1.829  19.939  0.00  0.00    +0.000 N 
ATOM      3  C   UNL     1       4.093   1.862  21.191  0.00  0.00    +0.000 A 
ATOM      4  N   UNL     1       3.238   2.842  21.310  0.00  0.00    +0.000 NA
ATOM      5  C   UNL     1       3.181   3.483  20.073  0.00  0.00    +0.000 A 
ATOM      6  H   UNL     1       5.267   1.133  19.600  0.00  0.00    +0.000 HD
ENDROOT
BRANCH   1   8
ATOM      7  N   UNL     1       5.402   4.026  17.624  0.00  0.00    +0.000 N 
ATOM      8  C   UNL     1       4.393   3.125  17.818  0.00  0.00    +0.000 C 
ATOM      9  O   UNL     1       3.805   2.596  16.880  0.00  0.00    +0.000 OA
ATOM     10  H   UNL     1       5.810   4.525  18.405  0.00  0.00    +0.000 HD
BRANCH   7  12
ATOM     11  C   UNL     1       5.084   5.376  15.607  0.00  0.00    +0.000 C 
ATOM     12  C   UNL     1       5.958   4.346  16.305  0.00  0.00    +0.000 C 
BRANCH  12  13
ATOM     13  C   UNL     1       7.372   4.879  16.566  0.00  0.00    +0.000 C 
ATOM     14  O   UNL     1       8.317   4.130  16.807  0.00  0.00    +0.000 OA
BRANCH  13  15
ATOM     15  O   UNL     1       7.429   6.232  16.491  0.00  0.00    +0.000 OA
BRANCH  15  16
ATOM     16  C   UNL     1       7.270   7.025  17.701  0.00  0.00    +0.000 C 
ATOM     17  C   UNL     1       7.848   6.291  18.918  0.00  0.00    +0.000 C 
ATOM     18  C   UNL     1       8.087   8.310  17.480  0.00  0.00    +0.000 C 
ATOM     19  C   UNL     1       5.805   7.430  17.911  0.00  0.00    +0.000 C 
ENDBRANCH  15  16
ENDBRANCH  13  15
ENDBRANCH  12  13
ENDBRANCH   7  12
ENDBRANCH   1   8
BRANCH   5  20
ATOM     20  C   UNL     1       2.281   4.645  19.901  0.00  0.00    +0.000 C 
ATOM     21  O   UNL     1       1.071   4.467  19.783  0.00  0.00    +0.000 OA
ATOM     22  N   UNL     1       2.873   5.898  19.847  0.00  0.00    +0.000 N 
ATOM     23  H   UNL     1       3.889   5.926  19.779  0.00  0.00    +0.000 HD
BRANCH  22  24
ATOM     24  C   UNL     1       2.214   7.129  19.655  0.00  0.00    +0.000 A 
ATOM     25  C   UNL     1       2.216   7.822  18.444  0.00  0.00    +0.000 A 
ATOM     26  C   UNL     1       1.621   9.082  18.343  0.00  0.00    +0.000 A 
ATOM     27  C   UNL     1       1.006   9.658  19.454  0.00  0.00    +0.000 A 
ATOM     28 CL   UNL     1       0.340  11.241  19.274  0.00  0.00    +0.000 Cl
ATOM     29  C   UNL     1       0.955   8.950  20.659  0.00  0.00    +0.000 A 
ATOM     30 CL   UNL     1       0.204   9.594  22.076  0.00  0.00    +0.000 Cl
ATOM     31  C   UNL     1       1.543   7.682  20.753  0.00  0.00    +0.000 A 
ENDBRANCH  22  24
ENDBRANCH   5  20
TORSDOF 7
ENDMDL
MODEL 5
REMARK VINA RESULT:      -7.7      0.971      1.290
REMARK  Name = 
REMARK  11 active torsions:
REMARK  status: ('A' for Active; 'I' for Inactive)
REMARK    1  A    between atoms: C_1  and  C_2
REMARK    2  A    between atoms: C_2  and  N_3
REMARK    3  A    between atoms: C_2  and  C_22
REMARK    4  A    between atoms: C_4  and  C_6
REMARK    5  A    between atoms: C_10  and  C_11
REMARK    6  A    between atoms: N_13  and  C_14
REMARK    7  A    between atoms: C_22  and  O_24
REMARK    8  A    between atoms: O_24  and  C_25
REMARK    9  A    between atoms: C_25  and  C_26
REMARK   10  A    between atoms: C_25  and  C_27
REMARK   11  A    between atoms: C_25  and  C_28
REMARK                            x       y       z     vdW  Elec       q    Type
REMARK                         _______ _______ _______ _____ _____    ______ ____
ROOT
ATOM      1  C   UNL     1       4.019   3.529  19.353  0.00  0.00    +0.000 A 
ATOM      2  N   UNL     1       4.545   2.346  19.838  0.00  0.00    +0.000 N 
ATOM      3  C   UNL     1       3.904   2.017  20.989  0.00  0.00    +0.000 A 
ATOM      4  N   UNL     1       2.989   2.903  21.280  0.00  0.00    +0.000 NA
ATOM      5  C   UNL     1       3.013   3.860  20.265  0.00  0.00    +0.000 A 
ATOM      6  H   UNL     1       5.260   1.788  19.393  0.00  0.00    +0.000 HD
ENDROOT
BRANCH   1   8
ATOM      7  N   UNL     1       5.606   4.889  18.249  0.00  0.00    +0.000 N 
ATOM      8  C   UNL     1       4.449   4.170  18.138  0.00  0.00    +0.000 C 
ATOM      9  O   UNL     1       3.830   4.094  17.081  0.00  0.00    +0.000 OA
ATOM     10  H   UNL     1       6.051   5.022  19.148  0.00  0.00    +0.000 HD
BRANCH   7  12
ATOM     11  C   UNL     1       7.074   6.729  17.577  0.00  0.00    +0.000 C 
ATOM     12  C   UNL     1       6.278   5.521  17.108  0.00  0.00    +0.000 C 
BRANCH  12  13
ATOM     13  C   UNL     1       7.182   4.440  16.504  0.00  0.00    +0.000 C 
ATOM     14  O   UNL     1       8.300   4.199  16.954  0.00  0.00    +0.000 OA
BRANCH  13  15
ATOM     15  O   UNL     1       6.596   3.813  15.454  0.00  0.00    +0.000 OA
BRANCH  15  16
ATOM     16  C   UNL     1       6.435   4.523  14.193  0.00  0.00    +0.000 C 
ATOM     17  C   UNL     1       5.946   3.576  13.090  0.00  0.00    +0.000 C 
ATOM     18  C   UNL     1       5.346   5.583  14.436  0.00  0.00    +0.000 C 
ATOM     19  C   UNL     1       7.724   5.255  13.800  0.00  0.00    +0.000 C 
ENDBRANCH  15  16
ENDBRANCH  13  15
ENDBRANCH  12  13
ENDBRANCH   7  12
ENDBRANCH   1   8
BRANCH   5  20
ATOM     20  C   UNL     1       2.071   4.999  20.321  0.00  0.00    +0.000 C 
ATOM     21  O   UNL     1       0.871   4.790  20.480  0.00  0.00    +0.000 OA
ATOM     22  N   UNL     1       2.606   6.268  20.154  0.00  0.00    +0.000 N 
ATOM     23  H   UNL     1       3.579   6.323  19.857  0.00  0.00    +0.000 HD
BRANCH  22  24
ATOM     24  C   UNL     1       1.892   7.483  20.137  0.00  0.00    +0.000 A 
ATOM     25  C   UNL     1       1.806   8.309  19.017  0.00  0.00    +0.000 A 
ATOM     26  C   UNL     1       1.159   9.545  19.091  0.00  0.00    +0.000 A 
ATOM     27  C   UNL     1       0.581   9.963  20.289  0.00  0.00    +0.000 A 
ATOM     28 CL   UNL     1      -0.153  11.526  20.325  0.00  0.00    +0.000 Cl
ATOM     29  C   UNL     1       0.619   9.121  21.404  0.00  0.00    +0.000 A 
ATOM     30 CL   UNL     1      -0.082   9.565  22.920  0.00  0.00    +0.000 Cl
ATOM     31  C   UNL     1       1.258   7.877  21.323  0.00  0.00    +0.000 A 
ENDBRANCH  22  24
ENDBRANCH   5  20
TORSDOF 7
ENDMDL
MODEL 6
REMARK VINA RESULT:      -7.7      1.715      2.164
REMARK  Name = 
REMARK  11 active torsions:
REMARK  status: ('A' for Active; 'I' for Inactive)
REMARK    1  A    between atoms: C_1  and  C_2
REMARK    2  A    between atoms: C_2  and  N_3
REMARK    3  A    between atoms: C_2  and  C_22
REMARK    4  A    between atoms: C_4  and  C_6
REMARK    5  A    between atoms: C_10  and  C_11
REMARK    6  A    between atoms: N_13  and  C_14
REMARK    7  A    between atoms: C_22  and  O_24
REMARK    8  A    between atoms: O_24  and  C_25
REMARK    9  A    between atoms: C_25  and  C_26
REMARK   10  A    between atoms: C_25  and  C_27
REMARK   11  A    between atoms: C_25  and  C_28
REMARK                            x       y       z     vdW  Elec       q    Type
REMARK                         _______ _______ _______ _____ _____    ______ ____
ROOT
ATOM      1  C   UNL     1       3.891   3.334  18.604  0.00  0.00    +0.000 A 
ATOM      2  N   UNL     1       4.605   2.221  19.010  0.00  0.00    +0.000 N 
ATOM      3  C   UNL     1       4.416   2.038  20.342  0.00  0.00    +0.000 A 
ATOM      4  N   UNL     1       3.618   2.952  20.828  0.00  0.00    +0.000 NA
ATOM      5  C   UNL     1       3.248   3.774  19.763  0.00  0.00    +0.000 A 
ATOM      6  H   UNL     1       5.148   1.613  18.411  0.00  0.00    +0.000 HD
ENDROOT
BRANCH   1   8
ATOM      7  N   UNL     1       4.987   4.441  16.826  0.00  0.00    +0.000 N 
ATOM      8  C   UNL     1       3.846   3.819  17.249  0.00  0.00    +0.000 C 
ATOM      9  O   UNL     1       2.864   3.698  16.523  0.00  0.00    +0.000 OA
ATOM     10  H   UNL     1       5.750   4.618  17.467  0.00  0.00    +0.000 HD
BRANCH   7  12
ATOM     11  C   UNL     1       5.248   6.423  15.413  0.00  0.00    +0.000 C 
ATOM     12  C   UNL     1       5.193   4.904  15.449  0.00  0.00    +0.000 C 
BRANCH  12  13
ATOM     13  C   UNL     1       6.513   4.272  14.990  0.00  0.00    +0.000 C 
ATOM     14  O   UNL     1       7.599   4.637  15.435  0.00  0.00    +0.000 OA
BRANCH  13  15
ATOM     15  O   UNL     1       6.318   3.296  14.070  0.00  0.00    +0.000 OA
BRANCH  15  16
ATOM     16  C   UNL     1       6.298   3.637  12.654  0.00  0.00    +0.000 C 
ATOM     17  C   UNL     1       7.227   4.823  12.364  0.00  0.00    +0.000 C 
ATOM     18  C   UNL     1       6.842   2.405  11.910  0.00  0.00    +0.000 C 
ATOM     19  C   UNL     1       4.866   3.888  12.164  0.00  0.00    +0.000 C 
ENDBRANCH  15  16
ENDBRANCH  13  15
ENDBRANCH  12  13
ENDBRANCH   7  12
ENDBRANCH   1   8
BRANCH   5  20
ATOM     20  C   UNL     1       2.332   4.909  20.011  0.00  0.00    +0.000 C 
ATOM     21  O   UNL     1       1.204   4.699  20.450  0.00  0.00    +0.000 OA
ATOM     22  N   UNL     1       2.800   6.176  19.694  0.00  0.00    +0.000 N 
ATOM     23  H   UNL     1       3.676   6.229  19.176  0.00  0.00    +0.000 HD
BRANCH  22  24
ATOM     24  C   UNL     1       2.088   7.387  19.815  0.00  0.00    +0.000 A 
ATOM     25  C   UNL     1       1.879   8.266  18.752  0.00  0.00    +0.000 A 
ATOM     26  C   UNL     1       1.245   9.494  18.958  0.00  0.00    +0.000 A 
ATOM     27  C   UNL     1       0.801   9.849  20.231  0.00  0.00    +0.000 A 
ATOM     28 CL   UNL     1       0.076  11.405  20.424  0.00  0.00    +0.000 Cl
ATOM     29  C   UNL     1       0.962   8.954  21.292  0.00  0.00    +0.000 A 
ATOM     30 CL   UNL     1       0.433   9.320  22.897  0.00  0.00    +0.000 Cl
ATOM     31  C   UNL     1       1.589   7.719  21.080  0.00  0.00    +0.000 A 
ENDBRANCH  22  24
ENDBRANCH   5  20
TORSDOF 7
ENDMDL
MODEL 7
REMARK VINA RESULT:      -7.6      1.512      2.752
REMARK  Name = 
REMARK  11 active torsions:
REMARK  status: ('A' for Active; 'I' for Inactive)
REMARK    1  A    between atoms: C_1  and  C_2
REMARK    2  A    between atoms: C_2  and  N_3
REMARK    3  A    between atoms: C_2  and  C_22
REMARK    4  A    between atoms: C_4  and  C_6
REMARK    5  A    between atoms: C_10  and  C_11
REMARK    6  A    between atoms: N_13  and  C_14
REMARK    7  A    between atoms: C_22  and  O_24
REMARK    8  A    between atoms: O_24  and  C_25
REMARK    9  A    between atoms: C_25  and  C_26
REMARK   10  A    between atoms: C_25  and  C_27
REMARK   11  A    between atoms: C_25  and  C_28
REMARK                            x       y       z     vdW  Elec       q    Type
REMARK                         _______ _______ _______ _____ _____    ______ ____
ROOT
ATOM      1  C   UNL     1       4.760   3.497  19.132  0.00  0.00    +0.000 A 
ATOM      2  N   UNL     1       4.801   2.363  19.922  0.00  0.00    +0.000 N 
ATOM      3  C   UNL     1       3.635   2.264  20.612  0.00  0.00    +0.000 A 
ATOM      4  N   UNL     1       2.835   3.253  20.316  0.00  0.00    +0.000 NA
ATOM      5  C   UNL     1       3.496   4.040  19.372  0.00  0.00    +0.000 A 
ATOM      6  H   UNL     1       5.553   1.689  19.954  0.00  0.00    +0.000 HD
ENDROOT
BRANCH   1   8
ATOM      7  N   UNL     1       5.488   3.941  16.927  0.00  0.00    +0.000 N 
ATOM      8  C   UNL     1       5.821   3.912  18.253  0.00  0.00    +0.000 C 
ATOM      9  O   UNL     1       6.945   4.210  18.646  0.00  0.00    +0.000 OA
ATOM     10  H   UNL     1       4.589   3.600  16.610  0.00  0.00    +0.000 HD
BRANCH   7  12
ATOM     11  C   UNL     1       5.971   3.879  14.529  0.00  0.00    +0.000 C 
ATOM     12  C   UNL     1       6.382   4.444  15.879  0.00  0.00    +0.000 C 
BRANCH  12  13
ATOM     13  C   UNL     1       6.258   5.972  15.922  0.00  0.00    +0.000 C 
ATOM     14  O   UNL     1       5.237   6.553  15.561  0.00  0.00    +0.000 OA
BRANCH  13  15
ATOM     15  O   UNL     1       7.383   6.562  16.398  0.00  0.00    +0.000 OA
BRANCH  15  16
ATOM     16  C   UNL     1       7.322   7.329  17.634  0.00  0.00    +0.000 C 
ATOM     17  C   UNL     1       7.883   8.742  17.430  0.00  0.00    +0.000 C 
ATOM     18  C   UNL     1       5.830   7.449  17.989  0.00  0.00    +0.000 C 
ATOM     19  C   UNL     1       8.020   6.588  18.782  0.00  0.00    +0.000 C 
ENDBRANCH  15  16
ENDBRANCH  13  15
ENDBRANCH  12  13
ENDBRANCH   7  12
ENDBRANCH   1   8
BRANCH   5  20
ATOM     20  C   UNL     1       2.825   5.247  18.840  0.00  0.00    +0.000 C 
ATOM     21  O   UNL     1       2.387   5.244  17.691  0.00  0.00    +0.000 OA
ATOM     22  N   UNL     1       2.756   6.351  19.677  0.00  0.00    +0.000 N 
ATOM     23  H   UNL     1       3.298   6.311  20.538  0.00  0.00    +0.000 HD
BRANCH  22  24
ATOM     24  C   UNL     1       2.197   7.607  19.363  0.00  0.00    +0.000 A 
ATOM     25  C   UNL     1       2.391   8.252  18.142  0.00  0.00    +0.000 A 
ATOM     26  C   UNL     1       1.885   9.536  17.927  0.00  0.00    +0.000 A 
ATOM     27  C   UNL     1       1.169  10.185  18.932  0.00  0.00    +0.000 A 
ATOM     28 CL   UNL     1       0.622  11.793  18.618  0.00  0.00    +0.000 Cl
ATOM     29  C   UNL     1       0.927   9.527  20.141  0.00  0.00    +0.000 A 
ATOM     30 CL   UNL     1       0.042  10.263  21.431  0.00  0.00    +0.000 Cl
ATOM     31  C   UNL     1       1.426   8.235  20.349  0.00  0.00    +0.000 A 
ENDBRANCH  22  24
ENDBRANCH   5  20
TORSDOF 7
ENDMDL
MODEL 8
REMARK VINA RESULT:      -7.6      4.181      7.393
REMARK  Name = 
REMARK  11 active torsions:
REMARK  status: ('A' for Active; 'I' for Inactive)
REMARK    1  A    between atoms: C_1  and  C_2
REMARK    2  A    between atoms: C_2  and  N_3
REMARK    3  A    between atoms: C_2  and  C_22
REMARK    4  A    between atoms: C_4  and  C_6
REMARK    5  A    between atoms: C_10  and  C_11
REMARK    6  A    between atoms: N_13  and  C_14
REMARK    7  A    between atoms: C_22  and  O_24
REMARK    8  A    between atoms: O_24  and  C_25
REMARK    9  A    between atoms: C_25  and  C_26
REMARK   10  A    between atoms: C_25  and  C_27
REMARK   11  A    between atoms: C_25  and  C_28
REMARK                            x       y       z     vdW  Elec       q    Type
REMARK                         _______ _______ _______ _____ _____    ______ ____
ROOT
ATOM      1  C   UNL     1       5.998   5.800  17.486  0.00  0.00    +0.000 A 
ATOM      2  N   UNL     1       5.778   5.093  16.318  0.00  0.00    +0.000 N 
ATOM      3  C   UNL     1       6.791   5.351  15.450  0.00  0.00    +0.000 A 
ATOM      4  N   UNL     1       7.659   6.170  15.980  0.00  0.00    +0.000 NA
ATOM      5  C   UNL     1       7.209   6.460  17.269  0.00  0.00    +0.000 A 
ATOM      6  H   UNL     1       5.014   4.454  16.145  0.00  0.00    +0.000 HD
ENDROOT
BRANCH   1   8
ATOM      7  N   UNL     1       3.914   6.351  18.457  0.00  0.00    +0.000 N 
ATOM      8  C   UNL     1       5.132   5.757  18.635  0.00  0.00    +0.000 C 
ATOM      9  O   UNL     1       5.452   5.238  19.700  0.00  0.00    +0.000 OA
ATOM     10  H   UNL     1       3.702   6.858  17.607  0.00  0.00    +0.000 HD
BRANCH   7  12
ATOM     11  C   UNL     1       2.087   7.635  19.459  0.00  0.00    +0.000 C 
ATOM     12  C   UNL     1       2.842   6.316  19.459  0.00  0.00    +0.000 C 
BRANCH  12  13
ATOM     13  C   UNL     1       1.940   5.140  19.064  0.00  0.00    +0.000 C 
ATOM     14  O   UNL     1       1.689   4.877  17.890  0.00  0.00    +0.000 OA
BRANCH  13  15
ATOM     15  O   UNL     1       1.486   4.460  20.146  0.00  0.00    +0.000 OA
BRANCH  15  16
ATOM     16  C   UNL     1       1.717   3.026  20.242  0.00  0.00    +0.000 C 
ATOM     17  C   UNL     1       1.412   2.515  21.655  0.00  0.00    +0.000 C 
ATOM     18  C   UNL     1       0.726   2.368  19.266  0.00  0.00    +0.000 C 
ATOM     19  C   UNL     1       3.137   2.662  19.787  0.00  0.00    +0.000 C 
ENDBRANCH  15  16
ENDBRANCH  13  15
ENDBRANCH  12  13
ENDBRANCH   7  12
ENDBRANCH   1   8
BRANCH   5  20
ATOM     20  C   UNL     1       8.001   7.372  18.123  0.00  0.00    +0.000 C 
ATOM     21  O   UNL     1       8.520   6.946  19.152  0.00  0.00    +0.000 OA
ATOM     22  N   UNL     1       8.087   8.697  17.721  0.00  0.00    +0.000 N 
ATOM     23  H   UNL     1       7.482   8.986  16.954  0.00  0.00    +0.000 HD
BRANCH  22  24
ATOM     24  C   UNL     1       8.756   9.737  18.399  0.00  0.00    +0.000 A 
ATOM     25  C   UNL     1       8.940   9.761  19.781  0.00  0.00    +0.000 A 
ATOM     26  C   UNL     1       9.530  10.864  20.402  0.00  0.00    +0.000 A 
ATOM     27  C   UNL     1       9.953  11.953  19.642  0.00  0.00    +0.000 A 
ATOM     28 CL   UNL     1      10.622  13.307  20.480  0.00  0.00    +0.000 Cl
ATOM     29  C   UNL     1       9.818  11.918  18.251  0.00  0.00    +0.000 A 
ATOM     30 CL   UNL     1      10.325  13.225  17.241  0.00  0.00    +0.000 Cl
ATOM     31  C   UNL     1       9.236  10.804  17.630  0.00  0.00    +0.000 A 
ENDBRANCH  22  24
ENDBRANCH   5  20
TORSDOF 7
ENDMDL
MODEL 9
REMARK VINA RESULT:      -7.4      3.980      7.005
REMARK  Name = 
REMARK  11 active torsions:
REMARK  status: ('A' for Active; 'I' for Inactive)
REMARK    1  A    between atoms: C_1  and  C_2
REMARK    2  A    between atoms: C_2  and  N_3
REMARK    3  A    between atoms: C_2  and  C_22
REMARK    4  A    between atoms: C_4  and  C_6
REMARK    5  A    between atoms: C_10  and  C_11
REMARK    6  A    between atoms: N_13  and  C_14
REMARK    7  A    between atoms: C_22  and  O_24
REMARK    8  A    between atoms: O_24  and  C_25
REMARK    9  A    between atoms: C_25  and  C_26
REMARK   10  A    between atoms: C_25  and  C_27
REMARK   11  A    between atoms: C_25  and  C_28
REMARK                            x       y       z     vdW  Elec       q    Type
REMARK                         _______ _______ _______ _____ _____    ______ ____
ROOT
ATOM      1  C   UNL     1       5.554   5.888  16.427  0.00  0.00    +0.000 A 
ATOM      2  N   UNL     1       5.560   5.022  15.348  0.00  0.00    +0.000 N 
ATOM      3  C   UNL     1       6.833   4.898  14.891  0.00  0.00    +0.000 A 
ATOM      4  N   UNL     1       7.656   5.618  15.606  0.00  0.00    +0.000 NA
ATOM      5  C   UNL     1       6.895   6.239  16.597  0.00  0.00    +0.000 A 
ATOM      6  H   UNL     1       4.760   4.526  14.981  0.00  0.00    +0.000 HD
ENDROOT
BRANCH   1   8
ATOM      7  N   UNL     1       3.536   5.201  17.449  0.00  0.00    +0.000 N 
ATOM      8  C   UNL     1       4.376   6.243  17.175  0.00  0.00    +0.000 C 
ATOM      9  O   UNL     1       4.128   7.389  17.536  0.00  0.00    +0.000 OA
ATOM     10  H   UNL     1       3.705   4.281  17.062  0.00  0.00    +0.000 HD
BRANCH   7  12
ATOM     11  C   UNL     1       1.217   4.469  17.735  0.00  0.00    +0.000 C 
ATOM     12  C   UNL     1       2.343   5.323  18.295  0.00  0.00    +0.000 C 
BRANCH  12  13
ATOM     13  C   UNL     1       2.773   4.858  19.692  0.00  0.00    +0.000 C 
ATOM     14  O   UNL     1       2.265   5.312  20.715  0.00  0.00    +0.000 OA
BRANCH  13  15
ATOM     15  O   UNL     1       3.745   3.915  19.639  0.00  0.00    +0.000 OA
BRANCH  15  16
ATOM     16  C   UNL     1       3.402   2.517  19.861  0.00  0.00    +0.000 C 
ATOM     17  C   UNL     1       3.343   1.750  18.534  0.00  0.00    +0.000 C 
ATOM     18  C   UNL     1       4.543   1.927  20.709  0.00  0.00    +0.000 C 
ATOM     19  C   UNL     1       2.102   2.386  20.665  0.00  0.00    +0.000 C 
ENDBRANCH  15  16
ENDBRANCH  13  15
ENDBRANCH  12  13
ENDBRANCH   7  12
ENDBRANCH   1   8
BRANCH   5  20
ATOM     20  C   UNL     1       7.565   7.126  17.574  0.00  0.00    +0.000 C 
ATOM     21  O   UNL     1       7.870   6.692  18.682  0.00  0.00    +0.000 OA
ATOM     22  N   UNL     1       7.785   8.439  17.185  0.00  0.00    +0.000 N 
ATOM     23  H   UNL     1       7.341   8.745  16.320  0.00  0.00    +0.000 HD
BRANCH  22  24
ATOM     24  C   UNL     1       8.371   9.457  17.965  0.00  0.00    +0.000 A 
ATOM     25  C   UNL     1       9.016   9.221  19.178  0.00  0.00    +0.000 A 
ATOM     26  C   UNL     1       9.496  10.283  19.948  0.00  0.00    +0.000 A 
ATOM     27  C   UNL     1       9.344  11.596  19.504  0.00  0.00    +0.000 A 
ATOM     28 CL   UNL     1       9.910  12.863  20.532  0.00  0.00    +0.000 Cl
ATOM     29  C   UNL     1       8.742  11.840  18.265  0.00  0.00    +0.000 A 
ATOM     30 CL   UNL     1       8.525  13.438  17.644  0.00  0.00    +0.000 Cl
ATOM     31  C   UNL     1       8.273  10.771  17.491  0.00  0.00    +0.000 A 
ENDBRANCH  22  24
ENDBRANCH   5  20
TORSDOF 7
ENDMDL
