MODEL 1
REMARK VINA RESULT:      -9.3      0.000      0.000
REMARK  Name = 
REMARK  6 active torsions:
REMARK  status: ('A' for Active; 'I' for Inactive)
REMARK    1  A    between atoms: C_2  and  C_15
REMARK    2  A    between atoms: N_3  and  C_4
REMARK    3  A    between atoms: C_4  and  C_5
REMARK    4  A    between atoms: C_9  and  C_10
REMARK    5  A    between atoms: C_18  and  C_19
REMARK    6  A    between atoms: C_27  and  C_29
REMARK                            x       y       z     vdW  Elec       q    Type
REMARK                         _______ _______ _______ _____ _____    ______ ____
ROOT
ATOM      1  C   UNL     1       0.436  10.037  19.452  0.00  0.00    +0.000 C 
ATOM      2  C   UNL     1      -0.895  10.279  18.726  0.00  0.00    +0.000 C 
ATOM      3  C   UNL     1      -1.151  11.730  18.346  0.00  0.00    +0.000 C 
ATOM      4  C   UNL     1      -0.846  12.695  19.498  0.00  0.00    +0.000 C 
ATOM      5  N   UNL     1       0.582  12.519  19.859  0.00  0.00    +0.000 N 
ATOM      6  C   UNL     1       1.607  13.487  19.783  0.00  0.00    +0.000 C 
ATOM      7  O   UNL     1       2.764  13.228  20.102  0.00  0.00    +0.000 OA
ATOM      8  C   UNL     1       0.942  11.181  20.343  0.00  0.00    +0.000 C 
ENDROOT
BRANCH   4   9
ATOM      9  C   UNL     1      -1.786  12.616  20.710  0.00  0.00    +0.000 A 
ATOM     10  C   UNL     1      -1.282  12.465  22.023  0.00  0.00    +0.000 A 
ATOM     11  C   UNL     1      -2.141  12.355  23.121  0.00  0.00    +0.000 A 
ATOM     12  C   UNL     1      -3.512  12.434  22.928  0.00  0.00    +0.000 A 
ATOM     13  F   UNL     1      -4.339  12.312  23.973  0.00  0.00    +0.000 F 
ATOM     14  C   UNL     1      -4.037  12.644  21.662  0.00  0.00    +0.000 A 
ATOM     15  C   UNL     1      -3.177  12.744  20.563  0.00  0.00    +0.000 A 
ENDBRANCH   4   9
BRANCH   6  16
ATOM     16  C   UNL     1       1.360  14.850  19.230  0.00  0.00    +0.000 A 
ATOM     17  C   UNL     1       0.140  15.522  19.359  0.00  0.00    +0.000 A 
ATOM     18  C   UNL     1      -0.087  16.716  18.676  0.00  0.00    +0.000 A 
ATOM     19  C   UNL     1       0.953  17.324  17.980  0.00  0.00    +0.000 A 
ATOM     20  C   UNL     1       2.217  16.736  17.962  0.00  0.00    +0.000 A 
ATOM     21  C   UNL     1       2.417  15.494  18.570  0.00  0.00    +0.000 A 
ENDBRANCH   6  16
BRANCH   1  23
ATOM     22  O   UNL     1       1.918  10.386  17.598  0.00  0.00    +0.000 OA
ATOM     23  C   UNL     1       1.532   9.628  18.479  0.00  0.00    +0.000 C 
ATOM     24  N   UNL     1       2.031   8.365  18.668  0.00  0.00    +0.000 N 
ATOM     25  H   UNL     1       1.652   7.775  19.393  0.00  0.00    +0.000 HD
BRANCH  24  26
ATOM     26  C   UNL     1       3.016   7.794  17.792  0.00  0.00    +0.000 C 
BRANCH  26  27
ATOM     27  C   UNL     1       3.099   6.301  17.954  0.00  0.00    +0.000 A 
ATOM     28  C   UNL     1       4.111   5.576  17.312  0.00  0.00    +0.000 A 
ATOM     29  C   UNL     1       4.164   4.187  17.415  0.00  0.00    +0.000 A 
ATOM     30  C   UNL     1       3.217   3.509  18.181  0.00  0.00    +0.000 A 
ATOM     31  C   UNL     1       2.220   4.214  18.870  0.00  0.00    +0.000 A 
ATOM     32  C   UNL     1       2.175   5.614  18.755  0.00  0.00    +0.000 A 
BRANCH  31  33
ATOM     33  C   UNL     1       1.202   3.497  19.719  0.00  0.00    +0.000 C 
ATOM     34  F   UNL     1       0.252   2.837  18.998  0.00  0.00    +0.000 F 
ATOM     35  F   UNL     1       1.771   2.561  20.531  0.00  0.00    +0.000 F 
ATOM     36  F   UNL     1       0.524   4.341  20.545  0.00  0.00    +0.000 F 
ENDBRANCH  31  33
ENDBRANCH  26  27
ENDBRANCH  24  26
ENDBRANCH   1  23
TORSDOF 6
ENDMDL
MODEL 2
REMARK VINA RESULT:      -9.1      0.654      1.387
REMARK  Name = 
REMARK  6 active torsions:
REMARK  status: ('A' for Active; 'I' for Inactive)
REMARK    1  A    between atoms: C_2  and  C_15
REMARK    2  A    between atoms: N_3  and  C_4
REMARK    3  A    between atoms: C_4  and  C_5
REMARK    4  A    between atoms: C_9  and  C_10
REMARK    5  A    between atoms: C_18  and  C_19
REMARK    6  A    between atoms: C_27  and  C_29
REMARK                            x       y       z     vdW  Elec       q    Type
REMARK                         _______ _______ _______ _____ _____    ______ ____
ROOT
ATOM      1  C   UNL     1       0.398  10.140  19.619  0.00  0.00    +0.000 C 
ATOM      2  C   UNL     1      -0.855  10.535  18.824  0.00  0.00    +0.000 C 
ATOM      3  C   UNL     1      -1.010  12.031  18.595  0.00  0.00    +0.000 C 
ATOM      4  C   UNL     1      -0.757  12.844  19.870  0.00  0.00    +0.000 C 
ATOM      5  N   UNL     1       0.626  12.550  20.318  0.00  0.00    +0.000 N 
ATOM      6  C   UNL     1       1.697  13.461  20.434  0.00  0.00    +0.000 C 
ATOM      7  O   UNL     1       2.811  13.104  20.810  0.00  0.00    +0.000 OA
ATOM      8  C   UNL     1       0.881  11.147  20.672  0.00  0.00    +0.000 C 
ENDROOT
BRANCH   4   9
ATOM      9  C   UNL     1      -1.798  12.684  20.988  0.00  0.00    +0.000 A 
ATOM     10  C   UNL     1      -3.179  12.855  20.737  0.00  0.00    +0.000 A 
ATOM     11  C   UNL     1      -4.122  12.745  21.764  0.00  0.00    +0.000 A 
ATOM     12  C   UNL     1      -3.703  12.425  23.046  0.00  0.00    +0.000 A 
ATOM     13  F   UNL     1      -4.599  12.335  24.036  0.00  0.00    +0.000 F 
ATOM     14  C   UNL     1      -2.363  12.189  23.314  0.00  0.00    +0.000 A 
ATOM     15  C   UNL     1      -1.420  12.308  22.288  0.00  0.00    +0.000 A 
ENDBRANCH   4   9
BRANCH   6  16
ATOM     16  C   UNL     1       1.562  14.888  20.024  0.00  0.00    +0.000 A 
ATOM     17  C   UNL     1       1.919  15.361  18.757  0.00  0.00    +0.000 A 
ATOM     18  C   UNL     1       1.933  16.729  18.489  0.00  0.00    +0.000 A 
ATOM     19  C   UNL     1       1.446  17.624  19.436  0.00  0.00    +0.000 A 
ATOM     20  C   UNL     1       0.952  17.154  20.652  0.00  0.00    +0.000 A 
ATOM     21  C   UNL     1       1.026  15.792  20.953  0.00  0.00    +0.000 A 
ENDBRANCH   6  16
BRANCH   1  23
ATOM     22  O   UNL     1       2.088  10.624  17.986  0.00  0.00    +0.000 OA
ATOM     23  C   UNL     1       1.551   9.780  18.694  0.00  0.00    +0.000 C 
ATOM     24  N   UNL     1       1.922   8.461  18.718  0.00  0.00    +0.000 N 
ATOM     25  H   UNL     1       1.423   7.806  19.300  0.00  0.00    +0.000 HD
BRANCH  24  26
ATOM     26  C   UNL     1       2.942   7.937  17.850  0.00  0.00    +0.000 C 
BRANCH  26  27
ATOM     27  C   UNL     1       3.067   6.445  17.984  0.00  0.00    +0.000 A 
ATOM     28  C   UNL     1       4.105   5.762  17.337  0.00  0.00    +0.000 A 
ATOM     29  C   UNL     1       4.197   4.374  17.414  0.00  0.00    +0.000 A 
ATOM     30  C   UNL     1       3.265   3.653  18.158  0.00  0.00    +0.000 A 
ATOM     31  C   UNL     1       2.242   4.316  18.851  0.00  0.00    +0.000 A 
ATOM     32  C   UNL     1       2.157   5.716  18.763  0.00  0.00    +0.000 A 
BRANCH  31  33
ATOM     33  C   UNL     1       1.238   3.552  19.677  0.00  0.00    +0.000 C 
ATOM     34  F   UNL     1       0.502   4.339  20.512  0.00  0.00    +0.000 F 
ATOM     35  F   UNL     1       0.337   2.880  18.907  0.00  0.00    +0.000 F 
ATOM     36  F   UNL     1       1.822   2.612  20.470  0.00  0.00    +0.000 F 
ENDBRANCH  31  33
ENDBRANCH  26  27
ENDBRANCH  24  26
ENDBRANCH   1  23
TORSDOF 6
ENDMDL
MODEL 3
REMARK VINA RESULT:      -9.1      0.401      1.089
REMARK  Name = 
REMARK  6 active torsions:
REMARK  status: ('A' for Active; 'I' for Inactive)
REMARK    1  A    between atoms: C_2  and  C_15
REMARK    2  A    between atoms: N_3  and  C_4
REMARK    3  A    between atoms: C_4  and  C_5
REMARK    4  A    between atoms: C_9  and  C_10
REMARK    5  A    between atoms: C_18  and  C_19
REMARK    6  A    between atoms: C_27  and  C_29
REMARK                            x       y       z     vdW  Elec       q    Type
REMARK                         _______ _______ _______ _____ _____    ______ ____
ROOT
ATOM      1  C   UNL     1       0.466  10.030  19.675  0.00  0.00    +0.000 C 
ATOM      2  C   UNL     1      -0.878  10.288  18.979  0.00  0.00    +0.000 C 
ATOM      3  C   UNL     1      -1.148  11.749  18.652  0.00  0.00    +0.000 C 
ATOM      4  C   UNL     1      -0.829  12.678  19.830  0.00  0.00    +0.000 C 
ATOM      5  N   UNL     1       0.606  12.498  20.162  0.00  0.00    +0.000 N 
ATOM      6  C   UNL     1       1.623  13.474  20.102  0.00  0.00    +0.000 C 
ATOM      7  O   UNL     1       2.787  13.211  20.394  0.00  0.00    +0.000 OA
ATOM      8  C   UNL     1       0.980  11.146  20.596  0.00  0.00    +0.000 C 
ENDROOT
BRANCH   4   9
ATOM      9  C   UNL     1      -1.749  12.553  21.053  0.00  0.00    +0.000 A 
ATOM     10  C   UNL     1      -1.242  12.182  22.320  0.00  0.00    +0.000 A 
ATOM     11  C   UNL     1      -2.087  12.032  23.424  0.00  0.00    +0.000 A 
ATOM     12  C   UNL     1      -3.443  12.288  23.288  0.00  0.00    +0.000 A 
ATOM     13  F   UNL     1      -4.259  12.129  24.337  0.00  0.00    +0.000 F 
ATOM     14  C   UNL     1      -3.963  12.713  22.075  0.00  0.00    +0.000 A 
ATOM     15  C   UNL     1      -3.119  12.854  20.969  0.00  0.00    +0.000 A 
ENDBRANCH   4   9
BRANCH   6  16
ATOM     16  C   UNL     1       1.361  14.853  19.599  0.00  0.00    +0.000 A 
ATOM     17  C   UNL     1       2.058  15.427  18.532  0.00  0.00    +0.000 A 
ATOM     18  C   UNL     1       1.890  16.775  18.219  0.00  0.00    +0.000 A 
ATOM     19  C   UNL     1       0.914  17.521  18.872  0.00  0.00    +0.000 A 
ATOM     20  C   UNL     1       0.112  16.922  19.842  0.00  0.00    +0.000 A 
ATOM     21  C   UNL     1       0.345  15.597  20.218  0.00  0.00    +0.000 A 
ENDBRANCH   6  16
BRANCH   1  23
ATOM     22  O   UNL     1       1.968  10.473  17.858  0.00  0.00    +0.000 OA
ATOM     23  C   UNL     1       1.548   9.660  18.672  0.00  0.00    +0.000 C 
ATOM     24  N   UNL     1       1.995   8.367  18.755  0.00  0.00    +0.000 N 
ATOM     25  H   UNL     1       1.591   7.734  19.428  0.00  0.00    +0.000 HD
BRANCH  24  26
ATOM     26  C   UNL     1       2.960   7.831  17.834  0.00  0.00    +0.000 C 
BRANCH  26  27
ATOM     27  C   UNL     1       3.069   6.336  17.957  0.00  0.00    +0.000 A 
ATOM     28  C   UNL     1       4.103   5.648  17.309  0.00  0.00    +0.000 A 
ATOM     29  C   UNL     1       4.181   4.258  17.375  0.00  0.00    +0.000 A 
ATOM     30  C   UNL     1       3.238   3.542  18.110  0.00  0.00    +0.000 A 
ATOM     31  C   UNL     1       2.219   4.210  18.805  0.00  0.00    +0.000 A 
ATOM     32  C   UNL     1       2.149   5.611  18.727  0.00  0.00    +0.000 A 
BRANCH  31  33
ATOM     33  C   UNL     1       1.204   3.450  19.622  0.00  0.00    +0.000 C 
ATOM     34  F   UNL     1       1.757   2.580  20.513  0.00  0.00    +0.000 F 
ATOM     35  F   UNL     1       0.406   4.277  20.354  0.00  0.00    +0.000 F 
ATOM     36  F   UNL     1       0.362   2.709  18.849  0.00  0.00    +0.000 F 
ENDBRANCH  31  33
ENDBRANCH  26  27
ENDBRANCH  24  26
ENDBRANCH   1  23
TORSDOF 6
ENDMDL
MODEL 4
REMARK VINA RESULT:      -9.1      1.289      1.568
REMARK  Name = 
REMARK  6 active torsions:
REMARK  status: ('A' for Active; 'I' for Inactive)
REMARK    1  A    between atoms: C_2  and  C_15
REMARK    2  A    between atoms: N_3  and  C_4
REMARK    3  A    between atoms: C_4  and  C_5
REMARK    4  A    between atoms: C_9  and  C_10
REMARK    5  A    between atoms: C_18  and  C_19
REMARK    6  A    between atoms: C_27  and  C_29
REMARK                            x       y       z     vdW  Elec       q    Type
REMARK                         _______ _______ _______ _____ _____    ______ ____
ROOT
ATOM      1  C   UNL     1      -0.162   9.997  19.831  0.00  0.00    +0.000 C 
ATOM      2  C   UNL     1      -1.216  10.391  18.786  0.00  0.00    +0.000 C 
ATOM      3  C   UNL     1      -1.187  11.857  18.383  0.00  0.00    +0.000 C 
ATOM      4  C   UNL     1      -1.081  12.792  19.595  0.00  0.00    +0.000 C 
ATOM      5  N   UNL     1       0.170  12.448  20.314  0.00  0.00    +0.000 N 
ATOM      6  C   UNL     1       1.286  13.283  20.530  0.00  0.00    +0.000 C 
ATOM      7  O   UNL     1       2.279  12.889  21.137  0.00  0.00    +0.000 OA
ATOM      8  C   UNL     1       0.226  11.081  20.848  0.00  0.00    +0.000 C 
ENDROOT
BRANCH   4   9
ATOM      9  C   UNL     1      -2.310  12.841  20.515  0.00  0.00    +0.000 A 
ATOM     10  C   UNL     1      -2.191  13.180  21.883  0.00  0.00    +0.000 A 
ATOM     11  C   UNL     1      -3.305  13.188  22.727  0.00  0.00    +0.000 A 
ATOM     12  C   UNL     1      -4.558  12.896  22.211  0.00  0.00    +0.000 A 
ATOM     13  F   UNL     1      -5.625  12.886  23.017  0.00  0.00    +0.000 F 
ATOM     14  C   UNL     1      -4.719  12.621  20.861  0.00  0.00    +0.000 A 
ATOM     15  C   UNL     1      -3.602  12.604  20.019  0.00  0.00    +0.000 A 
ENDBRANCH   4   9
BRANCH   6  16
ATOM     16  C   UNL     1       1.360  14.659  19.960  0.00  0.00    +0.000 A 
ATOM     17  C   UNL     1       1.950  14.950  18.726  0.00  0.00    +0.000 A 
ATOM     18  C   UNL     1       2.142  16.270  18.326  0.00  0.00    +0.000 A 
ATOM     19  C   UNL     1       1.612  17.308  19.086  0.00  0.00    +0.000 A 
ATOM     20  C   UNL     1       0.896  17.026  20.248  0.00  0.00    +0.000 A 
ATOM     21  C   UNL     1       0.785  15.707  20.695  0.00  0.00    +0.000 A 
ENDBRANCH   6  16
BRANCH   1  23
ATOM     22  O   UNL     1       1.667  10.060  18.280  0.00  0.00    +0.000 OA
ATOM     23  C   UNL     1       1.094   9.447  19.172  0.00  0.00    +0.000 C 
ATOM     24  N   UNL     1       1.512   8.232  19.649  0.00  0.00    +0.000 N 
ATOM     25  H   UNL     1       0.982   7.760  20.366  0.00  0.00    +0.000 HD
BRANCH  24  26
ATOM     26  C   UNL     1       2.637   7.535  19.086  0.00  0.00    +0.000 C 
BRANCH  26  27
ATOM     27  C   UNL     1       2.391   6.053  19.023  0.00  0.00    +0.000 A 
ATOM     28  C   UNL     1       2.069   5.442  17.804  0.00  0.00    +0.000 A 
ATOM     29  C   UNL     1       1.789   4.078  17.746  0.00  0.00    +0.000 A 
ATOM     30  C   UNL     1       1.851   3.304  18.904  0.00  0.00    +0.000 A 
ATOM     31  C   UNL     1       2.214   3.882  20.128  0.00  0.00    +0.000 A 
ATOM     32  C   UNL     1       2.490   5.260  20.175  0.00  0.00    +0.000 A 
BRANCH  31  33
ATOM     33  C   UNL     1       2.306   3.054  21.385  0.00  0.00    +0.000 C 
ATOM     34  F   UNL     1       1.251   2.211  21.565  0.00  0.00    +0.000 F 
ATOM     35  F   UNL     1       3.419   2.269  21.408  0.00  0.00    +0.000 F 
ATOM     36  F   UNL     1       2.369   3.819  22.510  0.00  0.00    +0.000 F 
ENDBRANCH  31  33
ENDBRANCH  26  27
ENDBRANCH  24  26
ENDBRANCH   1  23
TORSDOF 6
ENDMDL
MODEL 5
REMARK VINA RESULT:      -9.1      1.190      1.597
REMARK  Name = 
REMARK  6 active torsions:
REMARK  status: ('A' for Active; 'I' for Inactive)
REMARK    1  A    between atoms: C_2  and  C_15
REMARK    2  A    between atoms: N_3  and  C_4
REMARK    3  A    between atoms: C_4  and  C_5
REMARK    4  A    between atoms: C_9  and  C_10
REMARK    5  A    between atoms: C_18  and  C_19
REMARK    6  A    between atoms: C_27  and  C_29
REMARK                            x       y       z     vdW  Elec       q    Type
REMARK                         _______ _______ _______ _____ _____    ______ ____
ROOT
ATOM      1  C   UNL     1      -0.180   9.997  19.871  0.00  0.00    +0.000 C 
ATOM      2  C   UNL     1      -1.276  10.363  18.860  0.00  0.00    +0.000 C 
ATOM      3  C   UNL     1      -1.278  11.824  18.435  0.00  0.00    +0.000 C 
ATOM      4  C   UNL     1      -1.140  12.777  19.629  0.00  0.00    +0.000 C 
ATOM      5  N   UNL     1       0.140  12.458  20.307  0.00  0.00    +0.000 N 
ATOM      6  C   UNL     1       1.254  13.308  20.471  0.00  0.00    +0.000 C 
ATOM      7  O   UNL     1       2.272  12.934  21.047  0.00  0.00    +0.000 OA
ATOM      8  C   UNL     1       0.231  11.099  20.858  0.00  0.00    +0.000 C 
ENDROOT
BRANCH   4   9
ATOM      9  C   UNL     1      -2.336  12.826  20.592  0.00  0.00    +0.000 A 
ATOM     10  C   UNL     1      -3.661  12.667  20.127  0.00  0.00    +0.000 A 
ATOM     11  C   UNL     1      -4.751  12.749  21.000  0.00  0.00    +0.000 A 
ATOM     12  C   UNL     1      -4.530  12.952  22.353  0.00  0.00    +0.000 A 
ATOM     13  F   UNL     1      -5.569  13.049  23.191  0.00  0.00    +0.000 F 
ATOM     14  C   UNL     1      -3.239  13.051  22.851  0.00  0.00    +0.000 A 
ATOM     15  C   UNL     1      -2.151  12.978  21.976  0.00  0.00    +0.000 A 
ENDBRANCH   4   9
BRANCH   6  16
ATOM     16  C   UNL     1       1.290  14.677  19.880  0.00  0.00    +0.000 A 
ATOM     17  C   UNL     1       0.418  15.702  20.261  0.00  0.00    +0.000 A 
ATOM     18  C   UNL     1       0.386  16.903  19.555  0.00  0.00    +0.000 A 
ATOM     19  C   UNL     1       1.326  17.147  18.560  0.00  0.00    +0.000 A 
ATOM     20  C   UNL     1       2.294  16.189  18.265  0.00  0.00    +0.000 A 
ATOM     21  C   UNL     1       2.267  14.949  18.910  0.00  0.00    +0.000 A 
ENDBRANCH   6  16
BRANCH   1  23
ATOM     22  O   UNL     1       1.597  10.063  18.262  0.00  0.00    +0.000 OA
ATOM     23  C   UNL     1       1.057   9.451  19.175  0.00  0.00    +0.000 C 
ATOM     24  N   UNL     1       1.499   8.241  19.645  0.00  0.00    +0.000 N 
ATOM     25  H   UNL     1       0.995   7.770  20.381  0.00  0.00    +0.000 HD
BRANCH  24  26
ATOM     26  C   UNL     1       2.609   7.549  19.050  0.00  0.00    +0.000 C 
BRANCH  26  27
ATOM     27  C   UNL     1       2.376   6.064  19.011  0.00  0.00    +0.000 A 
ATOM     28  C   UNL     1       2.167   5.414  17.788  0.00  0.00    +0.000 A 
ATOM     29  C   UNL     1       1.898   4.047  17.748  0.00  0.00    +0.000 A 
ATOM     30  C   UNL     1       1.859   3.309  18.929  0.00  0.00    +0.000 A 
ATOM     31  C   UNL     1       2.108   3.927  20.163  0.00  0.00    +0.000 A 
ATOM     32  C   UNL     1       2.373   5.307  20.192  0.00  0.00    +0.000 A 
BRANCH  31  33
ATOM     33  C   UNL     1       2.089   3.139  21.449  0.00  0.00    +0.000 C 
ATOM     34  F   UNL     1       3.007   2.133  21.489  0.00  0.00    +0.000 F 
ATOM     35  F   UNL     1       2.343   3.918  22.538  0.00  0.00    +0.000 F 
ATOM     36  F   UNL     1       0.883   2.553  21.684  0.00  0.00    +0.000 F 
ENDBRANCH  31  33
ENDBRANCH  26  27
ENDBRANCH  24  26
ENDBRANCH   1  23
TORSDOF 6
ENDMDL
MODEL 6
REMARK VINA RESULT:      -9.0      1.220      1.815
REMARK  Name = 
REMARK  6 active torsions:
REMARK  status: ('A' for Active; 'I' for Inactive)
REMARK    1  A    between atoms: C_2  and  C_15
REMARK    2  A    between atoms: N_3  and  C_4
REMARK    3  A    between atoms: C_4  and  C_5
REMARK    4  A    between atoms: C_9  and  C_10
REMARK    5  A    between atoms: C_18  and  C_19
REMARK    6  A    between atoms: C_27  and  C_29
REMARK                            x       y       z     vdW  Elec       q    Type
REMARK                         _______ _______ _______ _____ _____    ______ ____
ROOT
ATOM      1  C   UNL     1      -0.170  10.015  19.940  0.00  0.00    +0.000 C 
ATOM      2  C   UNL     1      -1.292  10.401  18.966  0.00  0.00    +0.000 C 
ATOM      3  C   UNL     1      -1.309  11.871  18.575  0.00  0.00    +0.000 C 
ATOM      4  C   UNL     1      -1.144  12.797  19.787  0.00  0.00    +0.000 C 
ATOM      5  N   UNL     1       0.154  12.466  20.425  0.00  0.00    +0.000 N 
ATOM      6  C   UNL     1       1.269  13.316  20.580  0.00  0.00    +0.000 C 
ATOM      7  O   UNL     1       2.303  12.932  21.121  0.00  0.00    +0.000 OA
ATOM      8  C   UNL     1       0.263  11.096  20.941  0.00  0.00    +0.000 C 
ENDROOT
BRANCH   4   9
ATOM      9  C   UNL     1      -2.314  12.819  20.781  0.00  0.00    +0.000 A 
ATOM     10  C   UNL     1      -3.655  12.741  20.340  0.00  0.00    +0.000 A 
ATOM     11  C   UNL     1      -4.721  12.799  21.244  0.00  0.00    +0.000 A 
ATOM     12  C   UNL     1      -4.461  12.897  22.602  0.00  0.00    +0.000 A 
ATOM     13  F   UNL     1      -5.477  12.970  23.471  0.00  0.00    +0.000 F 
ATOM     14  C   UNL     1      -3.157  12.914  23.073  0.00  0.00    +0.000 A 
ATOM     15  C   UNL     1      -2.092  12.865  22.168  0.00  0.00    +0.000 A 
ENDBRANCH   4   9
BRANCH   6  16
ATOM     16  C   UNL     1       1.287  14.699  20.020  0.00  0.00    +0.000 A 
ATOM     17  C   UNL     1       1.736  15.000  18.731  0.00  0.00    +0.000 A 
ATOM     18  C   UNL     1       1.891  16.324  18.325  0.00  0.00    +0.000 A 
ATOM     19  C   UNL     1       1.456  17.356  19.151  0.00  0.00    +0.000 A 
ATOM     20  C   UNL     1       0.874  17.065  20.383  0.00  0.00    +0.000 A 
ATOM     21  C   UNL     1       0.805  15.741  20.826  0.00  0.00    +0.000 A 
ENDBRANCH   6  16
BRANCH   1  23
ATOM     22  O   UNL     1       1.588  10.141  18.313  0.00  0.00    +0.000 OA
ATOM     23  C   UNL     1       1.051   9.490  19.200  0.00  0.00    +0.000 C 
ATOM     24  N   UNL     1       1.482   8.252  19.601  0.00  0.00    +0.000 N 
ATOM     25  H   UNL     1       0.981   7.749  20.318  0.00  0.00    +0.000 HD
BRANCH  24  26
ATOM     26  C   UNL     1       2.575   7.576  18.955  0.00  0.00    +0.000 C 
BRANCH  26  27
ATOM     27  C   UNL     1       2.371   6.087  18.941  0.00  0.00    +0.000 A 
ATOM     28  C   UNL     1       2.189   5.410  17.728  0.00  0.00    +0.000 A 
ATOM     29  C   UNL     1       1.948   4.038  17.710  0.00  0.00    +0.000 A 
ATOM     30  C   UNL     1       1.909   3.321  18.904  0.00  0.00    +0.000 A 
ATOM     31  C   UNL     1       2.131   3.966  20.129  0.00  0.00    +0.000 A 
ATOM     32  C   UNL     1       2.369   5.351  20.135  0.00  0.00    +0.000 A 
BRANCH  31  33
ATOM     33  C   UNL     1       2.112   3.201  21.429  0.00  0.00    +0.000 C 
ATOM     34  F   UNL     1       2.388   3.968  22.521  0.00  0.00    +0.000 F 
ATOM     35  F   UNL     1       0.901   2.626  21.674  0.00  0.00    +0.000 F 
ATOM     36  F   UNL     1       3.017   2.184  21.448  0.00  0.00    +0.000 F 
ENDBRANCH  31  33
ENDBRANCH  26  27
ENDBRANCH  24  26
ENDBRANCH   1  23
TORSDOF 6
ENDMDL
MODEL 7
REMARK VINA RESULT:      -9.0      0.570      1.050
REMARK  Name = 
REMARK  6 active torsions:
REMARK  status: ('A' for Active; 'I' for Inactive)
REMARK    1  A    between atoms: C_2  and  C_15
REMARK    2  A    between atoms: N_3  and  C_4
REMARK    3  A    between atoms: C_4  and  C_5
REMARK    4  A    between atoms: C_9  and  C_10
REMARK    5  A    between atoms: C_18  and  C_19
REMARK    6  A    between atoms: C_27  and  C_29
REMARK                            x       y       z     vdW  Elec       q    Type
REMARK                         _______ _______ _______ _____ _____    ______ ____
ROOT
ATOM      1  C   UNL     1       0.310  10.300  19.542  0.00  0.00    +0.000 C 
ATOM      2  C   UNL     1      -0.974  10.513  18.727  0.00  0.00    +0.000 C 
ATOM      3  C   UNL     1      -1.234  11.958  18.327  0.00  0.00    +0.000 C 
ATOM      4  C   UNL     1      -1.027  12.931  19.494  0.00  0.00    +0.000 C 
ATOM      5  N   UNL     1       0.377  12.786  19.951  0.00  0.00    +0.000 N 
ATOM      6  C   UNL     1       1.383  13.775  19.942  0.00  0.00    +0.000 C 
ATOM      7  O   UNL     1       2.522  13.540  20.339  0.00  0.00    +0.000 OA
ATOM      8  C   UNL     1       0.731  11.456  20.462  0.00  0.00    +0.000 C 
ENDROOT
BRANCH   4   9
ATOM      9  C   UNL     1      -2.045  12.834  20.640  0.00  0.00    +0.000 A 
ATOM     10  C   UNL     1      -3.437  12.824  20.388  0.00  0.00    +0.000 A 
ATOM     11  C   UNL     1      -4.363  12.772  21.434  0.00  0.00    +0.000 A 
ATOM     12  C   UNL     1      -3.913  12.692  22.743  0.00  0.00    +0.000 A 
ATOM     13  F   UNL     1      -4.794  12.659  23.749  0.00  0.00    +0.000 F 
ATOM     14  C   UNL     1      -2.555  12.637  23.021  0.00  0.00    +0.000 A 
ATOM     15  C   UNL     1      -1.630  12.697  21.974  0.00  0.00    +0.000 A 
ENDBRANCH   4   9
BRANCH   6  16
ATOM     16  C   UNL     1       1.146  15.132  19.370  0.00  0.00    +0.000 A 
ATOM     17  C   UNL     1      -0.003  15.884  19.629  0.00  0.00    +0.000 A 
ATOM     18  C   UNL     1      -0.248  17.067  18.933  0.00  0.00    +0.000 A 
ATOM     19  C   UNL     1       0.724  17.583  18.083  0.00  0.00    +0.000 A 
ATOM     20  C   UNL     1       1.937  16.915  17.923  0.00  0.00    +0.000 A 
ATOM     21  C   UNL     1       2.142  15.683  18.550  0.00  0.00    +0.000 A 
ENDBRANCH   6  16
BRANCH   1  23
ATOM     22  O   UNL     1       2.083  10.752  17.991  0.00  0.00    +0.000 OA
ATOM     23  C   UNL     1       1.477   9.913  18.647  0.00  0.00    +0.000 C 
ATOM     24  N   UNL     1       1.779   8.576  18.636  0.00  0.00    +0.000 N 
ATOM     25  H   UNL     1       1.225   7.928  19.175  0.00  0.00    +0.000 HD
BRANCH  24  26
ATOM     26  C   UNL     1       2.803   8.030  17.788  0.00  0.00    +0.000 C 
BRANCH  26  27
ATOM     27  C   UNL     1       3.102   6.598  18.136  0.00  0.00    +0.000 A 
ATOM     28  C   UNL     1       4.125   5.909  17.473  0.00  0.00    +0.000 A 
ATOM     29  C   UNL     1       4.374   4.567  17.753  0.00  0.00    +0.000 A 
ATOM     30  C   UNL     1       3.616   3.903  18.716  0.00  0.00    +0.000 A 
ATOM     31  C   UNL     1       2.615   4.582  19.425  0.00  0.00    +0.000 A 
ATOM     32  C   UNL     1       2.370   5.934  19.131  0.00  0.00    +0.000 A 
BRANCH  31  33
ATOM     33  C   UNL     1       1.800   3.884  20.485  0.00  0.00    +0.000 C 
ATOM     34  F   UNL     1       1.766   2.529  20.348  0.00  0.00    +0.000 F 
ATOM     35  F   UNL     1       2.273   4.120  21.741  0.00  0.00    +0.000 F 
ATOM     36  F   UNL     1       0.500   4.290  20.495  0.00  0.00    +0.000 F 
ENDBRANCH  31  33
ENDBRANCH  26  27
ENDBRANCH  24  26
ENDBRANCH   1  23
TORSDOF 6
ENDMDL
MODEL 8
REMARK VINA RESULT:      -9.0      3.061      4.816
REMARK  Name = 
REMARK  6 active torsions:
REMARK  status: ('A' for Active; 'I' for Inactive)
REMARK    1  A    between atoms: C_2  and  C_15
REMARK    2  A    between atoms: N_3  and  C_4
REMARK    3  A    between atoms: C_4  and  C_5
REMARK    4  A    between atoms: C_9  and  C_10
REMARK    5  A    between atoms: C_18  and  C_19
REMARK    6  A    between atoms: C_27  and  C_29
REMARK                            x       y       z     vdW  Elec       q    Type
REMARK                         _______ _______ _______ _____ _____    ______ ____
ROOT
ATOM      1  C   UNL     1       0.948   9.753  21.276  0.00  0.00    +0.000 C 
ATOM      2  C   UNL     1       0.090  10.547  22.272  0.00  0.00    +0.000 C 
ATOM      3  C   UNL     1      -1.173  11.149  21.674  0.00  0.00    +0.000 C 
ATOM      4  C   UNL     1      -0.907  11.847  20.334  0.00  0.00    +0.000 C 
ATOM      5  N   UNL     1      -0.353  10.830  19.407  0.00  0.00    +0.000 N 
ATOM      6  C   UNL     1      -0.921  10.382  18.195  0.00  0.00    +0.000 C 
ATOM      7  O   UNL     1      -0.376   9.524  17.505  0.00  0.00    +0.000 OA
ATOM      8  C   UNL     1       0.927  10.241  19.820  0.00  0.00    +0.000 C 
ENDROOT
BRANCH   4   9
ATOM      9  C   UNL     1      -0.061  13.127  20.398  0.00  0.00    +0.000 A 
ATOM     10  C   UNL     1       0.258  13.736  21.634  0.00  0.00    +0.000 A 
ATOM     11  C   UNL     1       0.997  14.922  21.688  0.00  0.00    +0.000 A 
ATOM     12  C   UNL     1       1.461  15.494  20.513  0.00  0.00    +0.000 A 
ATOM     13  F   UNL     1       2.154  16.638  20.558  0.00  0.00    +0.000 F 
ATOM     14  C   UNL     1       1.219  14.888  19.289  0.00  0.00    +0.000 A 
ATOM     15  C   UNL     1       0.472  13.707  19.236  0.00  0.00    +0.000 A 
ENDBRANCH   4   9
BRANCH   6  16
ATOM     16  C   UNL     1      -2.254  10.860  17.728  0.00  0.00    +0.000 A 
ATOM     17  C   UNL     1      -3.178  11.496  18.564  0.00  0.00    +0.000 A 
ATOM     18  C   UNL     1      -4.470  11.764  18.117  0.00  0.00    +0.000 A 
ATOM     19  C   UNL     1      -4.803  11.537  16.785  0.00  0.00    +0.000 A 
ATOM     20  C   UNL     1      -3.848  11.035  15.903  0.00  0.00    +0.000 A 
ATOM     21  C   UNL     1      -2.581  10.681  16.376  0.00  0.00    +0.000 A 
ENDBRANCH   6  16
BRANCH   1  23
ATOM     22  O   UNL     1      -0.479   7.870  21.690  0.00  0.00    +0.000 OA
ATOM     23  C   UNL     1       0.618   8.269  21.319  0.00  0.00    +0.000 C 
ATOM     24  N   UNL     1       1.634   7.439  20.922  0.00  0.00    +0.000 N 
ATOM     25  H   UNL     1       2.527   7.824  20.655  0.00  0.00    +0.000 HD
BRANCH  24  26
ATOM     26  C   UNL     1       1.517   6.007  20.974  0.00  0.00    +0.000 C 
BRANCH  26  27
ATOM     27  C   UNL     1       1.998   5.367  19.701  0.00  0.00    +0.000 A 
ATOM     28  C   UNL     1       1.423   4.173  19.249  0.00  0.00    +0.000 A 
ATOM     29  C   UNL     1       1.899   3.547  18.099  0.00  0.00    +0.000 A 
ATOM     30  C   UNL     1       2.942   4.121  17.373  0.00  0.00    +0.000 A 
ATOM     31  C   UNL     1       3.506   5.339  17.780  0.00  0.00    +0.000 A 
ATOM     32  C   UNL     1       3.020   5.958  18.944  0.00  0.00    +0.000 A 
BRANCH  31  33
ATOM     33  C   UNL     1       4.620   5.983  16.994  0.00  0.00    +0.000 C 
ATOM     34  F   UNL     1       5.025   5.253  15.917  0.00  0.00    +0.000 F 
ATOM     35  F   UNL     1       4.270   7.206  16.505  0.00  0.00    +0.000 F 
ATOM     36  F   UNL     1       5.736   6.190  17.747  0.00  0.00    +0.000 F 
ENDBRANCH  31  33
ENDBRANCH  26  27
ENDBRANCH  24  26
ENDBRANCH   1  23
TORSDOF 6
ENDMDL
MODEL 9
REMARK VINA RESULT:      -9.0      2.590      4.509
REMARK  Name = 
REMARK  6 active torsions:
REMARK  status: ('A' for Active; 'I' for Inactive)
REMARK    1  A    between atoms: C_2  and  C_15
REMARK    2  A    between atoms: N_3  and  C_4
REMARK    3  A    between atoms: C_4  and  C_5
REMARK    4  A    between atoms: C_9  and  C_10
REMARK    5  A    between atoms: C_18  and  C_19
REMARK    6  A    between atoms: C_27  and  C_29
REMARK                            x       y       z     vdW  Elec       q    Type
REMARK                         _______ _______ _______ _____ _____    ______ ____
ROOT
ATOM      1  C   UNL     1       0.798  10.396  21.328  0.00  0.00    +0.000 C 
ATOM      2  C   UNL     1      -0.110  11.253  22.222  0.00  0.00    +0.000 C 
ATOM      3  C   UNL     1      -1.387  11.733  21.548  0.00  0.00    +0.000 C 
ATOM      4  C   UNL     1      -1.127  12.295  20.145  0.00  0.00    +0.000 C 
ATOM      5  N   UNL     1      -0.515  11.210  19.338  0.00  0.00    +0.000 N 
ATOM      6  C   UNL     1      -1.043  10.611  18.174  0.00  0.00    +0.000 C 
ATOM      7  O   UNL     1      -0.450   9.710  17.587  0.00  0.00    +0.000 OA
ATOM      8  C   UNL     1       0.781  10.725  19.828  0.00  0.00    +0.000 C 
ENDROOT
BRANCH   4   9
ATOM      9  C   UNL     1      -0.337  13.610  20.082  0.00  0.00    +0.000 A 
ATOM     10  C   UNL     1      -0.130  14.286  18.858  0.00  0.00    +0.000 A 
ATOM     11  C   UNL     1       0.621  15.464  18.797  0.00  0.00    +0.000 A 
ATOM     12  C   UNL     1       1.144  16.003  19.963  0.00  0.00    +0.000 A 
ATOM     13  F   UNL     1       1.878  17.120  19.909  0.00  0.00    +0.000 F 
ATOM     14  C   UNL     1       0.908  15.398  21.188  0.00  0.00    +0.000 A 
ATOM     15  C   UNL     1       0.164  14.216  21.246  0.00  0.00    +0.000 A 
ENDBRANCH   4   9
BRANCH   6  16
ATOM     16  C   UNL     1      -2.387  10.979  17.642  0.00  0.00    +0.000 A 
ATOM     17  C   UNL     1      -3.399  11.537  18.430  0.00  0.00    +0.000 A 
ATOM     18  C   UNL     1      -4.686  11.698  17.921  0.00  0.00    +0.000 A 
ATOM     19  C   UNL     1      -4.934  11.444  16.576  0.00  0.00    +0.000 A 
ATOM     20  C   UNL     1      -3.900  11.022  15.743  0.00  0.00    +0.000 A 
ATOM     21  C   UNL     1      -2.633  10.773  16.277  0.00  0.00    +0.000 A 
ENDBRANCH   6  16
BRANCH   1  23
ATOM     22  O   UNL     1      -0.498   8.515  22.061  0.00  0.00    +0.000 OA
ATOM     23  C   UNL     1       0.530   8.912  21.526  0.00  0.00    +0.000 C 
ATOM     24  N   UNL     1       1.519   8.080  21.069  0.00  0.00    +0.000 N 
ATOM     25  H   UNL     1       2.358   8.466  20.663  0.00  0.00    +0.000 HD
BRANCH  24  26
ATOM     26  C   UNL     1       1.461   6.654  21.244  0.00  0.00    +0.000 C 
BRANCH  26  27
ATOM     27  C   UNL     1       1.956   5.928  20.024  0.00  0.00    +0.000 A 
ATOM     28  C   UNL     1       2.718   6.602  19.062  0.00  0.00    +0.000 A 
ATOM     29  C   UNL     1       3.136   5.950  17.904  0.00  0.00    +0.000 A 
ATOM     30  C   UNL     1       2.816   4.608  17.704  0.00  0.00    +0.000 A 
ATOM     31  C   UNL     1       2.091   3.898  18.672  0.00  0.00    +0.000 A 
ATOM     32  C   UNL     1       1.671   4.568  19.835  0.00  0.00    +0.000 A 
BRANCH  31  33
ATOM     33  C   UNL     1       1.754   2.441  18.481  0.00  0.00    +0.000 C 
ATOM     34  F   UNL     1       2.279   1.900  17.346  0.00  0.00    +0.000 F 
ATOM     35  F   UNL     1       2.206   1.665  19.507  0.00  0.00    +0.000 F 
ATOM     36  F   UNL     1       0.411   2.221  18.413  0.00  0.00    +0.000 F 
ENDBRANCH  31  33
ENDBRANCH  26  27
ENDBRANCH  24  26
ENDBRANCH   1  23
TORSDOF 6
ENDMDL
