MODEL 1
REMARK VINA RESULT:      -7.7      0.000      0.000
REMARK  Name = 
REMARK  5 active torsions:
REMARK  status: ('A' for Active; 'I' for Inactive)
REMARK    1  A    between atoms: C_2  and  C_4
REMARK    2  A    between atoms: C_6  and  O_7
REMARK    3  A    between atoms: N_9  and  C_10
REMARK    4  A    between atoms: N_13  and  C_14
REMARK    5  A    between atoms: C_14  and  C_15
REMARK                            x       y       z     vdW  Elec       q    Type
REMARK                         _______ _______ _______ _____ _____    ______ ____
ROOT
ATOM      1  C   UNL     1       3.459   5.201  18.766  0.00  0.00    +0.000 C 
ATOM      2  C   UNL     1       3.685   5.992  17.460  0.00  0.00    +0.000 C 
ATOM      3  C   UNL     1       4.871   5.479  16.645  0.00  0.00    +0.000 C 
ATOM      4  N   UNL     1       6.138   5.461  17.392  0.00  0.00    +0.000 NA
ATOM      5  C   UNL     1       5.998   4.851  18.726  0.00  0.00    +0.000 C 
ATOM      6  C   UNL     1       4.790   5.320  19.535  0.00  0.00    +0.000 C 
ENDROOT
BRANCH   1  11
ATOM      7  C   UNL     1       3.172   2.948  19.814  0.00  0.00    +0.000 C 
ATOM      8  C   UNL     1       1.847   2.232  20.079  0.00  0.00    +0.000 C 
ATOM      9  C   UNL     1       0.820   3.160  19.487  0.00  0.00    +0.000 C 
ATOM     10  C   UNL     1       1.535   3.723  18.263  0.00  0.00    +0.000 C 
ATOM     11  N   UNL     1       2.991   3.791  18.572  0.00  0.00    +0.000 NA
BRANCH   7  13
ATOM     12  N   UNL     1       4.136   1.019  18.621  0.00  0.00    +0.000 N 
ATOM     13  C   UNL     1       4.269   1.888  19.662  0.00  0.00    +0.000 C 
ATOM     14  O   UNL     1       5.179   1.752  20.476  0.00  0.00    +0.000 OA
ATOM     15  H   UNL     1       4.845   0.315  18.469  0.00  0.00    +0.000 HD
ATOM     16  H   UNL     1       3.418   1.189  17.926  0.00  0.00    +0.000 HD
ENDBRANCH   7  13
BRANCH   9  17
ATOM     17  O   UNL     1       0.463   4.188  20.407  0.00  0.00    +0.000 OA
ATOM     18  H   UNL     1       0.089   3.783  21.208  0.00  0.00    +0.000 HD
ENDBRANCH   9  17
ENDBRANCH   1  11
BRANCH   4  19
ATOM     19  C   UNL     1       7.175   4.707  16.648  0.00  0.00    +0.000 C 
BRANCH  19  20
ATOM     20  C   UNL     1       6.949   4.588  15.156  0.00  0.00    +0.000 A 
ATOM     21  C   UNL     1       6.095   3.597  14.643  0.00  0.00    +0.000 A 
ATOM     22  C   UNL     1       5.937   3.436  13.266  0.00  0.00    +0.000 A 
ATOM     23  C   UNL     1       6.632   4.263  12.385  0.00  0.00    +0.000 A 
ATOM     24  C   UNL     1       7.474   5.255  12.887  0.00  0.00    +0.000 A 
ATOM     25 CL   UNL     1       8.337   6.269  11.796  0.00  0.00    +0.000 Cl
ATOM     26  C   UNL     1       7.635   5.425  14.260  0.00  0.00    +0.000 A 
ENDBRANCH  19  20
ENDBRANCH   4  19
TORSDOF 5
ENDMDL
MODEL 2
REMARK VINA RESULT:      -7.6      1.129      1.503
REMARK  Name = 
REMARK  5 active torsions:
REMARK  status: ('A' for Active; 'I' for Inactive)
REMARK    1  A    between atoms: C_2  and  C_4
REMARK    2  A    between atoms: C_6  and  O_7
REMARK    3  A    between atoms: N_9  and  C_10
REMARK    4  A    between atoms: N_13  and  C_14
REMARK    5  A    between atoms: C_14  and  C_15
REMARK                            x       y       z     vdW  Elec       q    Type
REMARK                         _______ _______ _______ _____ _____    ______ ____
ROOT
ATOM      1  C   UNL     1       3.551   5.050  18.703  0.00  0.00    +0.000 C 
ATOM      2  C   UNL     1       3.610   5.584  17.255  0.00  0.00    +0.000 C 
ATOM      3  C   UNL     1       4.709   4.931  16.419  0.00  0.00    +0.000 C 
ATOM      4  N   UNL     1       6.051   5.057  17.006  0.00  0.00    +0.000 NA
ATOM      5  C   UNL     1       6.077   4.706  18.436  0.00  0.00    +0.000 C 
ATOM      6  C   UNL     1       4.956   5.314  19.278  0.00  0.00    +0.000 C 
ENDROOT
BRANCH   1  11
ATOM      7  C   UNL     1       3.274   3.088  20.229  0.00  0.00    +0.000 C 
ATOM      8  C   UNL     1       1.953   2.434  20.637  0.00  0.00    +0.000 C 
ATOM      9  C   UNL     1       0.923   3.193  19.842  0.00  0.00    +0.000 C 
ATOM     10  C   UNL     1       1.648   3.473  18.529  0.00  0.00    +0.000 C 
ATOM     11  N   UNL     1       3.099   3.627  18.828  0.00  0.00    +0.000 NA
BRANCH   7  13
ATOM     12  N   UNL     1       4.637   1.308  19.205  0.00  0.00    +0.000 N 
ATOM     13  C   UNL     1       4.382   2.034  20.330  0.00  0.00    +0.000 C 
ATOM     14  O   UNL     1       4.960   1.776  21.383  0.00  0.00    +0.000 OA
ATOM     15  H   UNL     1       5.373   0.616  19.218  0.00  0.00    +0.000 HD
ATOM     16  H   UNL     1       4.198   1.581  18.334  0.00  0.00    +0.000 HD
ENDBRANCH   7  13
BRANCH   9  17
ATOM     17  O   UNL     1       0.547   4.397  20.503  0.00  0.00    +0.000 OA
ATOM     18  H   UNL     1      -0.269   4.241  21.008  0.00  0.00    +0.000 HD
ENDBRANCH   9  17
ENDBRANCH   1  11
BRANCH   4  19
ATOM     19  C   UNL     1       7.017   4.181  16.300  0.00  0.00    +0.000 C 
BRANCH  19  20
ATOM     20  C   UNL     1       7.032   4.311  14.792  0.00  0.00    +0.000 A 
ATOM     21  C   UNL     1       7.893   5.228  14.166  0.00  0.00    +0.000 A 
ATOM     22  C   UNL     1       7.861   5.405  12.782  0.00  0.00    +0.000 A 
ATOM     23  C   UNL     1       6.968   4.668  12.007  0.00  0.00    +0.000 A 
ATOM     24  C   UNL     1       6.117   3.748  12.620  0.00  0.00    +0.000 A 
ATOM     25 CL   UNL     1       5.009   2.845  11.661  0.00  0.00    +0.000 Cl
ATOM     26  C   UNL     1       6.144   3.563  14.001  0.00  0.00    +0.000 A 
ENDBRANCH  19  20
ENDBRANCH   4  19
TORSDOF 5
ENDMDL
MODEL 3
REMARK VINA RESULT:      -7.1      2.011      2.968
REMARK  Name = 
REMARK  5 active torsions:
REMARK  status: ('A' for Active; 'I' for Inactive)
REMARK    1  A    between atoms: C_2  and  C_4
REMARK    2  A    between atoms: C_6  and  O_7
REMARK    3  A    between atoms: N_9  and  C_10
REMARK    4  A    between atoms: N_13  and  C_14
REMARK    5  A    between atoms: C_14  and  C_15
REMARK                            x       y       z     vdW  Elec       q    Type
REMARK                         _______ _______ _______ _____ _____    ______ ____
ROOT
ATOM      1  C   UNL     1       4.499   3.947  19.751  0.00  0.00    +0.000 C 
ATOM      2  C   UNL     1       5.652   4.935  19.471  0.00  0.00    +0.000 C 
ATOM      3  C   UNL     1       5.568   5.581  18.089  0.00  0.00    +0.000 C 
ATOM      4  N   UNL     1       5.521   4.610  16.986  0.00  0.00    +0.000 NA
ATOM      5  C   UNL     1       4.545   3.533  17.221  0.00  0.00    +0.000 C 
ATOM      6  C   UNL     1       4.585   2.908  18.615  0.00  0.00    +0.000 C 
ENDROOT
BRANCH   1  11
ATOM      7  C   UNL     1       2.094   3.887  19.065  0.00  0.00    +0.000 C 
ATOM      8  C   UNL     1       0.896   3.622  19.978  0.00  0.00    +0.000 C 
ATOM      9  C   UNL     1       1.514   3.504  21.346  0.00  0.00    +0.000 C 
ATOM     10  C   UNL     1       2.649   4.522  21.295  0.00  0.00    +0.000 C 
ATOM     11  N   UNL     1       3.150   4.583  19.894  0.00  0.00    +0.000 NA
BRANCH   7  13
ATOM     12  N   UNL     1       2.026   6.028  17.846  0.00  0.00    +0.000 N 
ATOM     13  C   UNL     1       1.616   4.729  17.877  0.00  0.00    +0.000 C 
ATOM     14  O   UNL     1       0.828   4.303  17.035  0.00  0.00    +0.000 OA
ATOM     15  H   UNL     1       1.752   6.616  17.071  0.00  0.00    +0.000 HD
ATOM     16  H   UNL     1       2.725   6.339  18.511  0.00  0.00    +0.000 HD
ENDBRANCH   7  13
BRANCH   9  17
ATOM     17  O   UNL     1       2.000   2.185  21.579  0.00  0.00    +0.000 OA
ATOM     18  H   UNL     1       2.970   2.208  21.633  0.00  0.00    +0.000 HD
ENDBRANCH   9  17
ENDBRANCH   1  11
BRANCH   4  19
ATOM     19  C   UNL     1       5.167   5.281  15.712  0.00  0.00    +0.000 C 
BRANCH  19  20
ATOM     20  C   UNL     1       5.908   4.787  14.488  0.00  0.00    +0.000 A 
ATOM     21  C   UNL     1       7.163   5.320  14.153  0.00  0.00    +0.000 A 
ATOM     22  C   UNL     1       7.820   4.921  12.987  0.00  0.00    +0.000 A 
ATOM     23  C   UNL     1       7.227   3.984  12.143  0.00  0.00    +0.000 A 
ATOM     24  C   UNL     1       5.985   3.442  12.474  0.00  0.00    +0.000 A 
ATOM     25 CL   UNL     1       5.253   2.292  11.424  0.00  0.00    +0.000 Cl
ATOM     26  C   UNL     1       5.325   3.834  13.636  0.00  0.00    +0.000 A 
ENDBRANCH  19  20
ENDBRANCH   4  19
TORSDOF 5
ENDMDL
MODEL 4
REMARK VINA RESULT:      -7.1      1.045      1.094
REMARK  Name = 
REMARK  5 active torsions:
REMARK  status: ('A' for Active; 'I' for Inactive)
REMARK    1  A    between atoms: C_2  and  C_4
REMARK    2  A    between atoms: C_6  and  O_7
REMARK    3  A    between atoms: N_9  and  C_10
REMARK    4  A    between atoms: N_13  and  C_14
REMARK    5  A    between atoms: C_14  and  C_15
REMARK                            x       y       z     vdW  Elec       q    Type
REMARK                         _______ _______ _______ _____ _____    ______ ____
ROOT
ATOM      1  C   UNL     1       4.155   5.635  18.777  0.00  0.00    +0.000 C 
ATOM      2  C   UNL     1       4.128   6.174  17.330  0.00  0.00    +0.000 C 
ATOM      3  C   UNL     1       4.792   5.232  16.327  0.00  0.00    +0.000 C 
ATOM      4  N   UNL     1       6.183   4.897  16.663  0.00  0.00    +0.000 NA
ATOM      5  C   UNL     1       6.345   4.505  18.073  0.00  0.00    +0.000 C 
ATOM      6  C   UNL     1       5.648   5.411  19.087  0.00  0.00    +0.000 C 
ENDROOT
BRANCH   1  11
ATOM      7  C   UNL     1       3.608   3.749  20.326  0.00  0.00    +0.000 C 
ATOM      8  C   UNL     1       2.282   3.526  21.054  0.00  0.00    +0.000 C 
ATOM      9  C   UNL     1       1.408   4.642  20.544  0.00  0.00    +0.000 C 
ATOM     10  C   UNL     1       1.850   4.781  19.090  0.00  0.00    +0.000 C 
ATOM     11  N   UNL     1       3.296   4.431  19.013  0.00  0.00    +0.000 NA
BRANCH   7  13
ATOM     12  N   UNL     1       4.071   1.749  18.960  0.00  0.00    +0.000 N 
ATOM     13  C   UNL     1       4.290   2.387  20.144  0.00  0.00    +0.000 C 
ATOM     14  O   UNL     1       4.928   1.839  21.040  0.00  0.00    +0.000 OA
ATOM     15  H   UNL     1       4.516   0.859  18.787  0.00  0.00    +0.000 HD
ATOM     16  H   UNL     1       3.599   2.246  18.214  0.00  0.00    +0.000 HD
ENDBRANCH   7  13
BRANCH   9  17
ATOM     17  O   UNL     1       1.626   5.844  21.278  0.00  0.00    +0.000 OA
ATOM     18  H   UNL     1       2.500   5.803  21.703  0.00  0.00    +0.000 HD
ENDBRANCH   9  17
ENDBRANCH   1  11
BRANCH   4  19
ATOM     19  C   UNL     1       6.673   3.782  15.817  0.00  0.00    +0.000 C 
BRANCH  19  20
ATOM     20  C   UNL     1       6.732   4.070  14.332  0.00  0.00    +0.000 A 
ATOM     21  C   UNL     1       6.033   3.259  13.422  0.00  0.00    +0.000 A 
ATOM     22  C   UNL     1       6.140   3.475  12.047  0.00  0.00    +0.000 A 
ATOM     23  C   UNL     1       6.949   4.502  11.566  0.00  0.00    +0.000 A 
ATOM     24  C   UNL     1       7.638   5.318  12.463  0.00  0.00    +0.000 A 
ATOM     25 CL   UNL     1       8.642   6.581  11.864  0.00  0.00    +0.000 Cl
ATOM     26  C   UNL     1       7.534   5.112  13.836  0.00  0.00    +0.000 A 
ENDBRANCH  19  20
ENDBRANCH   4  19
TORSDOF 5
ENDMDL
MODEL 5
REMARK VINA RESULT:      -7.1      2.005      2.571
REMARK  Name = 
REMARK  5 active torsions:
REMARK  status: ('A' for Active; 'I' for Inactive)
REMARK    1  A    between atoms: C_2  and  C_4
REMARK    2  A    between atoms: C_6  and  O_7
REMARK    3  A    between atoms: N_9  and  C_10
REMARK    4  A    between atoms: N_13  and  C_14
REMARK    5  A    between atoms: C_14  and  C_15
REMARK                            x       y       z     vdW  Elec       q    Type
REMARK                         _______ _______ _______ _____ _____    ______ ____
ROOT
ATOM      1  C   UNL     1       4.331   4.203  19.127  0.00  0.00    +0.000 C 
ATOM      2  C   UNL     1       5.141   5.516  19.053  0.00  0.00    +0.000 C 
ATOM      3  C   UNL     1       5.161   6.131  17.655  0.00  0.00    +0.000 C 
ATOM      4  N   UNL     1       5.670   5.223  16.617  0.00  0.00    +0.000 NA
ATOM      5  C   UNL     1       5.062   3.884  16.690  0.00  0.00    +0.000 C 
ATOM      6  C   UNL     1       4.992   3.274  18.089  0.00  0.00    +0.000 C 
ENDROOT
BRANCH   1  11
ATOM      7  C   UNL     1       2.064   3.267  19.615  0.00  0.00    +0.000 C 
ATOM      8  C   UNL     1       0.967   3.931  20.447  0.00  0.00    +0.000 C 
ATOM      9  C   UNL     1       1.555   5.272  20.801  0.00  0.00    +0.000 C 
ATOM     10  C   UNL     1       2.352   5.632  19.551  0.00  0.00    +0.000 C 
ATOM     11  N   UNL     1       2.854   4.368  18.944  0.00  0.00    +0.000 NA
BRANCH   7  13
ATOM     12  N   UNL     1       2.225   1.651  17.759  0.00  0.00    +0.000 N 
ATOM     13  C   UNL     1       1.397   2.315  18.614  0.00  0.00    +0.000 C 
ATOM     14  O   UNL     1       0.177   2.211  18.509  0.00  0.00    +0.000 OA
ATOM     15  H   UNL     1       1.832   0.998  17.096  0.00  0.00    +0.000 HD
ATOM     16  H   UNL     1       3.226   1.701  17.907  0.00  0.00    +0.000 HD
ENDBRANCH   7  13
BRANCH   9  17
ATOM     17  O   UNL     1       2.392   5.180  21.951  0.00  0.00    +0.000 OA
ATOM     18  H   UNL     1       2.891   6.008  22.047  0.00  0.00    +0.000 HD
ENDBRANCH   9  17
ENDBRANCH   1  11
BRANCH   4  19
ATOM     19  C   UNL     1       5.410   5.774  15.265  0.00  0.00    +0.000 C 
BRANCH  19  20
ATOM     20  C   UNL     1       6.071   5.033  14.123  0.00  0.00    +0.000 A 
ATOM     21  C   UNL     1       7.370   5.375  13.710  0.00  0.00    +0.000 A 
ATOM     22  C   UNL     1       7.958   4.745  12.612  0.00  0.00    +0.000 A 
ATOM     23  C   UNL     1       7.254   3.767  11.912  0.00  0.00    +0.000 A 
ATOM     24  C   UNL     1       5.968   3.415  12.322  0.00  0.00    +0.000 A 
ATOM     25 CL   UNL     1       5.098   2.212  11.451  0.00  0.00    +0.000 Cl
ATOM     26  C   UNL     1       5.375   4.036  13.419  0.00  0.00    +0.000 A 
ENDBRANCH  19  20
ENDBRANCH   4  19
TORSDOF 5
ENDMDL
MODEL 6
REMARK VINA RESULT:      -7.0      1.517      1.803
REMARK  Name = 
REMARK  5 active torsions:
REMARK  status: ('A' for Active; 'I' for Inactive)
REMARK    1  A    between atoms: C_2  and  C_4
REMARK    2  A    between atoms: C_6  and  O_7
REMARK    3  A    between atoms: N_9  and  C_10
REMARK    4  A    between atoms: N_13  and  C_14
REMARK    5  A    between atoms: C_14  and  C_15
REMARK                            x       y       z     vdW  Elec       q    Type
REMARK                         _______ _______ _______ _____ _____    ______ ____
ROOT
ATOM      1  C   UNL     1       3.842   5.970  18.821  0.00  0.00    +0.000 C 
ATOM      2  C   UNL     1       4.202   6.613  17.465  0.00  0.00    +0.000 C 
ATOM      3  C   UNL     1       4.567   5.588  16.392  0.00  0.00    +0.000 C 
ATOM      4  N   UNL     1       5.668   4.693  16.779  0.00  0.00    +0.000 NA
ATOM      5  C   UNL     1       5.492   4.134  18.130  0.00  0.00    +0.000 C 
ATOM      6  C   UNL     1       5.082   5.139  19.206  0.00  0.00    +0.000 C 
ENDROOT
BRANCH   1  11
ATOM      7  C   UNL     1       2.787   3.714  19.057  0.00  0.00    +0.000 C 
ATOM      8  C   UNL     1       1.826   3.272  20.161  0.00  0.00    +0.000 C 
ATOM      9  C   UNL     1       1.625   4.523  20.976  0.00  0.00    +0.000 C 
ATOM     10  C   UNL     1       1.648   5.623  19.920  0.00  0.00    +0.000 C 
ATOM     11  N   UNL     1       2.562   5.191  18.825  0.00  0.00    +0.000 NA
BRANCH   7  13
ATOM     12  N   UNL     1       2.801   1.537  17.900  0.00  0.00    +0.000 N 
ATOM     13  C   UNL     1       2.509   2.865  17.811  0.00  0.00    +0.000 C 
ATOM     14  O   UNL     1       2.131   3.351  16.747  0.00  0.00    +0.000 OA
ATOM     15  H   UNL     1       2.615   0.935  17.111  0.00  0.00    +0.000 HD
ATOM     16  H   UNL     1       3.047   1.148  18.803  0.00  0.00    +0.000 HD
ENDBRANCH   7  13
BRANCH   9  17
ATOM     17  O   UNL     1       2.669   4.688  21.932  0.00  0.00    +0.000 OA
ATOM     18  H   UNL     1       3.457   4.205  21.629  0.00  0.00    +0.000 HD
ENDBRANCH   9  17
ENDBRANCH   1  11
BRANCH   4  19
ATOM     19  C   UNL     1       5.787   3.565  15.825  0.00  0.00    +0.000 C 
BRANCH  19  20
ATOM     20  C   UNL     1       6.251   3.936  14.433  0.00  0.00    +0.000 A 
ATOM     21  C   UNL     1       5.672   3.330  13.306  0.00  0.00    +0.000 A 
ATOM     22  C   UNL     1       6.143   3.614  12.023  0.00  0.00    +0.000 A 
ATOM     23  C   UNL     1       7.201   4.505  11.853  0.00  0.00    +0.000 A 
ATOM     24  C   UNL     1       7.774   5.118  12.966  0.00  0.00    +0.000 A 
ATOM     25 CL   UNL     1       9.085   6.213  12.753  0.00  0.00    +0.000 Cl
ATOM     26  C   UNL     1       7.308   4.843  14.250  0.00  0.00    +0.000 A 
ENDBRANCH  19  20
ENDBRANCH   4  19
TORSDOF 5
ENDMDL
MODEL 7
REMARK VINA RESULT:      -7.0      4.823      6.844
REMARK  Name = 
REMARK  5 active torsions:
REMARK  status: ('A' for Active; 'I' for Inactive)
REMARK    1  A    between atoms: C_2  and  C_4
REMARK    2  A    between atoms: C_6  and  O_7
REMARK    3  A    between atoms: N_9  and  C_10
REMARK    4  A    between atoms: N_13  and  C_14
REMARK    5  A    between atoms: C_14  and  C_15
REMARK                            x       y       z     vdW  Elec       q    Type
REMARK                         _______ _______ _______ _____ _____    ______ ____
ROOT
ATOM      1  C   UNL     1       3.094   5.474  19.966  0.00  0.00    +0.000 C 
ATOM      2  C   UNL     1       2.440   6.671  20.689  0.00  0.00    +0.000 C 
ATOM      3  C   UNL     1       1.643   7.576  19.751  0.00  0.00    +0.000 C 
ATOM      4  N   UNL     1       2.430   8.098  18.624  0.00  0.00    +0.000 NA
ATOM      5  C   UNL     1       3.214   7.050  17.949  0.00  0.00    +0.000 C 
ATOM      6  C   UNL     1       3.980   6.108  18.876  0.00  0.00    +0.000 C 
ENDROOT
BRANCH   1  11
ATOM      7  C   UNL     1       2.767   3.088  19.289  0.00  0.00    +0.000 C 
ATOM      8  C   UNL     1       1.849   2.070  19.966  0.00  0.00    +0.000 C 
ATOM      9  C   UNL     1       1.162   2.873  21.039  0.00  0.00    +0.000 C 
ATOM     10  C   UNL     1       0.987   4.238  20.382  0.00  0.00    +0.000 C 
ATOM     11  N   UNL     1       2.130   4.450  19.450  0.00  0.00    +0.000 NA
BRANCH   7  13
ATOM     12  N   UNL     1       3.986   1.857  17.536  0.00  0.00    +0.000 N 
ATOM     13  C   UNL     1       2.938   2.679  17.821  0.00  0.00    +0.000 C 
ATOM     14  O   UNL     1       2.235   3.131  16.920  0.00  0.00    +0.000 OA
ATOM     15  H   UNL     1       4.127   1.545  16.585  0.00  0.00    +0.000 HD
ATOM     16  H   UNL     1       4.511   1.446  18.299  0.00  0.00    +0.000 HD
ENDBRANCH   7  13
BRANCH   9  17
ATOM     17  O   UNL     1       1.963   2.953  22.215  0.00  0.00    +0.000 OA
ATOM     18  H   UNL     1       1.411   3.253  22.956  0.00  0.00    +0.000 HD
ENDBRANCH   9  17
ENDBRANCH   1  11
BRANCH   4  19
ATOM     19  C   UNL     1       1.547   8.733  17.617  0.00  0.00    +0.000 C 
BRANCH  19  20
ATOM     20  C   UNL     1       0.830   9.984  18.076  0.00  0.00    +0.000 A 
ATOM     21  C   UNL     1       1.551  11.053  18.634  0.00  0.00    +0.000 A 
ATOM     22  C   UNL     1       0.889  12.180  19.125  0.00  0.00    +0.000 A 
ATOM     23  C   UNL     1      -0.501  12.250  19.066  0.00  0.00    +0.000 A 
ATOM     24  C   UNL     1      -1.224  11.198  18.505  0.00  0.00    +0.000 A 
ATOM     25 CL   UNL     1      -2.941  11.285  18.441  0.00  0.00    +0.000 Cl
ATOM     26  C   UNL     1      -0.571  10.071  18.010  0.00  0.00    +0.000 A 
ENDBRANCH  19  20
ENDBRANCH   4  19
TORSDOF 5
ENDMDL
MODEL 8
REMARK VINA RESULT:      -7.0      3.758      6.573
REMARK  Name = 
REMARK  5 active torsions:
REMARK  status: ('A' for Active; 'I' for Inactive)
REMARK    1  A    between atoms: C_2  and  C_4
REMARK    2  A    between atoms: C_6  and  O_7
REMARK    3  A    between atoms: N_9  and  C_10
REMARK    4  A    between atoms: N_13  and  C_14
REMARK    5  A    between atoms: C_14  and  C_15
REMARK                            x       y       z     vdW  Elec       q    Type
REMARK                         _______ _______ _______ _____ _____    ______ ____
ROOT
ATOM      1  C   UNL     1       4.259   3.794  17.658  0.00  0.00    +0.000 C 
ATOM      2  C   UNL     1       2.747   3.991  17.414  0.00  0.00    +0.000 C 
ATOM      3  C   UNL     1       2.134   5.079  18.294  0.00  0.00    +0.000 C 
ATOM      4  N   UNL     1       2.339   4.860  19.734  0.00  0.00    +0.000 NA
ATOM      5  C   UNL     1       3.734   4.519  20.060  0.00  0.00    +0.000 C 
ATOM      6  C   UNL     1       4.377   3.465  19.159  0.00  0.00    +0.000 C 
ENDROOT
BRANCH   1  11
ATOM      7  C   UNL     1       6.586   4.696  17.490  0.00  0.00    +0.000 C 
ATOM      8  C   UNL     1       7.350   5.003  16.201  0.00  0.00    +0.000 C 
ATOM      9  C   UNL     1       6.344   4.716  15.118  0.00  0.00    +0.000 C 
ATOM     10  C   UNL     1       5.030   5.170  15.746  0.00  0.00    +0.000 C 
ATOM     11  N   UNL     1       5.119   4.938  17.215  0.00  0.00    +0.000 NA
BRANCH   7  13
ATOM     12  N   UNL     1       7.720   6.763  18.211  0.00  0.00    +0.000 N 
ATOM     13  C   UNL     1       7.142   5.592  18.602  0.00  0.00    +0.000 C 
ATOM     14  O   UNL     1       7.159   5.252  19.783  0.00  0.00    +0.000 OA
ATOM     15  H   UNL     1       8.082   7.395  18.910  0.00  0.00    +0.000 HD
ATOM     16  H   UNL     1       7.636   7.053  17.244  0.00  0.00    +0.000 HD
ENDBRANCH   7  13
BRANCH   9  17
ATOM     17  O   UNL     1       6.321   3.330  14.790  0.00  0.00    +0.000 OA
ATOM     18  H   UNL     1       5.452   2.962  15.027  0.00  0.00    +0.000 HD
ENDBRANCH   9  17
ENDBRANCH   1  11
BRANCH   4  19
ATOM     19  C   UNL     1       1.967   6.069  20.507  0.00  0.00    +0.000 C 
BRANCH  19  20
ATOM     20  C   UNL     1       1.845   7.344  19.701  0.00  0.00    +0.000 A 
ATOM     21  C   UNL     1       2.534   7.486  18.485  0.00  0.00    +0.000 A 
ATOM     22  C   UNL     1       2.482   8.685  17.772  0.00  0.00    +0.000 A 
ATOM     23  C   UNL     1       1.744   9.757  18.269  0.00  0.00    +0.000 A 
ATOM     24  C   UNL     1       1.049   9.621  19.470  0.00  0.00    +0.000 A 
ATOM     25 CL   UNL     1       0.144  10.950  20.084  0.00  0.00    +0.000 Cl
ATOM     26  C   UNL     1       1.092   8.427  20.186  0.00  0.00    +0.000 A 
ENDBRANCH  19  20
ENDBRANCH   4  19
TORSDOF 5
ENDMDL
MODEL 9
REMARK VINA RESULT:      -7.0      4.655      6.657
REMARK  Name = 
REMARK  5 active torsions:
REMARK  status: ('A' for Active; 'I' for Inactive)
REMARK    1  A    between atoms: C_2  and  C_4
REMARK    2  A    between atoms: C_6  and  O_7
REMARK    3  A    between atoms: N_9  and  C_10
REMARK    4  A    between atoms: N_13  and  C_14
REMARK    5  A    between atoms: C_14  and  C_15
REMARK                            x       y       z     vdW  Elec       q    Type
REMARK                         _______ _______ _______ _____ _____    ______ ____
ROOT
ATOM      1  C   UNL     1       3.111   5.458  19.964  0.00  0.00    +0.000 C 
ATOM      2  C   UNL     1       2.463   6.657  20.690  0.00  0.00    +0.000 C 
ATOM      3  C   UNL     1       1.671   7.569  19.754  0.00  0.00    +0.000 C 
ATOM      4  N   UNL     1       2.461   8.089  18.628  0.00  0.00    +0.000 NA
ATOM      5  C   UNL     1       3.238   7.038  17.950  0.00  0.00    +0.000 C 
ATOM      6  C   UNL     1       4.000   6.089  18.875  0.00  0.00    +0.000 C 
ENDROOT
BRANCH   1  11
ATOM      7  C   UNL     1       2.767   3.075  19.287  0.00  0.00    +0.000 C 
ATOM      8  C   UNL     1       1.840   2.063  19.962  0.00  0.00    +0.000 C 
ATOM      9  C   UNL     1       1.156   2.872  21.033  0.00  0.00    +0.000 C 
ATOM     10  C   UNL     1       0.993   4.238  20.375  0.00  0.00    +0.000 C 
ATOM     11  N   UNL     1       2.140   4.441  19.446  0.00  0.00    +0.000 NA
BRANCH   7  13
ATOM     12  N   UNL     1       3.982   1.833  17.538  0.00  0.00    +0.000 N 
ATOM     13  C   UNL     1       2.939   2.664  17.820  0.00  0.00    +0.000 C 
ATOM     14  O   UNL     1       2.243   3.121  16.916  0.00  0.00    +0.000 OA
ATOM     15  H   UNL     1       4.122   1.519  16.587  0.00  0.00    +0.000 HD
ATOM     16  H   UNL     1       4.500   1.417  18.302  0.00  0.00    +0.000 HD
ENDBRANCH   7  13
BRANCH   9  17
ATOM     17  O   UNL     1       1.955   2.946  22.211  0.00  0.00    +0.000 OA
ATOM     18  H   UNL     1       1.543   2.409  22.908  0.00  0.00    +0.000 HD
ENDBRANCH   9  17
ENDBRANCH   1  11
BRANCH   4  19
ATOM     19  C   UNL     1       1.581   8.732  17.623  0.00  0.00    +0.000 C 
BRANCH  19  20
ATOM     20  C   UNL     1       0.797   9.930  18.115  0.00  0.00    +0.000 A 
ATOM     21  C   UNL     1      -0.603   9.958  18.002  0.00  0.00    +0.000 A 
ATOM     22  C   UNL     1      -1.326  11.089  18.388  0.00  0.00    +0.000 A 
ATOM     23  C   UNL     1      -0.657  12.204  18.890  0.00  0.00    +0.000 A 
ATOM     24  C   UNL     1       0.732  12.179  19.014  0.00  0.00    +0.000 A 
ATOM     25 CL   UNL     1       1.555  13.561  19.627  0.00  0.00    +0.000 Cl
ATOM     26  C   UNL     1       1.461  11.054  18.635  0.00  0.00    +0.000 A 
ENDBRANCH  19  20
ENDBRANCH   4  19
TORSDOF 5
ENDMDL
