MODEL 1
REMARK VINA RESULT:      -7.8      0.000      0.000
REMARK  Name = 
REMARK  8 active torsions:
REMARK  status: ('A' for Active; 'I' for Inactive)
REMARK    1  A    between atoms: C_1  and  C_2
REMARK    2  A    between atoms: C_2  and  C_3
REMARK    3  A    between atoms: C_3  and  C_4
REMARK    4  A    between atoms: C_4  and  C_5
REMARK    5  A    between atoms: C_5  and  O_6
REMARK    6  A    between atoms: O_6  and  C_7
REMARK    7  A    between atoms: C_15  and  C_16
REMARK    8  A    between atoms: C_18  and  C_20
REMARK                            x       y       z     vdW  Elec       q    Type
REMARK                         _______ _______ _______ _____ _____    ______ ____
ROOT
ATOM      1  C   UNL     1       4.746   5.166  18.664  0.00  0.00    +0.000 A 
ATOM      2  N   UNL     1       5.226   3.907  18.804  0.00  0.00    +0.000 NA
ATOM      3  C   UNL     1       4.525   3.118  19.608  0.00  0.00    +0.000 A 
ATOM      4  N   UNL     1       4.935   1.814  19.789  0.00  0.00    +0.000 N 
ATOM      5  N   UNL     1       3.456   3.495  20.287  0.00  0.00    +0.000 NA
ATOM      6  C   UNL     1       3.015   4.734  20.118  0.00  0.00    +0.000 A 
ATOM      7  N   UNL     1       1.952   5.089  20.822  0.00  0.00    +0.000 NA
ATOM      8  C   UNL     1       1.465   6.359  20.676  0.00  0.00    +0.000 A 
ATOM      9  C   UNL     1       2.016   7.315  19.817  0.00  0.00    +0.000 A 
ATOM     10  N   UNL     1       3.096   6.947  19.100  0.00  0.00    +0.000 NA
ATOM     11  C   UNL     1       3.610   5.672  19.269  0.00  0.00    +0.000 A 
ATOM     12  H   UNL     1       5.921   1.697  19.620  0.00  0.00    +0.000 HD
ATOM     13  H   UNL     1       4.564   1.452  20.659  0.00  0.00    +0.000 HD
ENDROOT
BRANCH   9  14
ATOM     14  C   UNL     1       1.471   8.707  19.620  0.00  0.00    +0.000 C 
ATOM     15 BR   UNL     1       1.672   9.380  17.838  0.00  0.00    +0.000 Br
ATOM     16  C   UNL     1       0.892   9.504  20.572  0.00  0.00    +0.000 C 
ATOM     17 BR   UNL     1       0.556   9.042  22.372  0.00  0.00    +0.000 Br
BRANCH  16  18
ATOM     18  C   UNL     1       0.394  10.876  20.272  0.00  0.00    +0.000 A 
ATOM     19  C   UNL     1      -0.923  11.078  19.823  0.00  0.00    +0.000 A 
ATOM     20  C   UNL     1      -1.396  12.364  19.543  0.00  0.00    +0.000 A 
ATOM     21  C   UNL     1      -0.562  13.467  19.719  0.00  0.00    +0.000 A 
ATOM     22  C   UNL     1       0.747  13.284  20.161  0.00  0.00    +0.000 A 
ATOM     23  C   UNL     1       1.226  11.996  20.433  0.00  0.00    +0.000 A 
ENDBRANCH  16  18
ENDBRANCH   9  14
BRANCH   1  24
ATOM     24  O   UNL     1       5.502   6.073  17.935  0.00  0.00    +0.000 OA
BRANCH  24  25
ATOM     25  C   UNL     1       6.908   5.823  17.962  0.00  0.00    +0.000 C 
BRANCH  25  26
ATOM     26  C   UNL     1       7.592   7.069  17.396  0.00  0.00    +0.000 C 
BRANCH  26  27
ATOM     27  C   UNL     1       8.278   7.902  18.477  0.00  0.00    +0.000 C 
BRANCH  27  29
ATOM     28  C   UNL     1       9.212  10.173  19.052  0.00  0.00    +0.000 C 
ATOM     29  C   UNL     1       8.333   9.383  18.094  0.00  0.00    +0.000 C 
ENDBRANCH  27  29
ENDBRANCH  26  27
ENDBRANCH  25  26
ENDBRANCH  24  25
ENDBRANCH   1  24
TORSDOF 7
ENDMDL
MODEL 2
REMARK VINA RESULT:      -7.7      1.520      2.522
REMARK  Name = 
REMARK  8 active torsions:
REMARK  status: ('A' for Active; 'I' for Inactive)
REMARK    1  A    between atoms: C_1  and  C_2
REMARK    2  A    between atoms: C_2  and  C_3
REMARK    3  A    between atoms: C_3  and  C_4
REMARK    4  A    between atoms: C_4  and  C_5
REMARK    5  A    between atoms: C_5  and  O_6
REMARK    6  A    between atoms: O_6  and  C_7
REMARK    7  A    between atoms: C_15  and  C_16
REMARK    8  A    between atoms: C_18  and  C_20
REMARK                            x       y       z     vdW  Elec       q    Type
REMARK                         _______ _______ _______ _____ _____    ______ ____
ROOT
ATOM      1  C   UNL     1       4.872   5.012  18.912  0.00  0.00    +0.000 A 
ATOM      2  N   UNL     1       5.333   3.751  19.090  0.00  0.00    +0.000 NA
ATOM      3  C   UNL     1       4.556   2.960  19.819  0.00  0.00    +0.000 A 
ATOM      4  N   UNL     1       4.944   1.653  20.030  0.00  0.00    +0.000 N 
ATOM      5  N   UNL     1       3.429   3.337  20.396  0.00  0.00    +0.000 NA
ATOM      6  C   UNL     1       3.010   4.579  20.194  0.00  0.00    +0.000 A 
ATOM      7  N   UNL     1       1.886   4.933  20.796  0.00  0.00    +0.000 NA
ATOM      8  C   UNL     1       1.419   6.206  20.612  0.00  0.00    +0.000 A 
ATOM      9  C   UNL     1       2.052   7.165  19.814  0.00  0.00    +0.000 A 
ATOM     10  N   UNL     1       3.194   6.797  19.200  0.00  0.00    +0.000 NA
ATOM     11  C   UNL     1       3.686   5.519  19.410  0.00  0.00    +0.000 A 
ATOM     12  H   UNL     1       5.941   1.534  19.955  0.00  0.00    +0.000 HD
ATOM     13  H   UNL     1       4.490   1.288  20.859  0.00  0.00    +0.000 HD
ENDROOT
BRANCH   9  14
ATOM     14  C   UNL     1       1.532   8.559  19.575  0.00  0.00    +0.000 C 
ATOM     15 BR   UNL     1       1.893   9.237  17.820  0.00  0.00    +0.000 Br
ATOM     16  C   UNL     1       0.874   9.356  20.474  0.00  0.00    +0.000 C 
ATOM     17 BR   UNL     1       0.379   8.890  22.236  0.00  0.00    +0.000 Br
BRANCH  16  18
ATOM     18  C   UNL     1       0.411  10.732  20.137  0.00  0.00    +0.000 A 
ATOM     19  C   UNL     1       1.220  11.848  20.414  0.00  0.00    +0.000 A 
ATOM     20  C   UNL     1       0.790  13.140  20.097  0.00  0.00    +0.000 A 
ATOM     21  C   UNL     1      -0.449  13.334  19.488  0.00  0.00    +0.000 A 
ATOM     22  C   UNL     1      -1.264  12.239  19.210  0.00  0.00    +0.000 A 
ATOM     23  C   UNL     1      -0.840  10.944  19.535  0.00  0.00    +0.000 A 
ENDBRANCH  16  18
ENDBRANCH   9  14
BRANCH   1  24
ATOM     24  O   UNL     1       5.697   5.921  18.264  0.00  0.00    +0.000 OA
BRANCH  24  25
ATOM     25  C   UNL     1       6.890   5.351  17.724  0.00  0.00    +0.000 C 
BRANCH  25  26
ATOM     26  C   UNL     1       6.977   5.803  16.265  0.00  0.00    +0.000 C 
BRANCH  26  27
ATOM     27  C   UNL     1       5.678   5.562  15.499  0.00  0.00    +0.000 C 
BRANCH  27  29
ATOM     28  C   UNL     1       6.161   3.913  13.654  0.00  0.00    +0.000 C 
ATOM     29  C   UNL     1       5.559   4.108  15.037  0.00  0.00    +0.000 C 
ENDBRANCH  27  29
ENDBRANCH  26  27
ENDBRANCH  25  26
ENDBRANCH  24  25
ENDBRANCH   1  24
TORSDOF 7
ENDMDL
MODEL 3
REMARK VINA RESULT:      -7.7      1.861      2.748
REMARK  Name = 
REMARK  8 active torsions:
REMARK  status: ('A' for Active; 'I' for Inactive)
REMARK    1  A    between atoms: C_1  and  C_2
REMARK    2  A    between atoms: C_2  and  C_3
REMARK    3  A    between atoms: C_3  and  C_4
REMARK    4  A    between atoms: C_4  and  C_5
REMARK    5  A    between atoms: C_5  and  O_6
REMARK    6  A    between atoms: O_6  and  C_7
REMARK    7  A    between atoms: C_15  and  C_16
REMARK    8  A    between atoms: C_18  and  C_20
REMARK                            x       y       z     vdW  Elec       q    Type
REMARK                         _______ _______ _______ _____ _____    ______ ____
ROOT
ATOM      1  C   UNL     1       4.791   5.064  18.655  0.00  0.00    +0.000 A 
ATOM      2  N   UNL     1       5.270   3.808  18.819  0.00  0.00    +0.000 NA
ATOM      3  C   UNL     1       4.570   3.034  19.639  0.00  0.00    +0.000 A 
ATOM      4  N   UNL     1       4.981   1.734  19.844  0.00  0.00    +0.000 N 
ATOM      5  N   UNL     1       3.502   3.425  20.312  0.00  0.00    +0.000 NA
ATOM      6  C   UNL     1       3.062   4.661  20.120  0.00  0.00    +0.000 A 
ATOM      7  N   UNL     1       2.000   5.028  20.819  0.00  0.00    +0.000 NA
ATOM      8  C   UNL     1       1.513   6.296  20.650  0.00  0.00    +0.000 A 
ATOM      9  C   UNL     1       2.063   7.236  19.772  0.00  0.00    +0.000 A 
ATOM     10  N   UNL     1       3.142   6.853  19.060  0.00  0.00    +0.000 NA
ATOM     11  C   UNL     1       3.656   5.582  19.252  0.00  0.00    +0.000 A 
ATOM     12  H   UNL     1       5.966   1.614  19.675  0.00  0.00    +0.000 HD
ATOM     13  H   UNL     1       4.611   1.389  20.720  0.00  0.00    +0.000 HD
ENDROOT
BRANCH   9  14
ATOM     14  C   UNL     1       1.518   8.623  19.549  0.00  0.00    +0.000 C 
ATOM     15 BR   UNL     1       1.837   9.316  17.792  0.00  0.00    +0.000 Br
ATOM     16  C   UNL     1       0.863   9.405  20.464  0.00  0.00    +0.000 C 
ATOM     17 BR   UNL     1       0.406   8.921  22.232  0.00  0.00    +0.000 Br
BRANCH  16  18
ATOM     18  C   UNL     1       0.373  10.775  20.143  0.00  0.00    +0.000 A 
ATOM     19  C   UNL     1      -0.910  10.967  19.600  0.00  0.00    +0.000 A 
ATOM     20  C   UNL     1      -1.375  12.251  19.299  0.00  0.00    +0.000 A 
ATOM     21  C   UNL     1      -0.569  13.361  19.547  0.00  0.00    +0.000 A 
ATOM     22  C   UNL     1       0.706  13.187  20.082  0.00  0.00    +0.000 A 
ATOM     23  C   UNL     1       1.178  11.902  20.375  0.00  0.00    +0.000 A 
ENDBRANCH  16  18
ENDBRANCH   9  14
BRANCH   1  24
ATOM     24  O   UNL     1       5.546   5.957  17.909  0.00  0.00    +0.000 OA
BRANCH  24  25
ATOM     25  C   UNL     1       5.213   5.993  16.520  0.00  0.00    +0.000 C 
BRANCH  25  26
ATOM     26  C   UNL     1       6.222   5.098  15.798  0.00  0.00    +0.000 C 
BRANCH  26  27
ATOM     27  C   UNL     1       5.577   4.260  14.696  0.00  0.00    +0.000 C 
BRANCH  27  29
ATOM     28  C   UNL     1       5.844   3.311  12.375  0.00  0.00    +0.000 C 
ATOM     29  C   UNL     1       6.496   4.130  13.479  0.00  0.00    +0.000 C 
ENDBRANCH  27  29
ENDBRANCH  26  27
ENDBRANCH  25  26
ENDBRANCH  24  25
ENDBRANCH   1  24
TORSDOF 7
ENDMDL
MODEL 4
REMARK VINA RESULT:      -7.6      0.398      1.077
REMARK  Name = 
REMARK  8 active torsions:
REMARK  status: ('A' for Active; 'I' for Inactive)
REMARK    1  A    between atoms: C_1  and  C_2
REMARK    2  A    between atoms: C_2  and  C_3
REMARK    3  A    between atoms: C_3  and  C_4
REMARK    4  A    between atoms: C_4  and  C_5
REMARK    5  A    between atoms: C_5  and  O_6
REMARK    6  A    between atoms: O_6  and  C_7
REMARK    7  A    between atoms: C_15  and  C_16
REMARK    8  A    between atoms: C_18  and  C_20
REMARK                            x       y       z     vdW  Elec       q    Type
REMARK                         _______ _______ _______ _____ _____    ______ ____
ROOT
ATOM      1  C   UNL     1       4.768   5.035  18.860  0.00  0.00    +0.000 A 
ATOM      2  N   UNL     1       5.236   3.775  19.029  0.00  0.00    +0.000 NA
ATOM      3  C   UNL     1       4.491   2.990  19.796  0.00  0.00    +0.000 A 
ATOM      4  N   UNL     1       4.888   1.685  20.002  0.00  0.00    +0.000 N 
ATOM      5  N   UNL     1       3.388   3.372  20.416  0.00  0.00    +0.000 NA
ATOM      6  C   UNL     1       2.961   4.612  20.221  0.00  0.00    +0.000 A 
ATOM      7  N   UNL     1       1.862   4.971  20.866  0.00  0.00    +0.000 NA
ATOM      8  C   UNL     1       1.388   6.242  20.691  0.00  0.00    +0.000 A 
ATOM      9  C   UNL     1       1.988   7.195  19.861  0.00  0.00    +0.000 A 
ATOM     10  N   UNL     1       3.103   6.822  19.203  0.00  0.00    +0.000 NA
ATOM     11  C   UNL     1       3.603   5.546  19.403  0.00  0.00    +0.000 A 
ATOM     12  H   UNL     1       5.881   1.566  19.886  0.00  0.00    +0.000 HD
ATOM     13  H   UNL     1       4.469   1.327  20.851  0.00  0.00    +0.000 HD
ENDROOT
BRANCH   9  14
ATOM     14  C   UNL     1       1.457   8.588  19.632  0.00  0.00    +0.000 C 
ATOM     15 BR   UNL     1       1.832   9.290  17.889  0.00  0.00    +0.000 Br
ATOM     16  C   UNL     1       0.782   9.368  20.532  0.00  0.00    +0.000 C 
ATOM     17 BR   UNL     1       0.271   8.876  22.283  0.00  0.00    +0.000 Br
BRANCH  16  18
ATOM     18  C   UNL     1       0.310  10.743  20.206  0.00  0.00    +0.000 A 
ATOM     19  C   UNL     1       1.108  11.862  20.501  0.00  0.00    +0.000 A 
ATOM     20  C   UNL     1       0.670  13.155  20.194  0.00  0.00    +0.000 A 
ATOM     21  C   UNL     1      -0.566  13.345  19.578  0.00  0.00    +0.000 A 
ATOM     22  C   UNL     1      -1.370  12.246  19.282  0.00  0.00    +0.000 A 
ATOM     23  C   UNL     1      -0.938  10.951  19.597  0.00  0.00    +0.000 A 
ENDBRANCH  16  18
ENDBRANCH   9  14
BRANCH   1  24
ATOM     24  O   UNL     1       5.566   5.939  18.171  0.00  0.00    +0.000 OA
BRANCH  24  25
ATOM     25  C   UNL     1       6.342   5.358  17.122  0.00  0.00    +0.000 C 
BRANCH  25  26
ATOM     26  C   UNL     1       7.501   6.317  16.844  0.00  0.00    +0.000 C 
BRANCH  26  27
ATOM     27  C   UNL     1       7.243   7.720  17.390  0.00  0.00    +0.000 C 
BRANCH  27  29
ATOM     28  C   UNL     1       8.564   9.667  18.297  0.00  0.00    +0.000 C 
ATOM     29  C   UNL     1       8.349   8.162  18.350  0.00  0.00    +0.000 C 
ENDBRANCH  27  29
ENDBRANCH  26  27
ENDBRANCH  25  26
ENDBRANCH  24  25
ENDBRANCH   1  24
TORSDOF 7
ENDMDL
MODEL 5
REMARK VINA RESULT:      -7.5      0.945      1.252
REMARK  Name = 
REMARK  8 active torsions:
REMARK  status: ('A' for Active; 'I' for Inactive)
REMARK    1  A    between atoms: C_1  and  C_2
REMARK    2  A    between atoms: C_2  and  C_3
REMARK    3  A    between atoms: C_3  and  C_4
REMARK    4  A    between atoms: C_4  and  C_5
REMARK    5  A    between atoms: C_5  and  O_6
REMARK    6  A    between atoms: O_6  and  C_7
REMARK    7  A    between atoms: C_15  and  C_16
REMARK    8  A    between atoms: C_18  and  C_20
REMARK                            x       y       z     vdW  Elec       q    Type
REMARK                         _______ _______ _______ _____ _____    ______ ____
ROOT
ATOM      1  C   UNL     1       4.338   5.086  18.192  0.00  0.00    +0.000 A 
ATOM      2  N   UNL     1       4.836   3.835  18.337  0.00  0.00    +0.000 NA
ATOM      3  C   UNL     1       4.334   3.138  19.349  0.00  0.00    +0.000 A 
ATOM      4  N   UNL     1       4.774   1.847  19.554  0.00  0.00    +0.000 N 
ATOM      5  N   UNL     1       3.448   3.599  20.214  0.00  0.00    +0.000 NA
ATOM      6  C   UNL     1       2.983   4.827  20.034  0.00  0.00    +0.000 A 
ATOM      7  N   UNL     1       2.107   5.268  20.924  0.00  0.00    +0.000 NA
ATOM      8  C   UNL     1       1.602   6.530  20.773  0.00  0.00    +0.000 A 
ATOM      9  C   UNL     1       1.945   7.392  19.726  0.00  0.00    +0.000 A 
ATOM     10  N   UNL     1       2.833   6.936  18.821  0.00  0.00    +0.000 NA
ATOM     11  C   UNL     1       3.370   5.670  18.988  0.00  0.00    +0.000 A 
ATOM     12  H   UNL     1       5.695   1.693  19.178  0.00  0.00    +0.000 HD
ATOM     13  H   UNL     1       4.609   1.574  20.515  0.00  0.00    +0.000 HD
ENDROOT
BRANCH   9  14
ATOM     14  C   UNL     1       1.370   8.772  19.528  0.00  0.00    +0.000 C 
ATOM     15 BR   UNL     1       1.899   9.611  17.889  0.00  0.00    +0.000 Br
ATOM     16  C   UNL     1       0.559   9.456  20.394  0.00  0.00    +0.000 C 
ATOM     17 BR   UNL     1      -0.117   8.819  22.039  0.00  0.00    +0.000 Br
BRANCH  16  18
ATOM     18  C   UNL     1       0.054  10.828  20.106  0.00  0.00    +0.000 A 
ATOM     19  C   UNL     1      -1.144  11.014  19.395  0.00  0.00    +0.000 A 
ATOM     20  C   UNL     1      -1.623  12.300  19.123  0.00  0.00    +0.000 A 
ATOM     21  C   UNL     1      -0.917  13.416  19.569  0.00  0.00    +0.000 A 
ATOM     22  C   UNL     1       0.274  13.248  20.272  0.00  0.00    +0.000 A 
ATOM     23  C   UNL     1       0.761  11.962  20.537  0.00  0.00    +0.000 A 
ENDBRANCH  16  18
ENDBRANCH   9  14
BRANCH   1  24
ATOM     24  O   UNL     1       4.910   5.906  17.229  0.00  0.00    +0.000 OA
BRANCH  24  25
ATOM     25  C   UNL     1       5.749   5.223  16.297  0.00  0.00    +0.000 C 
BRANCH  25  26
ATOM     26  C   UNL     1       7.194   5.563  16.666  0.00  0.00    +0.000 C 
BRANCH  26  27
ATOM     27  C   UNL     1       7.349   7.002  17.155  0.00  0.00    +0.000 C 
BRANCH  27  29
ATOM     28  C   UNL     1       7.888   5.750  19.277  0.00  0.00    +0.000 C 
ATOM     29  C   UNL     1       8.041   7.061  18.519  0.00  0.00    +0.000 C 
ENDBRANCH  27  29
ENDBRANCH  26  27
ENDBRANCH  25  26
ENDBRANCH  24  25
ENDBRANCH   1  24
TORSDOF 7
ENDMDL
MODEL 6
REMARK VINA RESULT:      -7.4      1.594      2.838
REMARK  Name = 
REMARK  8 active torsions:
REMARK  status: ('A' for Active; 'I' for Inactive)
REMARK    1  A    between atoms: C_1  and  C_2
REMARK    2  A    between atoms: C_2  and  C_3
REMARK    3  A    between atoms: C_3  and  C_4
REMARK    4  A    between atoms: C_4  and  C_5
REMARK    5  A    between atoms: C_5  and  O_6
REMARK    6  A    between atoms: O_6  and  C_7
REMARK    7  A    between atoms: C_15  and  C_16
REMARK    8  A    between atoms: C_18  and  C_20
REMARK                            x       y       z     vdW  Elec       q    Type
REMARK                         _______ _______ _______ _____ _____    ______ ____
ROOT
ATOM      1  C   UNL     1       4.836   5.024  19.234  0.00  0.00    +0.000 A 
ATOM      2  N   UNL     1       5.318   3.759  19.200  0.00  0.00    +0.000 NA
ATOM      3  C   UNL     1       4.514   2.831  19.703  0.00  0.00    +0.000 A 
ATOM      4  N   UNL     1       4.923   1.514  19.687  0.00  0.00    +0.000 N 
ATOM      5  N   UNL     1       3.339   3.073  20.256  0.00  0.00    +0.000 NA
ATOM      6  C   UNL     1       2.901   4.325  20.266  0.00  0.00    +0.000 A 
ATOM      7  N   UNL     1       1.728   4.540  20.839  0.00  0.00    +0.000 NA
ATOM      8  C   UNL     1       1.239   5.817  20.869  0.00  0.00    +0.000 A 
ATOM      9  C   UNL     1       1.900   6.922  20.321  0.00  0.00    +0.000 A 
ATOM     10  N   UNL     1       3.093   6.696  19.735  0.00  0.00    +0.000 NA
ATOM     11  C   UNL     1       3.604   5.408  19.731  0.00  0.00    +0.000 A 
ATOM     12  H   UNL     1       5.926   1.425  19.664  0.00  0.00    +0.000 HD
ATOM     13  H   UNL     1       4.422   0.988  20.393  0.00  0.00    +0.000 HD
ENDROOT
BRANCH   9  14
ATOM     14  C   UNL     1       1.359   8.329  20.317  0.00  0.00    +0.000 C 
ATOM     15 BR   UNL     1       0.689   8.913  22.014  0.00  0.00    +0.000 Br
ATOM     16  C   UNL     1       1.287   9.178  19.245  0.00  0.00    +0.000 C 
ATOM     17 BR   UNL     1       1.915   8.835  17.497  0.00  0.00    +0.000 Br
BRANCH  16  18
ATOM     18  C   UNL     1       0.719  10.552  19.347  0.00  0.00    +0.000 A 
ATOM     19  C   UNL     1       1.552  11.652  19.616  0.00  0.00    +0.000 A 
ATOM     20  C   UNL     1       1.024  12.944  19.711  0.00  0.00    +0.000 A 
ATOM     21  C   UNL     1      -0.341  13.155  19.527  0.00  0.00    +0.000 A 
ATOM     22  C   UNL     1      -1.181  12.074  19.263  0.00  0.00    +0.000 A 
ATOM     23  C   UNL     1      -0.656  10.778  19.177  0.00  0.00    +0.000 A 
ENDBRANCH  16  18
ENDBRANCH   9  14
BRANCH   1  24
ATOM     24  O   UNL     1       5.679   6.053  18.837  0.00  0.00    +0.000 OA
BRANCH  24  25
ATOM     25  C   UNL     1       6.333   5.829  17.587  0.00  0.00    +0.000 C 
BRANCH  25  26
ATOM     26  C   UNL     1       5.501   6.538  16.517  0.00  0.00    +0.000 C 
BRANCH  26  27
ATOM     27  C   UNL     1       5.276   5.672  15.280  0.00  0.00    +0.000 C 
BRANCH  27  29
ATOM     28  C   UNL     1       6.266   3.930  13.749  0.00  0.00    +0.000 C 
ATOM     29  C   UNL     1       6.484   4.778  14.993  0.00  0.00    +0.000 C 
ENDBRANCH  27  29
ENDBRANCH  26  27
ENDBRANCH  25  26
ENDBRANCH  24  25
ENDBRANCH   1  24
TORSDOF 7
ENDMDL
MODEL 7
REMARK VINA RESULT:      -7.3      1.572      2.747
REMARK  Name = 
REMARK  8 active torsions:
REMARK  status: ('A' for Active; 'I' for Inactive)
REMARK    1  A    between atoms: C_1  and  C_2
REMARK    2  A    between atoms: C_2  and  C_3
REMARK    3  A    between atoms: C_3  and  C_4
REMARK    4  A    between atoms: C_4  and  C_5
REMARK    5  A    between atoms: C_5  and  O_6
REMARK    6  A    between atoms: O_6  and  C_7
REMARK    7  A    between atoms: C_15  and  C_16
REMARK    8  A    between atoms: C_18  and  C_20
REMARK                            x       y       z     vdW  Elec       q    Type
REMARK                         _______ _______ _______ _____ _____    ______ ____
ROOT
ATOM      1  C   UNL     1       4.827   4.994  19.173  0.00  0.00    +0.000 A 
ATOM      2  N   UNL     1       5.328   3.735  19.172  0.00  0.00    +0.000 NA
ATOM      3  C   UNL     1       4.558   2.817  19.743  0.00  0.00    +0.000 A 
ATOM      4  N   UNL     1       4.986   1.507  19.766  0.00  0.00    +0.000 N 
ATOM      5  N   UNL     1       3.400   3.066  20.329  0.00  0.00    +0.000 NA
ATOM      6  C   UNL     1       2.943   4.310  20.304  0.00  0.00    +0.000 A 
ATOM      7  N   UNL     1       1.788   4.532  20.912  0.00  0.00    +0.000 NA
ATOM      8  C   UNL     1       1.281   5.803  20.908  0.00  0.00    +0.000 A 
ATOM      9  C   UNL     1       1.904   6.893  20.290  0.00  0.00    +0.000 A 
ATOM     10  N   UNL     1       3.077   6.660  19.669  0.00  0.00    +0.000 NA
ATOM     11  C   UNL     1       3.608   5.381  19.699  0.00  0.00    +0.000 A 
ATOM     12  H   UNL     1       5.989   1.432  19.709  0.00  0.00    +0.000 HD
ATOM     13  H   UNL     1       4.521   1.004  20.512  0.00  0.00    +0.000 HD
ENDROOT
BRANCH   9  14
ATOM     14  C   UNL     1       1.341   8.291  20.248  0.00  0.00    +0.000 C 
ATOM     15 BR   UNL     1       0.516   8.850  21.884  0.00  0.00    +0.000 Br
ATOM     16  C   UNL     1       1.347   9.147  19.179  0.00  0.00    +0.000 C 
ATOM     17 BR   UNL     1       2.130   8.829  17.490  0.00  0.00    +0.000 Br
BRANCH  16  18
ATOM     18  C   UNL     1       0.748  10.510  19.241  0.00  0.00    +0.000 A 
ATOM     19  C   UNL     1      -0.586  10.724  18.853  0.00  0.00    +0.000 A 
ATOM     20  C   UNL     1      -1.153  12.002  18.912  0.00  0.00    +0.000 A 
ATOM     21  C   UNL     1      -0.397  13.080  19.369  0.00  0.00    +0.000 A 
ATOM     22  C   UNL     1       0.928  12.885  19.754  0.00  0.00    +0.000 A 
ATOM     23  C   UNL     1       1.501  11.608  19.688  0.00  0.00    +0.000 A 
ENDBRANCH  16  18
ENDBRANCH   9  14
BRANCH   1  24
ATOM     24  O   UNL     1       5.638   6.017  18.702  0.00  0.00    +0.000 OA
BRANCH  24  25
ATOM     25  C   UNL     1       6.836   5.572  18.063  0.00  0.00    +0.000 C 
BRANCH  25  26
ATOM     26  C   UNL     1       6.631   5.758  16.558  0.00  0.00    +0.000 C 
BRANCH  26  27
ATOM     27  C   UNL     1       7.024   4.519  15.756  0.00  0.00    +0.000 C 
BRANCH  27  29
ATOM     28  C   UNL     1       6.264   3.910  13.430  0.00  0.00    +0.000 C 
ATOM     29  C   UNL     1       5.863   4.017  14.893  0.00  0.00    +0.000 C 
ENDBRANCH  27  29
ENDBRANCH  26  27
ENDBRANCH  25  26
ENDBRANCH  24  25
ENDBRANCH   1  24
TORSDOF 7
ENDMDL
MODEL 8
REMARK VINA RESULT:      -7.3      1.458      2.216
REMARK  Name = 
REMARK  8 active torsions:
REMARK  status: ('A' for Active; 'I' for Inactive)
REMARK    1  A    between atoms: C_1  and  C_2
REMARK    2  A    between atoms: C_2  and  C_3
REMARK    3  A    between atoms: C_3  and  C_4
REMARK    4  A    between atoms: C_4  and  C_5
REMARK    5  A    between atoms: C_5  and  O_6
REMARK    6  A    between atoms: O_6  and  C_7
REMARK    7  A    between atoms: C_15  and  C_16
REMARK    8  A    between atoms: C_18  and  C_20
REMARK                            x       y       z     vdW  Elec       q    Type
REMARK                         _______ _______ _______ _____ _____    ______ ____
ROOT
ATOM      1  C   UNL     1       5.005   5.053  19.136  0.00  0.00    +0.000 A 
ATOM      2  N   UNL     1       5.462   3.787  19.285  0.00  0.00    +0.000 NA
ATOM      3  C   UNL     1       4.610   2.937  19.845  0.00  0.00    +0.000 A 
ATOM      4  N   UNL     1       4.991   1.623  20.014  0.00  0.00    +0.000 N 
ATOM      5  N   UNL     1       3.409   3.262  20.290  0.00  0.00    +0.000 NA
ATOM      6  C   UNL     1       2.997   4.511  20.121  0.00  0.00    +0.000 A 
ATOM      7  N   UNL     1       1.796   4.810  20.590  0.00  0.00    +0.000 NA
ATOM      8  C   UNL     1       1.334   6.088  20.435  0.00  0.00    +0.000 A 
ATOM      9  C   UNL     1       2.050   7.109  19.800  0.00  0.00    +0.000 A 
ATOM     10  N   UNL     1       3.270   6.796  19.321  0.00  0.00    +0.000 NA
ATOM     11  C   UNL     1       3.754   5.511  19.504  0.00  0.00    +0.000 A 
ATOM     12  H   UNL     1       5.991   1.519  20.065  0.00  0.00    +0.000 HD
ATOM     13  H   UNL     1       4.437   1.194  20.745  0.00  0.00    +0.000 HD
ENDROOT
BRANCH   9  14
ATOM     14  C   UNL     1       1.540   8.512  19.592  0.00  0.00    +0.000 C 
ATOM     15 BR   UNL     1       1.951   9.246  17.871  0.00  0.00    +0.000 Br
ATOM     16  C   UNL     1       0.859   9.281  20.498  0.00  0.00    +0.000 C 
ATOM     17 BR   UNL     1       0.313   8.759  22.229  0.00  0.00    +0.000 Br
BRANCH  16  18
ATOM     18  C   UNL     1       0.408  10.668  20.193  0.00  0.00    +0.000 A 
ATOM     19  C   UNL     1      -0.806  10.895  19.522  0.00  0.00    +0.000 A 
ATOM     20  C   UNL     1      -1.234  12.195  19.235  0.00  0.00    +0.000 A 
ATOM     21  C   UNL     1      -0.460  13.287  19.626  0.00  0.00    +0.000 A 
ATOM     22  C   UNL     1       0.748  13.079  20.289  0.00  0.00    +0.000 A 
ATOM     23  C   UNL     1       1.184  11.777  20.568  0.00  0.00    +0.000 A 
ENDBRANCH  16  18
ENDBRANCH   9  14
BRANCH   1  24
ATOM     24  O   UNL     1       5.892   6.014  18.671  0.00  0.00    +0.000 OA
BRANCH  24  25
ATOM     25  C   UNL     1       7.074   5.483  18.070  0.00  0.00    +0.000 C 
BRANCH  25  26
ATOM     26  C   UNL     1       7.009   5.827  16.581  0.00  0.00    +0.000 C 
BRANCH  26  27
ATOM     27  C   UNL     1       7.287   4.620  15.688  0.00  0.00    +0.000 C 
BRANCH  27  29
ATOM     28  C   UNL     1       4.772   4.572  15.511  0.00  0.00    +0.000 C 
ATOM     29  C   UNL     1       6.045   3.739  15.531  0.00  0.00    +0.000 C 
ENDBRANCH  27  29
ENDBRANCH  26  27
ENDBRANCH  25  26
ENDBRANCH  24  25
ENDBRANCH   1  24
TORSDOF 7
ENDMDL
MODEL 9
REMARK VINA RESULT:      -7.2      2.961      5.041
REMARK  Name = 
REMARK  8 active torsions:
REMARK  status: ('A' for Active; 'I' for Inactive)
REMARK    1  A    between atoms: C_1  and  C_2
REMARK    2  A    between atoms: C_2  and  C_3
REMARK    3  A    between atoms: C_3  and  C_4
REMARK    4  A    between atoms: C_4  and  C_5
REMARK    5  A    between atoms: C_5  and  O_6
REMARK    6  A    between atoms: O_6  and  C_7
REMARK    7  A    between atoms: C_15  and  C_16
REMARK    8  A    between atoms: C_18  and  C_20
REMARK                            x       y       z     vdW  Elec       q    Type
REMARK                         _______ _______ _______ _____ _____    ______ ____
ROOT
ATOM      1  C   UNL     1       2.588   6.335  19.640  0.00  0.00    +0.000 A 
ATOM      2  N   UNL     1       3.379   5.597  18.825  0.00  0.00    +0.000 NA
ATOM      3  C   UNL     1       3.741   6.190  17.694  0.00  0.00    +0.000 A 
ATOM      4  N   UNL     1       4.564   5.514  16.818  0.00  0.00    +0.000 N 
ATOM      5  N   UNL     1       3.346   7.394  17.317  0.00  0.00    +0.000 NA
ATOM      6  C   UNL     1       2.576   8.085  18.145  0.00  0.00    +0.000 A 
ATOM      7  N   UNL     1       2.184   9.281  17.735  0.00  0.00    +0.000 NA
ATOM      8  C   UNL     1       1.389  10.027  18.560  0.00  0.00    +0.000 A 
ATOM      9  C   UNL     1       0.964   9.610  19.827  0.00  0.00    +0.000 A 
ATOM     10  N   UNL     1       1.370   8.394  20.241  0.00  0.00    +0.000 NA
ATOM     11  C   UNL     1       2.150   7.623  19.394  0.00  0.00    +0.000 A 
ATOM     12  H   UNL     1       4.492   4.515  16.921  0.00  0.00    +0.000 HD
ATOM     13  H   UNL     1       4.465   5.897  15.886  0.00  0.00    +0.000 HD
ENDROOT
BRANCH   9  14
ATOM     14  C   UNL     1       0.117  10.435  20.761  0.00  0.00    +0.000 C 
ATOM     15 BR   UNL     1      -0.274   9.574  22.427  0.00  0.00    +0.000 Br
ATOM     16  C   UNL     1      -0.396  11.682  20.520  0.00  0.00    +0.000 C 
ATOM     17 BR   UNL     1      -0.114  12.733  18.976  0.00  0.00    +0.000 Br
BRANCH  16  18
ATOM     18  C   UNL     1      -1.237  12.409  21.513  0.00  0.00    +0.000 A 
ATOM     19  C   UNL     1      -2.640  12.337  21.451  0.00  0.00    +0.000 A 
ATOM     20  C   UNL     1      -3.433  13.015  22.382  0.00  0.00    +0.000 A 
ATOM     21  C   UNL     1      -2.836  13.764  23.394  0.00  0.00    +0.000 A 
ATOM     22  C   UNL     1      -1.446  13.848  23.467  0.00  0.00    +0.000 A 
ATOM     23  C   UNL     1      -0.649  13.178  22.530  0.00  0.00    +0.000 A 
ENDBRANCH  16  18
ENDBRANCH   9  14
BRANCH   1  24
ATOM     24  O   UNL     1       2.076   5.725  20.777  0.00  0.00    +0.000 OA
BRANCH  24  25
ATOM     25  C   UNL     1       2.394   4.337  20.894  0.00  0.00    +0.000 C 
BRANCH  25  26
ATOM     26  C   UNL     1       1.078   3.568  20.762  0.00  0.00    +0.000 C 
BRANCH  26  27
ATOM     27  C   UNL     1       0.906   2.935  19.383  0.00  0.00    +0.000 C 
BRANCH  27  29
ATOM     28  C   UNL     1       2.591   2.267  17.630  0.00  0.00    +0.000 C 
ATOM     29  C   UNL     1       2.076   2.011  19.038  0.00  0.00    +0.000 C 
ENDBRANCH  27  29
ENDBRANCH  26  27
ENDBRANCH  25  26
ENDBRANCH  24  25
ENDBRANCH   1  24
TORSDOF 7
ENDMDL
