MODEL 1
REMARK VINA RESULT:      -6.1      0.000      0.000
REMARK  Name = 
REMARK  8 active torsions:
REMARK  status: ('A' for Active; 'I' for Inactive)
REMARK    1  A    between atoms: C_1  and  C_2
REMARK    2  A    between atoms: C_4  and  C_5
REMARK    3  A    between atoms: N_7  and  C_8
REMARK    4  A    between atoms: C_8  and  C_9
REMARK    5  A    between atoms: C_8  and  C_10
REMARK    6  A    between atoms: C_10  and  C_11
REMARK    7  A    between atoms: C_10  and  C_12
REMARK    8  A    between atoms: C_10  and  C_13
REMARK                            x       y       z     vdW  Elec       q    Type
REMARK                         _______ _______ _______ _____ _____    ______ ____
ROOT
ATOM      1  C   UNL     1       7.988   7.734  17.536  0.00  0.00    +0.000 C 
ATOM      2  C   UNL     1       7.101   6.545  17.575  0.00  0.00    +0.000 A 
ATOM      3  N   UNL     1       6.481   6.075  18.644  0.00  0.00    +0.000 NA
ATOM      4  C   UNL     1       5.776   4.950  18.223  0.00  0.00    +0.000 A 
ATOM      5  C   UNL     1       6.008   4.735  16.875  0.00  0.00    +0.000 A 
ATOM      6  N   UNL     1       6.821   5.770  16.480  0.00  0.00    +0.000 N 
ATOM      7  C   UNL     1       7.339   5.934  15.133  0.00  0.00    +0.000 C 
ATOM      8  C   UNL     1       6.583   5.089  14.107  0.00  0.00    +0.000 C 
ATOM      9  C   UNL     1       6.361   3.673  14.638  0.00  0.00    +0.000 C 
ATOM     10  C   UNL     1       5.526   3.696  15.921  0.00  0.00    +0.000 C 
ENDROOT
BRANCH   4  11
ATOM     11  C   UNL     1       4.928   4.161  19.131  0.00  0.00    +0.000 C 
ATOM     12  O   UNL     1       5.323   3.171  19.743  0.00  0.00    +0.000 OA
ATOM     13  N   UNL     1       3.643   4.653  19.216  0.00  0.00    +0.000 N 
ATOM     14  H   UNL     1       3.516   5.551  18.757  0.00  0.00    +0.000 HD
BRANCH  13  15
ATOM     15  C   UNL     1       2.610   4.115  20.099  0.00  0.00    +0.000 C 
ATOM     16  C   UNL     1       1.961   5.269  20.873  0.00  0.00    +0.000 C 
BRANCH  15  17
ATOM     17  C   UNL     1       1.585   3.217  19.314  0.00  0.00    +0.000 C 
ATOM     18  C   UNL     1       1.322   3.822  17.916  0.00  0.00    +0.000 C 
ATOM     19  C   UNL     1       2.139   1.792  19.094  0.00  0.00    +0.000 C 
ATOM     20  C   UNL     1       0.238   3.096  20.053  0.00  0.00    +0.000 C 
ENDBRANCH  15  17
ENDBRANCH  13  15
ENDBRANCH   4  11
TORSDOF 3
ENDMDL
MODEL 2
REMARK VINA RESULT:      -5.9      4.307      6.090
REMARK  Name = 
REMARK  8 active torsions:
REMARK  status: ('A' for Active; 'I' for Inactive)
REMARK    1  A    between atoms: C_1  and  C_2
REMARK    2  A    between atoms: C_4  and  C_5
REMARK    3  A    between atoms: N_7  and  C_8
REMARK    4  A    between atoms: C_8  and  C_9
REMARK    5  A    between atoms: C_8  and  C_10
REMARK    6  A    between atoms: C_10  and  C_11
REMARK    7  A    between atoms: C_10  and  C_12
REMARK    8  A    between atoms: C_10  and  C_13
REMARK                            x       y       z     vdW  Elec       q    Type
REMARK                         _______ _______ _______ _____ _____    ______ ____
ROOT
ATOM      1  C   UNL     1       2.306   4.288  21.156  0.00  0.00    +0.000 C 
ATOM      2  C   UNL     1       2.580   5.323  20.128  0.00  0.00    +0.000 A 
ATOM      3  N   UNL     1       1.925   6.460  19.978  0.00  0.00    +0.000 NA
ATOM      4  C   UNL     1       2.509   7.108  18.892  0.00  0.00    +0.000 A 
ATOM      5  C   UNL     1       3.519   6.317  18.370  0.00  0.00    +0.000 A 
ATOM      6  N   UNL     1       3.567   5.211  19.183  0.00  0.00    +0.000 N 
ATOM      7  C   UNL     1       4.475   4.093  18.991  0.00  0.00    +0.000 C 
ATOM      8  C   UNL     1       5.635   4.436  18.055  0.00  0.00    +0.000 C 
ATOM      9  C   UNL     1       5.127   5.186  16.824  0.00  0.00    +0.000 C 
ATOM     10  C   UNL     1       4.455   6.502  17.225  0.00  0.00    +0.000 C 
ENDROOT
BRANCH   4  11
ATOM     11  C   UNL     1       2.069   8.434  18.429  0.00  0.00    +0.000 C 
ATOM     12  O   UNL     1       2.391   8.918  17.347  0.00  0.00    +0.000 OA
ATOM     13  N   UNL     1       1.259   9.071  19.345  0.00  0.00    +0.000 N 
ATOM     14  H   UNL     1       0.979   8.483  20.125  0.00  0.00    +0.000 HD
BRANCH  13  15
ATOM     15  C   UNL     1       0.616  10.364  19.118  0.00  0.00    +0.000 C 
ATOM     16  C   UNL     1      -0.683  10.147  18.332  0.00  0.00    +0.000 C 
BRANCH  15  17
ATOM     17  C   UNL     1       0.424  11.160  20.461  0.00  0.00    +0.000 C 
ATOM     18  C   UNL     1      -1.030  11.672  20.563  0.00  0.00    +0.000 C 
ATOM     19  C   UNL     1       0.676  10.259  21.689  0.00  0.00    +0.000 C 
ATOM     20  C   UNL     1       1.374  12.370  20.555  0.00  0.00    +0.000 C 
ENDBRANCH  15  17
ENDBRANCH  13  15
ENDBRANCH   4  11
TORSDOF 3
ENDMDL
MODEL 3
REMARK VINA RESULT:      -5.9      4.314      6.075
REMARK  Name = 
REMARK  8 active torsions:
REMARK  status: ('A' for Active; 'I' for Inactive)
REMARK    1  A    between atoms: C_1  and  C_2
REMARK    2  A    between atoms: C_4  and  C_5
REMARK    3  A    between atoms: N_7  and  C_8
REMARK    4  A    between atoms: C_8  and  C_9
REMARK    5  A    between atoms: C_8  and  C_10
REMARK    6  A    between atoms: C_10  and  C_11
REMARK    7  A    between atoms: C_10  and  C_12
REMARK    8  A    between atoms: C_10  and  C_13
REMARK                            x       y       z     vdW  Elec       q    Type
REMARK                         _______ _______ _______ _____ _____    ______ ____
ROOT
ATOM      1  C   UNL     1       2.327   4.287  21.079  0.00  0.00    +0.000 C 
ATOM      2  C   UNL     1       2.604   5.327  20.058  0.00  0.00    +0.000 A 
ATOM      3  N   UNL     1       1.949   6.466  19.913  0.00  0.00    +0.000 NA
ATOM      4  C   UNL     1       2.535   7.119  18.831  0.00  0.00    +0.000 A 
ATOM      5  C   UNL     1       3.545   6.331  18.306  0.00  0.00    +0.000 A 
ATOM      6  N   UNL     1       3.591   5.220  19.113  0.00  0.00    +0.000 N 
ATOM      7  C   UNL     1       4.499   4.103  18.916  0.00  0.00    +0.000 C 
ATOM      8  C   UNL     1       5.660   4.450  17.983  0.00  0.00    +0.000 C 
ATOM      9  C   UNL     1       5.154   5.207  16.755  0.00  0.00    +0.000 C 
ATOM     10  C   UNL     1       4.483   6.521  17.163  0.00  0.00    +0.000 C 
ENDROOT
BRANCH   4  11
ATOM     11  C   UNL     1       2.096   8.448  18.375  0.00  0.00    +0.000 C 
ATOM     12  O   UNL     1       2.432   8.944  17.303  0.00  0.00    +0.000 OA
ATOM     13  N   UNL     1       1.271   9.073  19.285  0.00  0.00    +0.000 N 
ATOM     14  H   UNL     1       0.982   8.476  20.056  0.00  0.00    +0.000 HD
BRANCH  13  15
ATOM     15  C   UNL     1       0.626  10.366  19.063  0.00  0.00    +0.000 C 
ATOM     16  C   UNL     1      -0.642  10.156  18.225  0.00  0.00    +0.000 C 
BRANCH  15  17
ATOM     17  C   UNL     1       0.380  11.132  20.413  0.00  0.00    +0.000 C 
ATOM     18  C   UNL     1       1.345  12.334  20.517  0.00  0.00    +0.000 C 
ATOM     19  C   UNL     1      -1.057  11.696  20.486  0.00  0.00    +0.000 C 
ATOM     20  C   UNL     1       0.598  10.225  21.640  0.00  0.00    +0.000 C 
ENDBRANCH  15  17
ENDBRANCH  13  15
ENDBRANCH   4  11
TORSDOF 3
ENDMDL
MODEL 4
REMARK VINA RESULT:      -5.9      4.721      7.106
REMARK  Name = 
REMARK  8 active torsions:
REMARK  status: ('A' for Active; 'I' for Inactive)
REMARK    1  A    between atoms: C_1  and  C_2
REMARK    2  A    between atoms: C_4  and  C_5
REMARK    3  A    between atoms: N_7  and  C_8
REMARK    4  A    between atoms: C_8  and  C_9
REMARK    5  A    between atoms: C_8  and  C_10
REMARK    6  A    between atoms: C_10  and  C_11
REMARK    7  A    between atoms: C_10  and  C_12
REMARK    8  A    between atoms: C_10  and  C_13
REMARK                            x       y       z     vdW  Elec       q    Type
REMARK                         _______ _______ _______ _____ _____    ______ ____
ROOT
ATOM      1  C   UNL     1      -0.029   9.491  23.231  0.00  0.00    +0.000 C 
ATOM      2  C   UNL     1       0.514   9.427  21.852  0.00  0.00    +0.000 A 
ATOM      3  N   UNL     1       1.076   8.373  21.287  0.00  0.00    +0.000 NA
ATOM      4  C   UNL     1       1.446   8.767  20.004  0.00  0.00    +0.000 A 
ATOM      5  C   UNL     1       1.118  10.099  19.816  0.00  0.00    +0.000 A 
ATOM      6  N   UNL     1       0.504  10.487  20.982  0.00  0.00    +0.000 N 
ATOM      7  C   UNL     1       0.010  11.828  21.240  0.00  0.00    +0.000 C 
ATOM      8  C   UNL     1      -0.128  12.657  19.962  0.00  0.00    +0.000 C 
ATOM      9  C   UNL     1       1.107  12.489  19.078  0.00  0.00    +0.000 C 
ATOM     10  C   UNL     1       1.285  11.027  18.661  0.00  0.00    +0.000 C 
ENDROOT
BRANCH   4  11
ATOM     11  C   UNL     1       2.083   7.850  19.045  0.00  0.00    +0.000 C 
ATOM     12  O   UNL     1       2.313   8.142  17.874  0.00  0.00    +0.000 OA
ATOM     13  N   UNL     1       2.388   6.627  19.605  0.00  0.00    +0.000 N 
ATOM     14  H   UNL     1       2.258   6.594  20.613  0.00  0.00    +0.000 HD
BRANCH  13  15
ATOM     15  C   UNL     1       3.093   5.553  18.909  0.00  0.00    +0.000 C 
ATOM     16  C   UNL     1       4.505   5.420  19.492  0.00  0.00    +0.000 C 
BRANCH  15  17
ATOM     17  C   UNL     1       2.267   4.214  18.921  0.00  0.00    +0.000 C 
ATOM     18  C   UNL     1       1.336   4.185  20.154  0.00  0.00    +0.000 C 
ATOM     19  C   UNL     1       1.369   4.097  17.671  0.00  0.00    +0.000 C 
ATOM     20  C   UNL     1       3.180   2.974  18.971  0.00  0.00    +0.000 C 
ENDBRANCH  15  17
ENDBRANCH  13  15
ENDBRANCH   4  11
TORSDOF 3
ENDMDL
MODEL 5
REMARK VINA RESULT:      -5.9      4.556      6.867
REMARK  Name = 
REMARK  8 active torsions:
REMARK  status: ('A' for Active; 'I' for Inactive)
REMARK    1  A    between atoms: C_1  and  C_2
REMARK    2  A    between atoms: C_4  and  C_5
REMARK    3  A    between atoms: N_7  and  C_8
REMARK    4  A    between atoms: C_8  and  C_9
REMARK    5  A    between atoms: C_8  and  C_10
REMARK    6  A    between atoms: C_10  and  C_11
REMARK    7  A    between atoms: C_10  and  C_12
REMARK    8  A    between atoms: C_10  and  C_13
REMARK                            x       y       z     vdW  Elec       q    Type
REMARK                         _______ _______ _______ _____ _____    ______ ____
ROOT
ATOM      1  C   UNL     1       0.085   9.467  23.226  0.00  0.00    +0.000 C 
ATOM      2  C   UNL     1       0.623   9.326  21.850  0.00  0.00    +0.000 A 
ATOM      3  N   UNL     1       1.152   8.231  21.333  0.00  0.00    +0.000 NA
ATOM      4  C   UNL     1       1.530   8.557  20.033  0.00  0.00    +0.000 A 
ATOM      5  C   UNL     1       1.242   9.889  19.786  0.00  0.00    +0.000 A 
ATOM      6  N   UNL     1       0.642  10.346  20.934  0.00  0.00    +0.000 N 
ATOM      7  C   UNL     1       0.190  11.712  21.133  0.00  0.00    +0.000 C 
ATOM      8  C   UNL     1       0.073  12.487  19.819  0.00  0.00    +0.000 C 
ATOM      9  C   UNL     1       1.300  12.243  18.942  0.00  0.00    +0.000 C 
ATOM     10  C   UNL     1       1.434  10.758  18.591  0.00  0.00    +0.000 C 
ENDROOT
BRANCH   4  11
ATOM     11  C   UNL     1       2.136   7.579  19.115  0.00  0.00    +0.000 C 
ATOM     12  O   UNL     1       2.336   7.798  17.922  0.00  0.00    +0.000 OA
ATOM     13  N   UNL     1       2.451   6.391  19.740  0.00  0.00    +0.000 N 
ATOM     14  H   UNL     1       2.349   6.420  20.751  0.00  0.00    +0.000 HD
BRANCH  13  15
ATOM     15  C   UNL     1       3.132   5.272  19.092  0.00  0.00    +0.000 C 
ATOM     16  C   UNL     1       4.627   5.329  19.433  0.00  0.00    +0.000 C 
BRANCH  15  17
ATOM     17  C   UNL     1       2.450   3.898  19.438  0.00  0.00    +0.000 C 
ATOM     18  C   UNL     1       1.536   3.460  18.272  0.00  0.00    +0.000 C 
ATOM     19  C   UNL     1       3.500   2.784  19.636  0.00  0.00    +0.000 C 
ATOM     20  C   UNL     1       1.598   3.984  20.719  0.00  0.00    +0.000 C 
ENDBRANCH  15  17
ENDBRANCH  13  15
ENDBRANCH   4  11
TORSDOF 3
ENDMDL
MODEL 6
REMARK VINA RESULT:      -5.9      1.499      1.572
REMARK  Name = 
REMARK  8 active torsions:
REMARK  status: ('A' for Active; 'I' for Inactive)
REMARK    1  A    between atoms: C_1  and  C_2
REMARK    2  A    between atoms: C_4  and  C_5
REMARK    3  A    between atoms: N_7  and  C_8
REMARK    4  A    between atoms: C_8  and  C_9
REMARK    5  A    between atoms: C_8  and  C_10
REMARK    6  A    between atoms: C_10  and  C_11
REMARK    7  A    between atoms: C_10  and  C_12
REMARK    8  A    between atoms: C_10  and  C_13
REMARK                            x       y       z     vdW  Elec       q    Type
REMARK                         _______ _______ _______ _____ _____    ______ ____
ROOT
ATOM      1  C   UNL     1       7.775   7.714  17.453  0.00  0.00    +0.000 C 
ATOM      2  C   UNL     1       6.580   6.834  17.440  0.00  0.00    +0.000 A 
ATOM      3  N   UNL     1       5.565   6.891  18.284  0.00  0.00    +0.000 NA
ATOM      4  C   UNL     1       4.687   5.878  17.908  0.00  0.00    +0.000 A 
ATOM      5  C   UNL     1       5.212   5.186  16.829  0.00  0.00    +0.000 A 
ATOM      6  N   UNL     1       6.391   5.825  16.531  0.00  0.00    +0.000 N 
ATOM      7  C   UNL     1       7.297   5.418  15.470  0.00  0.00    +0.000 C 
ATOM      8  C   UNL     1       6.635   4.474  14.466  0.00  0.00    +0.000 C 
ATOM      9  C   UNL     1       5.828   3.398  15.192  0.00  0.00    +0.000 C 
ATOM     10  C   UNL     1       4.715   4.027  16.035  0.00  0.00    +0.000 C 
ENDROOT
BRANCH   4  11
ATOM     11  C   UNL     1       3.409   5.640  18.598  0.00  0.00    +0.000 C 
ATOM     12  O   UNL     1       2.311   5.827  18.079  0.00  0.00    +0.000 OA
ATOM     13  N   UNL     1       3.580   5.189  19.889  0.00  0.00    +0.000 N 
ATOM     14  H   UNL     1       4.544   4.959  20.118  0.00  0.00    +0.000 HD
BRANCH  13  15
ATOM     15  C   UNL     1       2.489   4.800  20.779  0.00  0.00    +0.000 C 
ATOM     16  C   UNL     1       1.348   5.817  20.648  0.00  0.00    +0.000 C 
BRANCH  15  17
ATOM     17  C   UNL     1       2.047   3.310  20.539  0.00  0.00    +0.000 C 
ATOM     18  C   UNL     1       0.767   3.277  19.675  0.00  0.00    +0.000 C 
ATOM     19  C   UNL     1       3.131   2.519  19.775  0.00  0.00    +0.000 C 
ATOM     20  C   UNL     1       1.761   2.572  21.861  0.00  0.00    +0.000 C 
ENDBRANCH  15  17
ENDBRANCH  13  15
ENDBRANCH   4  11
TORSDOF 3
ENDMDL
MODEL 7
REMARK VINA RESULT:      -5.9      1.470      1.644
REMARK  Name = 
REMARK  8 active torsions:
REMARK  status: ('A' for Active; 'I' for Inactive)
REMARK    1  A    between atoms: C_1  and  C_2
REMARK    2  A    between atoms: C_4  and  C_5
REMARK    3  A    between atoms: N_7  and  C_8
REMARK    4  A    between atoms: C_8  and  C_9
REMARK    5  A    between atoms: C_8  and  C_10
REMARK    6  A    between atoms: C_10  and  C_11
REMARK    7  A    between atoms: C_10  and  C_12
REMARK    8  A    between atoms: C_10  and  C_13
REMARK                            x       y       z     vdW  Elec       q    Type
REMARK                         _______ _______ _______ _____ _____    ______ ____
ROOT
ATOM      1  C   UNL     1       7.850   7.651  17.603  0.00  0.00    +0.000 C 
ATOM      2  C   UNL     1       6.646   6.786  17.544  0.00  0.00    +0.000 A 
ATOM      3  N   UNL     1       5.622   6.824  18.378  0.00  0.00    +0.000 NA
ATOM      4  C   UNL     1       4.736   5.836  17.955  0.00  0.00    +0.000 A 
ATOM      5  C   UNL     1       5.265   5.179  16.857  0.00  0.00    +0.000 A 
ATOM      6  N   UNL     1       6.455   5.813  16.596  0.00  0.00    +0.000 N 
ATOM      7  C   UNL     1       7.367   5.436  15.531  0.00  0.00    +0.000 C 
ATOM      8  C   UNL     1       6.705   4.538  14.485  0.00  0.00    +0.000 C 
ATOM      9  C   UNL     1       5.878   3.445  15.161  0.00  0.00    +0.000 C 
ATOM     10  C   UNL     1       4.763   4.055  16.016  0.00  0.00    +0.000 C 
ENDROOT
BRANCH   4  11
ATOM     11  C   UNL     1       3.447   5.589  18.622  0.00  0.00    +0.000 C 
ATOM     12  O   UNL     1       2.358   5.745  18.076  0.00  0.00    +0.000 OA
ATOM     13  N   UNL     1       3.599   5.167  19.926  0.00  0.00    +0.000 N 
ATOM     14  H   UNL     1       4.561   4.959  20.180  0.00  0.00    +0.000 HD
BRANCH  13  15
ATOM     15  C   UNL     1       2.495   4.775  20.800  0.00  0.00    +0.000 C 
ATOM     16  C   UNL     1       1.360   5.797  20.663  0.00  0.00    +0.000 C 
BRANCH  15  17
ATOM     17  C   UNL     1       2.051   3.288  20.543  0.00  0.00    +0.000 C 
ATOM     18  C   UNL     1       3.193   2.513  19.848  0.00  0.00    +0.000 C 
ATOM     19  C   UNL     1       1.745   2.556  21.868  0.00  0.00    +0.000 C 
ATOM     20  C   UNL     1       0.796   3.207  19.653  0.00  0.00    +0.000 C 
ENDBRANCH  15  17
ENDBRANCH  13  15
ENDBRANCH   4  11
TORSDOF 3
ENDMDL
MODEL 8
REMARK VINA RESULT:      -5.9      3.590      5.862
REMARK  Name = 
REMARK  8 active torsions:
REMARK  status: ('A' for Active; 'I' for Inactive)
REMARK    1  A    between atoms: C_1  and  C_2
REMARK    2  A    between atoms: C_4  and  C_5
REMARK    3  A    between atoms: N_7  and  C_8
REMARK    4  A    between atoms: C_8  and  C_9
REMARK    5  A    between atoms: C_8  and  C_10
REMARK    6  A    between atoms: C_10  and  C_11
REMARK    7  A    between atoms: C_10  and  C_12
REMARK    8  A    between atoms: C_10  and  C_13
REMARK                            x       y       z     vdW  Elec       q    Type
REMARK                         _______ _______ _______ _____ _____    ______ ____
ROOT
ATOM      1  C   UNL     1       1.805   3.093  21.995  0.00  0.00    +0.000 C 
ATOM      2  C   UNL     1       2.140   3.945  20.827  0.00  0.00    +0.000 A 
ATOM      3  N   UNL     1       2.082   5.264  20.786  0.00  0.00    +0.000 NA
ATOM      4  C   UNL     1       2.467   5.633  19.500  0.00  0.00    +0.000 A 
ATOM      5  C   UNL     1       2.733   4.499  18.752  0.00  0.00    +0.000 A 
ATOM      6  N   UNL     1       2.550   3.447  19.617  0.00  0.00    +0.000 N 
ATOM      7  C   UNL     1       2.701   2.050  19.249  0.00  0.00    +0.000 C 
ATOM      8  C   UNL     1       3.465   1.869  17.937  0.00  0.00    +0.000 C 
ATOM      9  C   UNL     1       2.961   2.853  16.882  0.00  0.00    +0.000 C 
ATOM     10  C   UNL     1       3.169   4.299  17.341  0.00  0.00    +0.000 C 
ENDROOT
BRANCH   4  11
ATOM     11  C   UNL     1       2.558   7.039  19.072  0.00  0.00    +0.000 C 
ATOM     12  O   UNL     1       3.390   7.452  18.268  0.00  0.00    +0.000 OA
ATOM     13  N   UNL     1       1.611   7.838  19.676  0.00  0.00    +0.000 N 
ATOM     14  H   UNL     1       0.916   7.320  20.207  0.00  0.00    +0.000 HD
BRANCH  13  15
ATOM     15  C   UNL     1       1.419   9.257  19.382  0.00  0.00    +0.000 C 
ATOM     16  C   UNL     1       1.114   9.422  17.887  0.00  0.00    +0.000 C 
BRANCH  15  17
ATOM     17  C   UNL     1       0.344   9.906  20.329  0.00  0.00    +0.000 C 
ATOM     18  C   UNL     1      -0.905  10.301  19.509  0.00  0.00    +0.000 C 
ATOM     19  C   UNL     1      -0.121   8.911  21.415  0.00  0.00    +0.000 C 
ATOM     20  C   UNL     1       0.882  11.165  21.035  0.00  0.00    +0.000 C 
ENDBRANCH  15  17
ENDBRANCH  13  15
ENDBRANCH   4  11
TORSDOF 3
ENDMDL
MODEL 9
REMARK VINA RESULT:      -5.8      3.846      6.128
REMARK  Name = 
REMARK  8 active torsions:
REMARK  status: ('A' for Active; 'I' for Inactive)
REMARK    1  A    between atoms: C_1  and  C_2
REMARK    2  A    between atoms: C_4  and  C_5
REMARK    3  A    between atoms: N_7  and  C_8
REMARK    4  A    between atoms: C_8  and  C_9
REMARK    5  A    between atoms: C_8  and  C_10
REMARK    6  A    between atoms: C_10  and  C_11
REMARK    7  A    between atoms: C_10  and  C_12
REMARK    8  A    between atoms: C_10  and  C_13
REMARK                            x       y       z     vdW  Elec       q    Type
REMARK                         _______ _______ _______ _____ _____    ______ ____
ROOT
ATOM      1  C   UNL     1      -0.394   9.274  22.601  0.00  0.00    +0.000 C 
ATOM      2  C   UNL     1       0.451   8.777  21.487  0.00  0.00    +0.000 A 
ATOM      3  N   UNL     1       1.096   7.624  21.457  0.00  0.00    +0.000 NA
ATOM      4  C   UNL     1       1.765   7.581  20.236  0.00  0.00    +0.000 A 
ATOM      5  C   UNL     1       1.531   8.754  19.539  0.00  0.00    +0.000 A 
ATOM      6  N   UNL     1       0.676   9.481  20.332  0.00  0.00    +0.000 N 
ATOM      7  C   UNL     1       0.177  10.804  20.000  0.00  0.00    +0.000 C 
ATOM      8  C   UNL     1       0.364  11.146  18.522  0.00  0.00    +0.000 C 
ATOM      9  C   UNL     1       1.765  10.753  18.053  0.00  0.00    +0.000 C 
ATOM     10  C   UNL     1       1.989   9.246  18.208  0.00  0.00    +0.000 C 
ENDROOT
BRANCH   4  11
ATOM     11  C   UNL     1       2.577   6.428  19.817  0.00  0.00    +0.000 C 
ATOM     12  O   UNL     1       3.637   6.529  19.204  0.00  0.00    +0.000 OA
ATOM     13  N   UNL     1       2.015   5.224  20.184  0.00  0.00    +0.000 N 
ATOM     14  H   UNL     1       1.211   5.317  20.800  0.00  0.00    +0.000 HD
BRANCH  13  15
ATOM     15  C   UNL     1       2.639   3.920  19.966  0.00  0.00    +0.000 C 
ATOM     16  C   UNL     1       2.217   2.968  21.092  0.00  0.00    +0.000 C 
BRANCH  15  17
ATOM     17  C   UNL     1       2.347   3.371  18.522  0.00  0.00    +0.000 C 
ATOM     18  C   UNL     1       3.650   3.369  17.690  0.00  0.00    +0.000 C 
ATOM     19  C   UNL     1       1.835   1.915  18.567  0.00  0.00    +0.000 C 
ATOM     20  C   UNL     1       1.298   4.223  17.781  0.00  0.00    +0.000 C 
ENDBRANCH  15  17
ENDBRANCH  13  15
ENDBRANCH   4  11
TORSDOF 3
ENDMDL
