MODEL 1
REMARK VINA RESULT:      -8.6      0.000      0.000
REMARK  Name = 
REMARK  11 active torsions:
REMARK  status: ('A' for Active; 'I' for Inactive)
REMARK    1  A    between atoms: C_1  and  O_2
REMARK    2  A    between atoms: O_2  and  C_3
REMARK    3  A    between atoms: C_3  and  C_5
REMARK    4  A    between atoms: C_8  and  C_9
REMARK    5  A    between atoms: C_10  and  C_11
REMARK    6  A    between atoms: C_11  and  C_12
REMARK    7  A    between atoms: C_14  and  O_15
REMARK    8  A    between atoms: N_18  and  C_19
REMARK    9  A    between atoms: C_19  and  C_20
REMARK   10  A    between atoms: C_20  and  C_21
REMARK   11  A    between atoms: C_31  and  O_32
REMARK                            x       y       z     vdW  Elec       q    Type
REMARK                         _______ _______ _______ _____ _____    ______ ____
ROOT
ATOM      1  C   UNL     1       5.313   6.235  18.064  0.00  0.00    +0.000 C 
ATOM      2  C   UNL     1       6.580   5.721  17.473  0.00  0.00    +0.000 C 
ATOM      3  C   UNL     1       6.638   5.886  16.144  0.00  0.00    +0.000 C 
ATOM      4  C   UNL     1       5.400   6.604  15.744  0.00  0.00    +0.000 C 
ATOM      5  O   UNL     1       5.116   6.962  14.617  0.00  0.00    +0.000 OA
ATOM      6  N   UNL     1       4.663   6.795  16.901  0.00  0.00    +0.000 N 
ENDROOT
BRANCH   1  10
ATOM      7  C   UNL     1       2.818   3.297  20.059  0.00  0.00    +0.000 A 
ATOM      8  C   UNL     1       2.815   4.638  20.466  0.00  0.00    +0.000 A 
ATOM      9  C   UNL     1       3.637   5.570  19.828  0.00  0.00    +0.000 A 
ATOM     10  C   UNL     1       4.458   5.189  18.757  0.00  0.00    +0.000 A 
ATOM     11  C   UNL     1       4.428   3.848  18.331  0.00  0.00    +0.000 A 
ATOM     12  C   UNL     1       3.621   2.910  18.981  0.00  0.00    +0.000 A 
BRANCH   7  13
ATOM     13  C   UNL     1       1.930   2.370  20.797  0.00  0.00    +0.000 C 
ATOM     14  O   UNL     1       1.984   2.224  22.010  0.00  0.00    +0.000 OA
BRANCH  13  16
ATOM     15  C   UNL     1       0.393   2.454  19.043  0.00  0.00    +0.000 C 
ATOM     16  O   UNL     1       1.166   1.656  19.938  0.00  0.00    +0.000 OA
ENDBRANCH  13  16
ENDBRANCH   7  13
BRANCH  12  17
ATOM     17  O   UNL     1       3.604   1.623  18.523  0.00  0.00    +0.000 OA
ATOM     18  H   UNL     1       3.384   1.607  17.578  0.00  0.00    +0.000 HD
ENDBRANCH  12  17
ENDBRANCH   1  10
BRANCH   2  19
ATOM     19  C   UNL     1       7.648   5.072  18.252  0.00  0.00    +0.000 C 
ATOM     20  C   UNL     1       7.998   5.601  19.621  0.00  0.00    +0.000 C 
ATOM     21  O   UNL     1       8.260   4.124  17.756  0.00  0.00    +0.000 OA
ENDBRANCH   2  19
BRANCH   3  22
ATOM     22  O   UNL     1       7.621   5.499  15.277  0.00  0.00    +0.000 OA
ATOM     23  H   UNL     1       8.078   6.311  14.968  0.00  0.00    +0.000 HD
ENDBRANCH   3  22
BRANCH   6  24
ATOM     24  C   UNL     1       3.420   7.563  16.969  0.00  0.00    +0.000 C 
BRANCH  24  25
ATOM     25  C   UNL     1       2.836   7.595  18.385  0.00  0.00    +0.000 C 
BRANCH  25  26
ATOM     26  C   UNL     1       1.891   8.721  18.646  0.00  0.00    +0.000 A 
ATOM     27  C   UNL     1       1.580   9.724  17.749  0.00  0.00    +0.000 A 
ATOM     28  N   UNL     1       0.728  10.601  18.359  0.00  0.00    +0.000 N 
ATOM     29  C   UNL     1       0.478  10.202  19.650  0.00  0.00    +0.000 A 
ATOM     30  C   UNL     1      -0.319  10.796  20.635  0.00  0.00    +0.000 A 
ATOM     31  C   UNL     1      -0.387  10.169  21.881  0.00  0.00    +0.000 A 
ATOM     32  C   UNL     1       0.318   8.997  22.132  0.00  0.00    +0.000 A 
ATOM     33  C   UNL     1       1.114   8.416  21.136  0.00  0.00    +0.000 A 
ATOM     34  C   UNL     1       1.196   9.023  19.864  0.00  0.00    +0.000 A 
ATOM     35  H   UNL     1       0.344  11.433  17.933  0.00  0.00    +0.000 HD
ENDBRANCH  25  26
ENDBRANCH  24  25
ENDBRANCH   6  24
TORSDOF 9
ENDMDL
MODEL 2
REMARK VINA RESULT:      -8.5      5.046      9.095
REMARK  Name = 
REMARK  11 active torsions:
REMARK  status: ('A' for Active; 'I' for Inactive)
REMARK    1  A    between atoms: C_1  and  O_2
REMARK    2  A    between atoms: O_2  and  C_3
REMARK    3  A    between atoms: C_3  and  C_5
REMARK    4  A    between atoms: C_8  and  C_9
REMARK    5  A    between atoms: C_10  and  C_11
REMARK    6  A    between atoms: C_11  and  C_12
REMARK    7  A    between atoms: C_14  and  O_15
REMARK    8  A    between atoms: N_18  and  C_19
REMARK    9  A    between atoms: C_19  and  C_20
REMARK   10  A    between atoms: C_20  and  C_21
REMARK   11  A    between atoms: C_31  and  O_32
REMARK                            x       y       z     vdW  Elec       q    Type
REMARK                         _______ _______ _______ _____ _____    ______ ____
ROOT
ATOM      1  C   UNL     1       0.050  11.219  20.379  0.00  0.00    +0.000 C 
ATOM      2  C   UNL     1      -0.012  12.497  21.142  0.00  0.00    +0.000 C 
ATOM      3  C   UNL     1      -0.366  12.321  22.423  0.00  0.00    +0.000 C 
ATOM      4  C   UNL     1      -0.509  10.856  22.633  0.00  0.00    +0.000 C 
ATOM      5  O   UNL     1      -0.785  10.310  23.683  0.00  0.00    +0.000 OA
ATOM      6  N   UNL     1      -0.246  10.255  21.413  0.00  0.00    +0.000 N 
ENDROOT
BRANCH   1  10
ATOM      7  C   UNL     1      -2.680  10.880  17.021  0.00  0.00    +0.000 A 
ATOM      8  C   UNL     1      -1.471  10.169  17.040  0.00  0.00    +0.000 A 
ATOM      9  C   UNL     1      -0.593  10.302  18.118  0.00  0.00    +0.000 A 
ATOM     10  C   UNL     1      -0.913  11.125  19.208  0.00  0.00    +0.000 A 
ATOM     11  C   UNL     1      -2.144  11.807  19.197  0.00  0.00    +0.000 A 
ATOM     12  C   UNL     1      -3.015  11.691  18.109  0.00  0.00    +0.000 A 
BRANCH   7  13
ATOM     13  C   UNL     1      -3.546  10.695  15.835  0.00  0.00    +0.000 C 
ATOM     14  O   UNL     1      -4.767  10.740  15.891  0.00  0.00    +0.000 OA
BRANCH  13  16
ATOM     15  C   UNL     1      -3.573   9.893  13.644  0.00  0.00    +0.000 C 
ATOM     16  O   UNL     1      -2.807  10.364  14.750  0.00  0.00    +0.000 OA
ENDBRANCH  13  16
ENDBRANCH   7  13
BRANCH  12  17
ATOM     17  O   UNL     1      -4.210  12.351  18.148  0.00  0.00    +0.000 OA
ATOM     18  H   UNL     1      -4.808  11.927  18.785  0.00  0.00    +0.000 HD
ENDBRANCH  12  17
ENDBRANCH   1  10
BRANCH   2  19
ATOM     19  C   UNL     1       0.255  13.821  20.555  0.00  0.00    +0.000 C 
ATOM     20  C   UNL     1      -0.872  14.815  20.414  0.00  0.00    +0.000 C 
ATOM     21  O   UNL     1       1.392  14.082  20.158  0.00  0.00    +0.000 OA
ENDBRANCH   2  19
BRANCH   3  22
ATOM     22  O   UNL     1      -0.561  13.263  23.393  0.00  0.00    +0.000 OA
ATOM     23  H   UNL     1      -0.606  14.137  22.951  0.00  0.00    +0.000 HD
ENDBRANCH   3  22
BRANCH   6  24
ATOM     24  C   UNL     1      -0.171   8.809  21.206  0.00  0.00    +0.000 C 
BRANCH  24  25
ATOM     25  C   UNL     1       1.254   8.273  21.378  0.00  0.00    +0.000 C 
BRANCH  25  26
ATOM     26  C   UNL     1       1.821   7.607  20.168  0.00  0.00    +0.000 A 
ATOM     27  C   UNL     1       2.154   8.245  18.990  0.00  0.00    +0.000 A 
ATOM     28  N   UNL     1       2.589   7.306  18.097  0.00  0.00    +0.000 N 
ATOM     29  C   UNL     1       2.538   6.053  18.661  0.00  0.00    +0.000 A 
ATOM     30  C   UNL     1       2.873   4.809  18.116  0.00  0.00    +0.000 A 
ATOM     31  C   UNL     1       2.714   3.681  18.924  0.00  0.00    +0.000 A 
ATOM     32  C   UNL     1       2.235   3.796  20.225  0.00  0.00    +0.000 A 
ATOM     33  C   UNL     1       1.900   5.048  20.755  0.00  0.00    +0.000 A 
ATOM     34  C   UNL     1       2.057   6.206  19.964  0.00  0.00    +0.000 A 
ATOM     35  H   UNL     1       2.891   7.495  17.152  0.00  0.00    +0.000 HD
ENDBRANCH  25  26
ENDBRANCH  24  25
ENDBRANCH   6  24
TORSDOF 9
ENDMDL
MODEL 3
REMARK VINA RESULT:      -8.4      2.412      5.491
REMARK  Name = 
REMARK  11 active torsions:
REMARK  status: ('A' for Active; 'I' for Inactive)
REMARK    1  A    between atoms: C_1  and  O_2
REMARK    2  A    between atoms: O_2  and  C_3
REMARK    3  A    between atoms: C_3  and  C_5
REMARK    4  A    between atoms: C_8  and  C_9
REMARK    5  A    between atoms: C_10  and  C_11
REMARK    6  A    between atoms: C_11  and  C_12
REMARK    7  A    between atoms: C_14  and  O_15
REMARK    8  A    between atoms: N_18  and  C_19
REMARK    9  A    between atoms: C_19  and  C_20
REMARK   10  A    between atoms: C_20  and  C_21
REMARK   11  A    between atoms: C_31  and  O_32
REMARK                            x       y       z     vdW  Elec       q    Type
REMARK                         _______ _______ _______ _____ _____    ______ ____
ROOT
ATOM      1  C   UNL     1       2.315   5.744  18.162  0.00  0.00    +0.000 C 
ATOM      2  C   UNL     1       2.153   4.789  19.293  0.00  0.00    +0.000 C 
ATOM      3  C   UNL     1       2.149   5.394  20.489  0.00  0.00    +0.000 C 
ATOM      4  C   UNL     1       2.248   6.855  20.232  0.00  0.00    +0.000 C 
ATOM      5  O   UNL     1       2.236   7.730  21.077  0.00  0.00    +0.000 OA
ATOM      6  N   UNL     1       2.332   7.009  18.859  0.00  0.00    +0.000 N 
ENDROOT
BRANCH   1  10
ATOM      7  C   UNL     1       5.828   5.104  15.695  0.00  0.00    +0.000 A 
ATOM      8  C   UNL     1       4.766   4.190  15.684  0.00  0.00    +0.000 A 
ATOM      9  C   UNL     1       3.649   4.397  16.498  0.00  0.00    +0.000 A 
ATOM     10  C   UNL     1       3.558   5.532  17.317  0.00  0.00    +0.000 A 
ATOM     11  C   UNL     1       4.613   6.463  17.295  0.00  0.00    +0.000 A 
ATOM     12  C   UNL     1       5.741   6.247  16.497  0.00  0.00    +0.000 A 
BRANCH   7  13
ATOM     13  C   UNL     1       6.981   4.803  14.816  0.00  0.00    +0.000 C 
ATOM     14  O   UNL     1       7.971   5.517  14.752  0.00  0.00    +0.000 OA
BRANCH  13  16
ATOM     15  C   UNL     1       6.797   3.977  12.641  0.00  0.00    +0.000 C 
ATOM     16  O   UNL     1       6.721   3.723  14.042  0.00  0.00    +0.000 OA
ENDBRANCH  13  16
ENDBRANCH   7  13
BRANCH  12  17
ATOM     17  O   UNL     1       6.732   7.186  16.487  0.00  0.00    +0.000 OA
ATOM     18  H   UNL     1       6.530   7.894  17.119  0.00  0.00    +0.000 HD
ENDBRANCH  12  17
ENDBRANCH   1  10
BRANCH   2  19
ATOM     19  C   UNL     1       2.039   3.329  19.129  0.00  0.00    +0.000 C 
ATOM     20  C   UNL     1       3.192   2.442  19.528  0.00  0.00    +0.000 C 
ATOM     21  O   UNL     1       1.010   2.860  18.636  0.00  0.00    +0.000 OA
ENDBRANCH   2  19
BRANCH   3  22
ATOM     22  O   UNL     1       2.065   4.832  21.732  0.00  0.00    +0.000 OA
ATOM     23  H   UNL     1       2.871   4.289  21.865  0.00  0.00    +0.000 HD
ENDBRANCH   3  22
BRANCH   6  24
ATOM     24  C   UNL     1       2.332   8.302  18.173  0.00  0.00    +0.000 C 
BRANCH  24  25
ATOM     25  C   UNL     1       0.957   8.650  17.594  0.00  0.00    +0.000 C 
BRANCH  25  26
ATOM     26  C   UNL     1       0.247   9.760  18.295  0.00  0.00    +0.000 A 
ATOM     27  C   UNL     1       0.756  10.491  19.350  0.00  0.00    +0.000 A 
ATOM     28  N   UNL     1      -0.198  11.379  19.762  0.00  0.00    +0.000 N 
ATOM     29  C   UNL     1      -1.336  11.240  19.004  0.00  0.00    +0.000 A 
ATOM     30  C   UNL     1      -2.554  11.926  19.080  0.00  0.00    +0.000 A 
ATOM     31  C   UNL     1      -3.557  11.570  18.175  0.00  0.00    +0.000 A 
ATOM     32  C   UNL     1      -3.350  10.565  17.236  0.00  0.00    +0.000 A 
ATOM     33  C   UNL     1      -2.126   9.886  17.176  0.00  0.00    +0.000 A 
ATOM     34  C   UNL     1      -1.091  10.229  18.072  0.00  0.00    +0.000 A 
ATOM     35  H   UNL     1      -0.094  12.035  20.523  0.00  0.00    +0.000 HD
ENDBRANCH  25  26
ENDBRANCH  24  25
ENDBRANCH   6  24
TORSDOF 9
ENDMDL
MODEL 4
REMARK VINA RESULT:      -8.3      2.314      5.516
REMARK  Name = 
REMARK  11 active torsions:
REMARK  status: ('A' for Active; 'I' for Inactive)
REMARK    1  A    between atoms: C_1  and  O_2
REMARK    2  A    between atoms: O_2  and  C_3
REMARK    3  A    between atoms: C_3  and  C_5
REMARK    4  A    between atoms: C_8  and  C_9
REMARK    5  A    between atoms: C_10  and  C_11
REMARK    6  A    between atoms: C_11  and  C_12
REMARK    7  A    between atoms: C_14  and  O_15
REMARK    8  A    between atoms: N_18  and  C_19
REMARK    9  A    between atoms: C_19  and  C_20
REMARK   10  A    between atoms: C_20  and  C_21
REMARK   11  A    between atoms: C_31  and  O_32
REMARK                            x       y       z     vdW  Elec       q    Type
REMARK                         _______ _______ _______ _____ _____    ______ ____
ROOT
ATOM      1  C   UNL     1       2.200   5.833  18.178  0.00  0.00    +0.000 C 
ATOM      2  C   UNL     1       1.802   4.752  19.122  0.00  0.00    +0.000 C 
ATOM      3  C   UNL     1       1.619   5.195  20.374  0.00  0.00    +0.000 C 
ATOM      4  C   UNL     1       1.827   6.666  20.344  0.00  0.00    +0.000 C 
ATOM      5  O   UNL     1       1.710   7.423  21.289  0.00  0.00    +0.000 OA
ATOM      6  N   UNL     1       2.154   6.993  19.039  0.00  0.00    +0.000 N 
ENDROOT
BRANCH   1  10
ATOM      7  C   UNL     1       6.057   5.259  16.272  0.00  0.00    +0.000 A 
ATOM      8  C   UNL     1       5.095   4.240  16.270  0.00  0.00    +0.000 A 
ATOM      9  C   UNL     1       3.865   4.430  16.904  0.00  0.00    +0.000 A 
ATOM     10  C   UNL     1       3.560   5.649  17.529  0.00  0.00    +0.000 A 
ATOM     11  C   UNL     1       4.517   6.679  17.494  0.00  0.00    +0.000 A 
ATOM     12  C   UNL     1       5.757   6.484  16.878  0.00  0.00    +0.000 A 
BRANCH   7  13
ATOM     13  C   UNL     1       7.340   4.972  15.592  0.00  0.00    +0.000 C 
ATOM     14  O   UNL     1       7.575   5.317  14.442  0.00  0.00    +0.000 OA
BRANCH  13  16
ATOM     15  C   UNL     1       7.944   4.394  17.771  0.00  0.00    +0.000 C 
ATOM     16  O   UNL     1       8.129   4.195  16.371  0.00  0.00    +0.000 OA
ENDBRANCH  13  16
ENDBRANCH   7  13
BRANCH  12  17
ATOM     17  O   UNL     1       6.650   7.517  16.847  0.00  0.00    +0.000 OA
ATOM     18  H   UNL     1       7.165   7.490  16.025  0.00  0.00    +0.000 HD
ENDBRANCH  12  17
ENDBRANCH   1  10
BRANCH   2  19
ATOM     19  C   UNL     1       1.651   3.338  18.738  0.00  0.00    +0.000 C 
ATOM     20  C   UNL     1       2.612   2.311  19.284  0.00  0.00    +0.000 C 
ATOM     21  O   UNL     1       0.758   3.024  17.948  0.00  0.00    +0.000 OA
ENDBRANCH   2  19
BRANCH   3  22
ATOM     22  O   UNL     1       1.295   4.484  21.494  0.00  0.00    +0.000 OA
ATOM     23  H   UNL     1       0.316   4.443  21.545  0.00  0.00    +0.000 HD
ENDBRANCH   3  22
BRANCH   6  24
ATOM     24  C   UNL     1       2.332   8.361  18.551  0.00  0.00    +0.000 C 
BRANCH  24  25
ATOM     25  C   UNL     1       1.144   8.833  17.707  0.00  0.00    +0.000 C 
BRANCH  25  26
ATOM     26  C   UNL     1       0.304   9.888  18.347  0.00  0.00    +0.000 A 
ATOM     27  C   UNL     1       0.675  10.651  19.437  0.00  0.00    +0.000 A 
ATOM     28  N   UNL     1      -0.369  11.466  19.770  0.00  0.00    +0.000 N 
ATOM     29  C   UNL     1      -1.432  11.248  18.926  0.00  0.00    +0.000 A 
ATOM     30  C   UNL     1      -2.698  11.845  18.905  0.00  0.00    +0.000 A 
ATOM     31  C   UNL     1      -3.599  11.420  17.926  0.00  0.00    +0.000 A 
ATOM     32  C   UNL     1      -3.248  10.435  17.009  0.00  0.00    +0.000 A 
ATOM     33  C   UNL     1      -1.978   9.845  17.046  0.00  0.00    +0.000 A 
ATOM     34  C   UNL     1      -1.043  10.259  18.019  0.00  0.00    +0.000 A 
ATOM     35  H   UNL     1      -0.373  12.126  20.535  0.00  0.00    +0.000 HD
ENDBRANCH  25  26
ENDBRANCH  24  25
ENDBRANCH   6  24
TORSDOF 9
ENDMDL
MODEL 5
REMARK VINA RESULT:      -8.3      1.929      5.186
REMARK  Name = 
REMARK  11 active torsions:
REMARK  status: ('A' for Active; 'I' for Inactive)
REMARK    1  A    between atoms: C_1  and  O_2
REMARK    2  A    between atoms: O_2  and  C_3
REMARK    3  A    between atoms: C_3  and  C_5
REMARK    4  A    between atoms: C_8  and  C_9
REMARK    5  A    between atoms: C_10  and  C_11
REMARK    6  A    between atoms: C_11  and  C_12
REMARK    7  A    between atoms: C_14  and  O_15
REMARK    8  A    between atoms: N_18  and  C_19
REMARK    9  A    between atoms: C_19  and  C_20
REMARK   10  A    between atoms: C_20  and  C_21
REMARK   11  A    between atoms: C_31  and  O_32
REMARK                            x       y       z     vdW  Elec       q    Type
REMARK                         _______ _______ _______ _____ _____    ______ ____
ROOT
ATOM      1  C   UNL     1       2.361   5.487  18.268  0.00  0.00    +0.000 C 
ATOM      2  C   UNL     1       2.267   4.510  19.388  0.00  0.00    +0.000 C 
ATOM      3  C   UNL     1       2.302   5.096  20.594  0.00  0.00    +0.000 C 
ATOM      4  C   UNL     1       2.359   6.562  20.358  0.00  0.00    +0.000 C 
ATOM      5  O   UNL     1       2.364   7.423  21.217  0.00  0.00    +0.000 OA
ATOM      6  N   UNL     1       2.381   6.741  18.985  0.00  0.00    +0.000 N 
ENDROOT
BRANCH   1  10
ATOM      7  C   UNL     1       5.780   4.962  15.646  0.00  0.00    +0.000 A 
ATOM      8  C   UNL     1       4.751   4.010  15.686  0.00  0.00    +0.000 A 
ATOM      9  C   UNL     1       3.666   4.182  16.549  0.00  0.00    +0.000 A 
ATOM     10  C   UNL     1       3.572   5.316  17.368  0.00  0.00    +0.000 A 
ATOM     11  C   UNL     1       4.590   6.284  17.295  0.00  0.00    +0.000 A 
ATOM     12  C   UNL     1       5.688   6.105  16.447  0.00  0.00    +0.000 A 
BRANCH   7  13
ATOM     13  C   UNL     1       6.901   4.698  14.717  0.00  0.00    +0.000 C 
ATOM     14  O   UNL     1       7.895   5.408  14.657  0.00  0.00    +0.000 OA
BRANCH  13  16
ATOM     15  C   UNL     1       6.786   3.943  12.512  0.00  0.00    +0.000 C 
ATOM     16  O   UNL     1       6.609   3.661  13.898  0.00  0.00    +0.000 OA
ENDBRANCH  13  16
ENDBRANCH   7  13
BRANCH  12  17
ATOM     17  O   UNL     1       6.643   7.079  16.389  0.00  0.00    +0.000 OA
ATOM     18  H   UNL     1       6.556   7.680  17.147  0.00  0.00    +0.000 HD
ENDBRANCH  12  17
ENDBRANCH   1  10
BRANCH   2  19
ATOM     19  C   UNL     1       2.177   3.052  19.203  0.00  0.00    +0.000 C 
ATOM     20  C   UNL     1       0.902   2.446  18.669  0.00  0.00    +0.000 C 
ATOM     21  O   UNL     1       3.138   2.347  19.520  0.00  0.00    +0.000 OA
ENDBRANCH   2  19
BRANCH   3  22
ATOM     22  O   UNL     1       2.281   4.512  21.829  0.00  0.00    +0.000 OA
ATOM     23  H   UNL     1       2.787   5.092  22.437  0.00  0.00    +0.000 HD
ENDBRANCH   3  22
BRANCH   6  24
ATOM     24  C   UNL     1       2.325   8.044  18.323  0.00  0.00    +0.000 C 
BRANCH  24  25
ATOM     25  C   UNL     1       0.890   8.565  18.188  0.00  0.00    +0.000 C 
BRANCH  25  26
ATOM     26  C   UNL     1       0.593   9.791  18.986  0.00  0.00    +0.000 A 
ATOM     27  C   UNL     1       0.782  11.088  18.553  0.00  0.00    +0.000 A 
ATOM     28  N   UNL     1       0.452  11.937  19.573  0.00  0.00    +0.000 N 
ATOM     29  C   UNL     1       0.059  11.222  20.679  0.00  0.00    +0.000 A 
ATOM     30  C   UNL     1      -0.350  11.671  21.940  0.00  0.00    +0.000 A 
ATOM     31  C   UNL     1      -0.691  10.709  22.893  0.00  0.00    +0.000 A 
ATOM     32  C   UNL     1      -0.621   9.352  22.597  0.00  0.00    +0.000 A 
ATOM     33  C   UNL     1      -0.206   8.918  21.331  0.00  0.00    +0.000 A 
ATOM     34  C   UNL     1       0.138   9.867  20.345  0.00  0.00    +0.000 A 
ATOM     35  H   UNL     1       0.502  12.945  19.532  0.00  0.00    +0.000 HD
ENDBRANCH  25  26
ENDBRANCH  24  25
ENDBRANCH   6  24
TORSDOF 9
ENDMDL
MODEL 6
REMARK VINA RESULT:      -8.2      2.387      5.458
REMARK  Name = 
REMARK  11 active torsions:
REMARK  status: ('A' for Active; 'I' for Inactive)
REMARK    1  A    between atoms: C_1  and  O_2
REMARK    2  A    between atoms: O_2  and  C_3
REMARK    3  A    between atoms: C_3  and  C_5
REMARK    4  A    between atoms: C_8  and  C_9
REMARK    5  A    between atoms: C_10  and  C_11
REMARK    6  A    between atoms: C_11  and  C_12
REMARK    7  A    between atoms: C_14  and  O_15
REMARK    8  A    between atoms: N_18  and  C_19
REMARK    9  A    between atoms: C_19  and  C_20
REMARK   10  A    between atoms: C_20  and  C_21
REMARK   11  A    between atoms: C_31  and  O_32
REMARK                            x       y       z     vdW  Elec       q    Type
REMARK                         _______ _______ _______ _____ _____    ______ ____
ROOT
ATOM      1  C   UNL     1       2.370   5.200  18.237  0.00  0.00    +0.000 C 
ATOM      2  C   UNL     1       2.502   4.476  19.532  0.00  0.00    +0.000 C 
ATOM      3  C   UNL     1       2.389   5.285  20.595  0.00  0.00    +0.000 C 
ATOM      4  C   UNL     1       2.101   6.646  20.071  0.00  0.00    +0.000 C 
ATOM      5  O   UNL     1       1.898   7.640  20.741  0.00  0.00    +0.000 OA
ATOM      6  N   UNL     1       2.090   6.543  18.690  0.00  0.00    +0.000 N 
ENDROOT
BRANCH   1  10
ATOM      7  C   UNL     1       5.828   4.977  15.623  0.00  0.00    +0.000 A 
ATOM      8  C   UNL     1       4.880   3.945  15.651  0.00  0.00    +0.000 A 
ATOM      9  C   UNL     1       3.782   4.020  16.511  0.00  0.00    +0.000 A 
ATOM     10  C   UNL     1       3.593   5.136  17.340  0.00  0.00    +0.000 A 
ATOM     11  C   UNL     1       4.531   6.183  17.279  0.00  0.00    +0.000 A 
ATOM     12  C   UNL     1       5.642   6.101  16.434  0.00  0.00    +0.000 A 
BRANCH   7  13
ATOM     13  C   UNL     1       6.970   4.813  14.695  0.00  0.00    +0.000 C 
ATOM     14  O   UNL     1       7.905   5.600  14.647  0.00  0.00    +0.000 OA
BRANCH  13  16
ATOM     15  C   UNL     1       6.832   4.096  12.479  0.00  0.00    +0.000 C 
ATOM     16  O   UNL     1       6.763   3.765  13.864  0.00  0.00    +0.000 OA
ENDBRANCH  13  16
ENDBRANCH   7  13
BRANCH  12  17
ATOM     17  O   UNL     1       6.516   7.150  16.388  0.00  0.00    +0.000 OA
ATOM     18  H   UNL     1       6.477   7.581  15.519  0.00  0.00    +0.000 HD
ENDBRANCH  12  17
ENDBRANCH   1  10
BRANCH   2  19
ATOM     19  C   UNL     1       2.758   3.030  19.644  0.00  0.00    +0.000 C 
ATOM     20  C   UNL     1       1.813   2.052  18.991  0.00  0.00    +0.000 C 
ATOM     21  O   UNL     1       3.728   2.642  20.300  0.00  0.00    +0.000 OA
ENDBRANCH   2  19
BRANCH   3  22
ATOM     22  O   UNL     1       2.498   4.975  21.921  0.00  0.00    +0.000 OA
ATOM     23  H   UNL     1       3.411   4.651  22.074  0.00  0.00    +0.000 HD
ENDBRANCH   3  22
BRANCH   6  24
ATOM     24  C   UNL     1       1.733   7.636  17.785  0.00  0.00    +0.000 C 
BRANCH  24  25
ATOM     25  C   UNL     1       2.384   8.961  18.193  0.00  0.00    +0.000 C 
BRANCH  25  26
ATOM     26  C   UNL     1       1.422  10.060  18.503  0.00  0.00    +0.000 A 
ATOM     27  C   UNL     1       0.095   9.885  18.839  0.00  0.00    +0.000 A 
ATOM     28  N   UNL     1      -0.477  11.116  18.998  0.00  0.00    +0.000 N 
ATOM     29  C   UNL     1       0.448  12.105  18.761  0.00  0.00    +0.000 A 
ATOM     30  C   UNL     1       0.303  13.496  18.797  0.00  0.00    +0.000 A 
ATOM     31  C   UNL     1       1.426  14.274  18.502  0.00  0.00    +0.000 A 
ATOM     32  C   UNL     1       2.642  13.680  18.179  0.00  0.00    +0.000 A 
ATOM     33  C   UNL     1       2.769  12.286  18.144  0.00  0.00    +0.000 A 
ATOM     34  C   UNL     1       1.654  11.475  18.445  0.00  0.00    +0.000 A 
ATOM     35  H   UNL     1      -1.444  11.283  19.239  0.00  0.00    +0.000 HD
ENDBRANCH  25  26
ENDBRANCH  24  25
ENDBRANCH   6  24
TORSDOF 9
ENDMDL
MODEL 7
REMARK VINA RESULT:      -8.2      5.872      9.707
REMARK  Name = 
REMARK  11 active torsions:
REMARK  status: ('A' for Active; 'I' for Inactive)
REMARK    1  A    between atoms: C_1  and  O_2
REMARK    2  A    between atoms: O_2  and  C_3
REMARK    3  A    between atoms: C_3  and  C_5
REMARK    4  A    between atoms: C_8  and  C_9
REMARK    5  A    between atoms: C_10  and  C_11
REMARK    6  A    between atoms: C_11  and  C_12
REMARK    7  A    between atoms: C_14  and  O_15
REMARK    8  A    between atoms: N_18  and  C_19
REMARK    9  A    between atoms: C_19  and  C_20
REMARK   10  A    between atoms: C_20  and  C_21
REMARK   11  A    between atoms: C_31  and  O_32
REMARK                            x       y       z     vdW  Elec       q    Type
REMARK                         _______ _______ _______ _____ _____    ______ ____
ROOT
ATOM      1  C   UNL     1      -0.768  12.340  19.205  0.00  0.00    +0.000 C 
ATOM      2  C   UNL     1      -0.395  13.482  20.085  0.00  0.00    +0.000 C 
ATOM      3  C   UNL     1       0.263  13.096  21.188  0.00  0.00    +0.000 C 
ATOM      4  C   UNL     1       0.440  11.623  21.089  0.00  0.00    +0.000 C 
ATOM      5  O   UNL     1       1.026  10.920  21.890  0.00  0.00    +0.000 OA
ATOM      6  N   UNL     1      -0.170  11.230  19.910  0.00  0.00    +0.000 N 
ENDROOT
BRANCH   1  10
ATOM      7  C   UNL     1      -5.047  11.870  18.645  0.00  0.00    +0.000 A 
ATOM      8  C   UNL     1      -4.530  12.388  19.841  0.00  0.00    +0.000 A 
ATOM      9  C   UNL     1      -3.150  12.516  20.016  0.00  0.00    +0.000 A 
ATOM     10  C   UNL     1      -2.260  12.155  18.994  0.00  0.00    +0.000 A 
ATOM     11  C   UNL     1      -2.789  11.670  17.783  0.00  0.00    +0.000 A 
ATOM     12  C   UNL     1      -4.169  11.522  17.614  0.00  0.00    +0.000 A 
BRANCH   7  13
ATOM     13  C   UNL     1      -6.519  11.753  18.546  0.00  0.00    +0.000 C 
ATOM     14  O   UNL     1      -7.272  12.708  18.675  0.00  0.00    +0.000 OA
BRANCH  13  16
ATOM     15  C   UNL     1      -7.169   9.802  19.651  0.00  0.00    +0.000 C 
ATOM     16  O   UNL     1      -6.886  10.456  18.415  0.00  0.00    +0.000 OA
ENDBRANCH  13  16
ENDBRANCH   7  13
BRANCH  12  17
ATOM     17  O   UNL     1      -4.642  11.069  16.415  0.00  0.00    +0.000 OA
ATOM     18  H   UNL     1      -5.200  10.285  16.550  0.00  0.00    +0.000 HD
ENDBRANCH  12  17
ENDBRANCH   1  10
BRANCH   2  19
ATOM     19  C   UNL     1      -0.734  14.886  19.800  0.00  0.00    +0.000 C 
ATOM     20  C   UNL     1      -0.173  15.553  18.568  0.00  0.00    +0.000 C 
ATOM     21  O   UNL     1      -1.448  15.503  20.594  0.00  0.00    +0.000 OA
ENDBRANCH   2  19
BRANCH   3  22
ATOM     22  O   UNL     1       0.716  13.860  22.225  0.00  0.00    +0.000 OA
ATOM     23  H   UNL     1       0.025  14.527  22.424  0.00  0.00    +0.000 HD
ENDBRANCH   3  22
BRANCH   6  24
ATOM     24  C   UNL     1      -0.130   9.869  19.375  0.00  0.00    +0.000 C 
BRANCH  24  25
ATOM     25  C   UNL     1       1.250   9.505  18.819  0.00  0.00    +0.000 C 
BRANCH  25  26
ATOM     26  C   UNL     1       1.806   8.215  19.324  0.00  0.00    +0.000 A 
ATOM     27  C   UNL     1       1.513   7.645  20.548  0.00  0.00    +0.000 A 
ATOM     28  N   UNL     1       2.249   6.501  20.679  0.00  0.00    +0.000 N 
ATOM     29  C   UNL     1       3.034   6.309  19.567  0.00  0.00    +0.000 A 
ATOM     30  C   UNL     1       3.944   5.286  19.277  0.00  0.00    +0.000 A 
ATOM     31  C   UNL     1       4.619   5.345  18.056  0.00  0.00    +0.000 A 
ATOM     32  C   UNL     1       4.396   6.390  17.164  0.00  0.00    +0.000 A 
ATOM     33  C   UNL     1       3.484   7.408  17.472  0.00  0.00    +0.000 A 
ATOM     34  C   UNL     1       2.781   7.370  18.695  0.00  0.00    +0.000 A 
ATOM     35  H   UNL     1       2.235   5.888  21.482  0.00  0.00    +0.000 HD
ENDBRANCH  25  26
ENDBRANCH  24  25
ENDBRANCH   6  24
TORSDOF 9
ENDMDL
MODEL 8
REMARK VINA RESULT:      -8.2      2.979      7.386
REMARK  Name = 
REMARK  11 active torsions:
REMARK  status: ('A' for Active; 'I' for Inactive)
REMARK    1  A    between atoms: C_1  and  O_2
REMARK    2  A    between atoms: O_2  and  C_3
REMARK    3  A    between atoms: C_3  and  C_5
REMARK    4  A    between atoms: C_8  and  C_9
REMARK    5  A    between atoms: C_10  and  C_11
REMARK    6  A    between atoms: C_11  and  C_12
REMARK    7  A    between atoms: C_14  and  O_15
REMARK    8  A    between atoms: N_18  and  C_19
REMARK    9  A    between atoms: C_19  and  C_20
REMARK   10  A    between atoms: C_20  and  C_21
REMARK   11  A    between atoms: C_31  and  O_32
REMARK                            x       y       z     vdW  Elec       q    Type
REMARK                         _______ _______ _______ _____ _____    ______ ____
ROOT
ATOM      1  C   UNL     1       3.398   4.661  19.560  0.00  0.00    +0.000 C 
ATOM      2  C   UNL     1       2.472   3.496  19.591  0.00  0.00    +0.000 C 
ATOM      3  C   UNL     1       2.611   2.692  18.528  0.00  0.00    +0.000 C 
ATOM      4  C   UNL     1       3.723   3.246  17.712  0.00  0.00    +0.000 C 
ATOM      5  O   UNL     1       4.165   2.764  16.686  0.00  0.00    +0.000 OA
ATOM      6  N   UNL     1       4.157   4.390  18.361  0.00  0.00    +0.000 N 
ENDROOT
BRANCH   1  10
ATOM      7  C   UNL     1       1.473   8.551  19.517  0.00  0.00    +0.000 A 
ATOM      8  C   UNL     1       1.473   7.761  20.676  0.00  0.00    +0.000 A 
ATOM      9  C   UNL     1       2.079   6.503  20.670  0.00  0.00    +0.000 A 
ATOM     10  C   UNL     1       2.719   6.019  19.520  0.00  0.00    +0.000 A 
ATOM     11  C   UNL     1       2.746   6.833  18.373  0.00  0.00    +0.000 A 
ATOM     12  C   UNL     1       2.122   8.085  18.370  0.00  0.00    +0.000 A 
BRANCH   7  13
ATOM     13  C   UNL     1       0.795   9.865  19.602  0.00  0.00    +0.000 C 
ATOM     14  O   UNL     1       0.966  10.641  20.531  0.00  0.00    +0.000 OA
BRANCH  13  16
ATOM     15  C   UNL     1      -1.194  10.863  18.900  0.00  0.00    +0.000 C 
ATOM     16  O   UNL     1      -0.094  10.009  18.592  0.00  0.00    +0.000 OA
ENDBRANCH  13  16
ENDBRANCH   7  13
BRANCH  12  17
ATOM     17  O   UNL     1       2.191   8.854  17.244  0.00  0.00    +0.000 OA
ATOM     18  H   UNL     1       1.811   8.377  16.488  0.00  0.00    +0.000 HD
ENDBRANCH  12  17
ENDBRANCH   1  10
BRANCH   2  19
ATOM     19  C   UNL     1       1.483   3.258  20.657  0.00  0.00    +0.000 C 
ATOM     20  C   UNL     1       1.955   2.940  22.054  0.00  0.00    +0.000 C 
ATOM     21  O   UNL     1       0.283   3.293  20.379  0.00  0.00    +0.000 OA
ENDBRANCH   2  19
BRANCH   3  22
ATOM     22  O   UNL     1       1.906   1.566  18.208  0.00  0.00    +0.000 OA
ATOM     23  H   UNL     1       0.956   1.811  18.181  0.00  0.00    +0.000 HD
ENDBRANCH   3  22
BRANCH   6  24
ATOM     24  C   UNL     1       5.315   5.183  17.949  0.00  0.00    +0.000 C 
BRANCH  24  25
ATOM     25  C   UNL     1       5.099   5.861  16.592  0.00  0.00    +0.000 C 
BRANCH  25  26
ATOM     26  C   UNL     1       6.115   5.518  15.554  0.00  0.00    +0.000 A 
ATOM     27  C   UNL     1       7.425   5.956  15.545  0.00  0.00    +0.000 A 
ATOM     28  N   UNL     1       8.031   5.483  14.415  0.00  0.00    +0.000 N 
ATOM     29  C   UNL     1       7.141   4.748  13.669  0.00  0.00    +0.000 A 
ATOM     30  C   UNL     1       7.322   4.092  12.445  0.00  0.00    +0.000 A 
ATOM     31  C   UNL     1       6.227   3.417  11.902  0.00  0.00    +0.000 A 
ATOM     32  C   UNL     1       4.999   3.402  12.557  0.00  0.00    +0.000 A 
ATOM     33  C   UNL     1       4.834   4.066  13.779  0.00  0.00    +0.000 A 
ATOM     34  C   UNL     1       5.925   4.751  14.356  0.00  0.00    +0.000 A 
ATOM     35  H   UNL     1       8.991   5.657  14.151  0.00  0.00    +0.000 HD
ENDBRANCH  25  26
ENDBRANCH  24  25
ENDBRANCH   6  24
TORSDOF 9
ENDMDL
MODEL 9
REMARK VINA RESULT:      -8.2      6.012      9.837
REMARK  Name = 
REMARK  11 active torsions:
REMARK  status: ('A' for Active; 'I' for Inactive)
REMARK    1  A    between atoms: C_1  and  O_2
REMARK    2  A    between atoms: O_2  and  C_3
REMARK    3  A    between atoms: C_3  and  C_5
REMARK    4  A    between atoms: C_8  and  C_9
REMARK    5  A    between atoms: C_10  and  C_11
REMARK    6  A    between atoms: C_11  and  C_12
REMARK    7  A    between atoms: C_14  and  O_15
REMARK    8  A    between atoms: N_18  and  C_19
REMARK    9  A    between atoms: C_19  and  C_20
REMARK   10  A    between atoms: C_20  and  C_21
REMARK   11  A    between atoms: C_31  and  O_32
REMARK                            x       y       z     vdW  Elec       q    Type
REMARK                         _______ _______ _______ _____ _____    ______ ____
ROOT
ATOM      1  C   UNL     1      -0.618  11.481  20.633  0.00  0.00    +0.000 C 
ATOM      2  C   UNL     1      -0.069  10.520  21.630  0.00  0.00    +0.000 C 
ATOM      3  C   UNL     1      -0.692  10.586  22.815  0.00  0.00    +0.000 C 
ATOM      4  C   UNL     1      -1.783  11.586  22.672  0.00  0.00    +0.000 C 
ATOM      5  O   UNL     1      -2.589  11.890  23.530  0.00  0.00    +0.000 OA
ATOM      6  N   UNL     1      -1.705  12.073  21.377  0.00  0.00    +0.000 N 
ENDROOT
BRANCH   1  10
ATOM      7  C   UNL     1       2.174  14.447  19.132  0.00  0.00    +0.000 A 
ATOM      8  C   UNL     1       1.599  13.500  18.272  0.00  0.00    +0.000 A 
ATOM      9  C   UNL     1       0.717  12.539  18.772  0.00  0.00    +0.000 A 
ATOM     10  C   UNL     1       0.371  12.518  20.131  0.00  0.00    +0.000 A 
ATOM     11  C   UNL     1       0.925  13.494  20.980  0.00  0.00    +0.000 A 
ATOM     12  C   UNL     1       1.824  14.445  20.486  0.00  0.00    +0.000 A 
BRANCH   7  13
ATOM     13  C   UNL     1       3.110  15.420  18.526  0.00  0.00    +0.000 C 
ATOM     14  O   UNL     1       2.837  16.604  18.382  0.00  0.00    +0.000 OA
BRANCH  13  16
ATOM     15  C   UNL     1       5.397  15.066  18.829  0.00  0.00    +0.000 C 
ATOM     16  O   UNL     1       4.220  14.794  18.070  0.00  0.00    +0.000 OA
ENDBRANCH  13  16
ENDBRANCH   7  13
BRANCH  12  17
ATOM     17  O   UNL     1       2.321  15.389  21.338  0.00  0.00    +0.000 OA
ATOM     18  H   UNL     1       2.039  15.201  22.248  0.00  0.00    +0.000 HD
ENDBRANCH  12  17
ENDBRANCH   1  10
BRANCH   2  19
ATOM     19  C   UNL     1       1.059   9.611  21.362  0.00  0.00    +0.000 C 
ATOM     20  C   UNL     1       1.197   8.976  20.000  0.00  0.00    +0.000 C 
ATOM     21  O   UNL     1       1.854   9.360  22.270  0.00  0.00    +0.000 OA
ENDBRANCH   2  19
BRANCH   3  22
ATOM     22  O   UNL     1      -0.428   9.890  23.960  0.00  0.00    +0.000 OA
ATOM     23  H   UNL     1      -0.692  10.456  24.717  0.00  0.00    +0.000 HD
ENDBRANCH   3  22
BRANCH   6  24
ATOM     24  C   UNL     1      -2.669  13.001  20.787  0.00  0.00    +0.000 C 
BRANCH  24  25
ATOM     25  C   UNL     1      -4.012  12.327  20.485  0.00  0.00    +0.000 C 
BRANCH  25  26
ATOM     26  C   UNL     1      -4.315  12.163  19.033  0.00  0.00    +0.000 A 
ATOM     27  C   UNL     1      -5.404  12.705  18.380  0.00  0.00    +0.000 A 
ATOM     28  N   UNL     1      -5.375  12.295  17.076  0.00  0.00    +0.000 N 
ATOM     29  C   UNL     1      -4.290  11.480  16.857  0.00  0.00    +0.000 A 
ATOM     30  C   UNL     1      -3.876  10.831  15.688  0.00  0.00    +0.000 A 
ATOM     31  C   UNL     1      -2.722  10.047  15.755  0.00  0.00    +0.000 A 
ATOM     32  C   UNL     1      -2.014   9.916  16.945  0.00  0.00    +0.000 A 
ATOM     33  C   UNL     1      -2.444  10.569  18.107  0.00  0.00    +0.000 A 
ATOM     34  C   UNL     1      -3.602  11.374  18.069  0.00  0.00    +0.000 A 
ATOM     35  H   UNL     1      -6.058  12.539  16.372  0.00  0.00    +0.000 HD
ENDBRANCH  25  26
ENDBRANCH  24  25
ENDBRANCH   6  24
TORSDOF 9
ENDMDL
