MODEL 1
REMARK VINA RESULT:      -7.1      0.000      0.000
REMARK  Name = 
REMARK  5 active torsions:
REMARK  status: ('A' for Active; 'I' for Inactive)
REMARK    1  A    between atoms: C_1  and  C_2
REMARK    2  A    between atoms: C_2  and  C_3
REMARK    3  A    between atoms: C_2  and  C_4
REMARK    4  A    between atoms: C_2  and  C_5
REMARK    5  A    between atoms: C_8  and  N_9
REMARK                            x       y       z     vdW  Elec       q    Type
REMARK                         _______ _______ _______ _____ _____    ______ ____
ROOT
ATOM      1  N   UNL     1       2.480   6.950  19.876  0.00  0.00    +0.000 N 
ATOM      2  C   UNL     1       1.974   5.662  19.878  0.00  0.00    +0.000 C 
ATOM      3  O   UNL     1       0.964   5.337  20.484  0.00  0.00    +0.000 OA
ATOM      4  N   UNL     1       2.555   4.789  18.947  0.00  0.00    +0.000 N 
ATOM      5  C   UNL     1       1.650   3.771  18.417  0.00  0.00    +0.000 C 
ATOM      6  C   UNL     1       2.468   3.266  17.227  0.00  0.00    +0.000 C 
ATOM      7  C   UNL     1       3.909   3.247  17.757  0.00  0.00    +0.000 C 
ATOM      8  C   UNL     1       3.820   4.035  19.098  0.00  0.00    +0.000 C 
ATOM      9  C   UNL     1       3.676   2.957  20.209  0.00  0.00    +0.000 C 
ATOM     10  O   UNL     1       2.641   2.006  19.873  0.00  0.00    +0.000 OA
ATOM     11  C   UNL     1       1.417   2.668  19.496  0.00  0.00    +0.000 C 
ATOM     12  H   UNL     1       3.423   7.082  19.542  0.00  0.00    +0.000 HD
ENDROOT
BRANCH   1  16
ATOM     13  C   UNL     1       0.189  10.413  21.155  0.00  0.00    +0.000 A 
ATOM     14  C   UNL     1       0.636   9.461  22.069  0.00  0.00    +0.000 A 
ATOM     15  C   UNL     1       1.399   8.338  21.666  0.00  0.00    +0.000 A 
ATOM     16  C   UNL     1       1.754   8.109  20.328  0.00  0.00    +0.000 A 
ATOM     17  C   UNL     1       1.311   9.062  19.406  0.00  0.00    +0.000 A 
ATOM     18  C   UNL     1       0.557  10.195  19.812  0.00  0.00    +0.000 A 
BRANCH  13  20
ATOM     19  C   UNL     1       0.117  12.957  21.721  0.00  0.00    +0.000 C 
ATOM     20  C   UNL     1      -0.677  11.632  21.571  0.00  0.00    +0.000 C 
ATOM     21  C   UNL     1      -1.352  11.375  22.939  0.00  0.00    +0.000 C 
ATOM     22  C   UNL     1      -1.782  11.902  20.526  0.00  0.00    +0.000 C 
ENDBRANCH  13  20
ENDBRANCH   1  16
TORSDOF 2
ENDMDL
MODEL 2
REMARK VINA RESULT:      -6.9      0.423      1.118
REMARK  Name = 
REMARK  5 active torsions:
REMARK  status: ('A' for Active; 'I' for Inactive)
REMARK    1  A    between atoms: C_1  and  C_2
REMARK    2  A    between atoms: C_2  and  C_3
REMARK    3  A    between atoms: C_2  and  C_4
REMARK    4  A    between atoms: C_2  and  C_5
REMARK    5  A    between atoms: C_8  and  N_9
REMARK                            x       y       z     vdW  Elec       q    Type
REMARK                         _______ _______ _______ _____ _____    ______ ____
ROOT
ATOM      1  N   UNL     1       2.509   7.086  19.419  0.00  0.00    +0.000 N 
ATOM      2  C   UNL     1       2.200   5.752  19.618  0.00  0.00    +0.000 C 
ATOM      3  O   UNL     1       1.356   5.369  20.413  0.00  0.00    +0.000 OA
ATOM      4  N   UNL     1       2.745   4.865  18.678  0.00  0.00    +0.000 N 
ATOM      5  C   UNL     1       1.923   3.689  18.400  0.00  0.00    +0.000 C 
ATOM      6  C   UNL     1       2.606   3.167  17.134  0.00  0.00    +0.000 C 
ATOM      7  C   UNL     1       4.100   3.390  17.409  0.00  0.00    +0.000 C 
ATOM      8  C   UNL     1       4.113   4.299  18.673  0.00  0.00    +0.000 C 
ATOM      9  C   UNL     1       4.303   3.338  19.880  0.00  0.00    +0.000 C 
ATOM     10  O   UNL     1       3.376   2.232  19.809  0.00  0.00    +0.000 OA
ATOM     11  C   UNL     1       2.025   2.688  19.593  0.00  0.00    +0.000 C 
ATOM     12  H   UNL     1       3.357   7.301  18.918  0.00  0.00    +0.000 HD
ENDROOT
BRANCH   1  16
ATOM     13  C   UNL     1       0.182  10.436  20.920  0.00  0.00    +0.000 A 
ATOM     14  C   UNL     1       0.490  10.315  19.566  0.00  0.00    +0.000 A 
ATOM     15  C   UNL     1       1.232   9.218  19.063  0.00  0.00    +0.000 A 
ATOM     16  C   UNL     1       1.704   8.186  19.888  0.00  0.00    +0.000 A 
ATOM     17  C   UNL     1       1.397   8.299  21.247  0.00  0.00    +0.000 A 
ATOM     18  C   UNL     1       0.642   9.393  21.749  0.00  0.00    +0.000 A 
BRANCH  13  20
ATOM     19  C   UNL     1       0.240  12.944  21.625  0.00  0.00    +0.000 C 
ATOM     20  C   UNL     1      -0.599  11.646  21.497  0.00  0.00    +0.000 C 
ATOM     21  C   UNL     1      -1.120  11.324  22.918  0.00  0.00    +0.000 C 
ATOM     22  C   UNL     1      -1.809  11.995  20.603  0.00  0.00    +0.000 C 
ENDBRANCH  13  20
ENDBRANCH   1  16
TORSDOF 2
ENDMDL
MODEL 3
REMARK VINA RESULT:      -6.9      1.709      2.573
REMARK  Name = 
REMARK  5 active torsions:
REMARK  status: ('A' for Active; 'I' for Inactive)
REMARK    1  A    between atoms: C_1  and  C_2
REMARK    2  A    between atoms: C_2  and  C_3
REMARK    3  A    between atoms: C_2  and  C_4
REMARK    4  A    between atoms: C_2  and  C_5
REMARK    5  A    between atoms: C_8  and  N_9
REMARK                            x       y       z     vdW  Elec       q    Type
REMARK                         _______ _______ _______ _____ _____    ______ ____
ROOT
ATOM      1  N   UNL     1       2.971   7.318  19.102  0.00  0.00    +0.000 N 
ATOM      2  C   UNL     1       2.902   6.077  18.493  0.00  0.00    +0.000 C 
ATOM      3  O   UNL     1       1.862   5.591  18.074  0.00  0.00    +0.000 OA
ATOM      4  N   UNL     1       4.137   5.501  18.165  0.00  0.00    +0.000 N 
ATOM      5  C   UNL     1       4.123   4.666  16.966  0.00  0.00    +0.000 C 
ATOM      6  C   UNL     1       5.624   4.516  16.714  0.00  0.00    +0.000 C 
ATOM      7  C   UNL     1       6.216   4.360  18.123  0.00  0.00    +0.000 C 
ATOM      8  C   UNL     1       5.036   4.742  19.064  0.00  0.00    +0.000 C 
ATOM      9  C   UNL     1       4.375   3.397  19.478  0.00  0.00    +0.000 C 
ATOM     10  O   UNL     1       4.122   2.571  18.320  0.00  0.00    +0.000 OA
ATOM     11  C   UNL     1       3.431   3.304  17.288  0.00  0.00    +0.000 C 
ATOM     12  H   UNL     1       3.813   7.544  19.610  0.00  0.00    +0.000 HD
ENDROOT
BRANCH   1  16
ATOM     13  C   UNL     1      -0.134  10.357  19.082  0.00  0.00    +0.000 A 
ATOM     14  C   UNL     1       0.529   9.990  17.913  0.00  0.00    +0.000 A 
ATOM     15  C   UNL     1       1.530   8.988  17.904  0.00  0.00    +0.000 A 
ATOM     16  C   UNL     1       1.919   8.302  19.065  0.00  0.00    +0.000 A 
ATOM     17  C   UNL     1       1.256   8.663  20.241  0.00  0.00    +0.000 A 
ATOM     18  C   UNL     1       0.243   9.659  20.247  0.00  0.00    +0.000 A 
BRANCH  13  20
ATOM     19  C   UNL     1      -1.628  11.909  20.549  0.00  0.00    +0.000 C 
ATOM     20  C   UNL     1      -1.209  11.476  19.120  0.00  0.00    +0.000 C 
ATOM     21  C   UNL     1      -2.503  11.007  18.413  0.00  0.00    +0.000 C 
ATOM     22  C   UNL     1      -0.701  12.750  18.409  0.00  0.00    +0.000 C 
ENDBRANCH  13  20
ENDBRANCH   1  16
TORSDOF 2
ENDMDL
MODEL 4
REMARK VINA RESULT:      -6.9      0.168      1.395
REMARK  Name = 
REMARK  5 active torsions:
REMARK  status: ('A' for Active; 'I' for Inactive)
REMARK    1  A    between atoms: C_1  and  C_2
REMARK    2  A    between atoms: C_2  and  C_3
REMARK    3  A    between atoms: C_2  and  C_4
REMARK    4  A    between atoms: C_2  and  C_5
REMARK    5  A    between atoms: C_8  and  N_9
REMARK                            x       y       z     vdW  Elec       q    Type
REMARK                         _______ _______ _______ _____ _____    ______ ____
ROOT
ATOM      1  N   UNL     1       2.428   6.998  19.839  0.00  0.00    +0.000 N 
ATOM      2  C   UNL     1       1.951   5.699  19.835  0.00  0.00    +0.000 C 
ATOM      3  O   UNL     1       0.910   5.362  20.378  0.00  0.00    +0.000 OA
ATOM      4  N   UNL     1       2.612   4.821  18.963  0.00  0.00    +0.000 N 
ATOM      5  C   UNL     1       1.768   3.772  18.396  0.00  0.00    +0.000 C 
ATOM      6  C   UNL     1       2.675   3.263  17.274  0.00  0.00    +0.000 C 
ATOM      7  C   UNL     1       4.077   3.288  17.900  0.00  0.00    +0.000 C 
ATOM      8  C   UNL     1       3.880   4.100  19.215  0.00  0.00    +0.000 C 
ATOM      9  C   UNL     1       3.686   3.041  20.336  0.00  0.00    +0.000 C 
ATOM     10  O   UNL     1       2.697   2.060  19.952  0.00  0.00    +0.000 OA
ATOM     11  C   UNL     1       1.487   2.685  19.480  0.00  0.00    +0.000 C 
ATOM     12  H   UNL     1       3.388   7.145  19.566  0.00  0.00    +0.000 HD
ENDROOT
BRANCH   1  16
ATOM     13  C   UNL     1       0.174  10.507  21.059  0.00  0.00    +0.000 A 
ATOM     14  C   UNL     1       0.483  10.272  19.721  0.00  0.00    +0.000 A 
ATOM     15  C   UNL     1       1.201   9.123  19.309  0.00  0.00    +0.000 A 
ATOM     16  C   UNL     1       1.647   8.149  20.216  0.00  0.00    +0.000 A 
ATOM     17  C   UNL     1       1.338   8.376  21.560  0.00  0.00    +0.000 A 
ATOM     18  C   UNL     1       0.608   9.523  21.971  0.00  0.00    +0.000 A 
BRANCH  13  20
ATOM     19  C   UNL     1      -1.183  11.663  22.960  0.00  0.00    +0.000 C 
ATOM     20  C   UNL     1      -0.581  11.776  21.535  0.00  0.00    +0.000 C 
ATOM     21  C   UNL     1      -1.765  12.088  20.589  0.00  0.00    +0.000 C 
ATOM     22  C   UNL     1       0.360  13.000  21.556  0.00  0.00    +0.000 C 
ENDBRANCH  13  20
ENDBRANCH   1  16
TORSDOF 2
ENDMDL
MODEL 5
REMARK VINA RESULT:      -6.8      0.678      1.181
REMARK  Name = 
REMARK  5 active torsions:
REMARK  status: ('A' for Active; 'I' for Inactive)
REMARK    1  A    between atoms: C_1  and  C_2
REMARK    2  A    between atoms: C_2  and  C_3
REMARK    3  A    between atoms: C_2  and  C_4
REMARK    4  A    between atoms: C_2  and  C_5
REMARK    5  A    between atoms: C_8  and  N_9
REMARK                            x       y       z     vdW  Elec       q    Type
REMARK                         _______ _______ _______ _____ _____    ______ ____
ROOT
ATOM      1  N   UNL     1       2.415   7.098  19.227  0.00  0.00    +0.000 N 
ATOM      2  C   UNL     1       2.394   5.810  19.731  0.00  0.00    +0.000 C 
ATOM      3  O   UNL     1       1.987   5.531  20.849  0.00  0.00    +0.000 OA
ATOM      4  N   UNL     1       2.646   4.796  18.795  0.00  0.00    +0.000 N 
ATOM      5  C   UNL     1       1.951   3.538  19.055  0.00  0.00    +0.000 C 
ATOM      6  C   UNL     1       2.152   2.828  17.714  0.00  0.00    +0.000 C 
ATOM      7  C   UNL     1       3.590   3.197  17.319  0.00  0.00    +0.000 C 
ATOM      8  C   UNL     1       3.968   4.331  18.318  0.00  0.00    +0.000 C 
ATOM      9  C   UNL     1       4.743   3.634  19.471  0.00  0.00    +0.000 C 
ATOM     10  O   UNL     1       4.023   2.476  19.950  0.00  0.00    +0.000 OA
ATOM     11  C   UNL     1       2.645   2.793  20.237  0.00  0.00    +0.000 C 
ATOM     12  H   UNL     1       2.963   7.268  18.397  0.00  0.00    +0.000 HD
ENDROOT
BRANCH   1  16
ATOM     13  C   UNL     1       0.202  10.439  20.906  0.00  0.00    +0.000 A 
ATOM     14  C   UNL     1       0.583   9.354  21.691  0.00  0.00    +0.000 A 
ATOM     15  C   UNL     1       1.320   8.268  21.159  0.00  0.00    +0.000 A 
ATOM     16  C   UNL     1       1.714   8.212  19.813  0.00  0.00    +0.000 A 
ATOM     17  C   UNL     1       1.337   9.299  19.020  0.00  0.00    +0.000 A 
ATOM     18  C   UNL     1       0.608  10.394  19.557  0.00  0.00    +0.000 A 
BRANCH  13  20
ATOM     19  C   UNL     1      -1.206  11.388  22.884  0.00  0.00    +0.000 C 
ATOM     20  C   UNL     1      -0.635  11.623  21.460  0.00  0.00    +0.000 C 
ATOM     21  C   UNL     1      -1.852  11.899  20.546  0.00  0.00    +0.000 C 
ATOM     22  C   UNL     1       0.216  12.909  21.538  0.00  0.00    +0.000 C 
ENDBRANCH  13  20
ENDBRANCH   1  16
TORSDOF 2
ENDMDL
MODEL 6
REMARK VINA RESULT:      -6.8      0.900      1.731
REMARK  Name = 
REMARK  5 active torsions:
REMARK  status: ('A' for Active; 'I' for Inactive)
REMARK    1  A    between atoms: C_1  and  C_2
REMARK    2  A    between atoms: C_2  and  C_3
REMARK    3  A    between atoms: C_2  and  C_4
REMARK    4  A    between atoms: C_2  and  C_5
REMARK    5  A    between atoms: C_8  and  N_9
REMARK                            x       y       z     vdW  Elec       q    Type
REMARK                         _______ _______ _______ _____ _____    ______ ____
ROOT
ATOM      1  N   UNL     1       2.427   7.513  18.950  0.00  0.00    +0.000 N 
ATOM      2  C   UNL     1       2.472   6.201  19.385  0.00  0.00    +0.000 C 
ATOM      3  O   UNL     1       2.010   5.831  20.454  0.00  0.00    +0.000 OA
ATOM      4  N   UNL     1       2.869   5.263  18.421  0.00  0.00    +0.000 N 
ATOM      5  C   UNL     1       2.258   3.944  18.565  0.00  0.00    +0.000 C 
ATOM      6  C   UNL     1       2.609   3.327  17.209  0.00  0.00    +0.000 C 
ATOM      7  C   UNL     1       4.038   3.824  16.942  0.00  0.00    +0.000 C 
ATOM      8  C   UNL     1       4.254   4.925  18.022  0.00  0.00    +0.000 C 
ATOM      9  C   UNL     1       4.998   4.225  19.194  0.00  0.00    +0.000 C 
ATOM     10  O   UNL     1       4.338   2.992  19.558  0.00  0.00    +0.000 OA
ATOM     11  C   UNL     1       2.923   3.188  19.757  0.00  0.00    +0.000 C 
ATOM     12  H   UNL     1       3.018   7.770  18.174  0.00  0.00    +0.000 HD
ENDROOT
BRANCH   1  16
ATOM     13  C   UNL     1       0.037  10.633  20.804  0.00  0.00    +0.000 A 
ATOM     14  C   UNL     1       0.281  10.625  19.433  0.00  0.00    +0.000 A 
ATOM     15  C   UNL     1       1.043   9.603  18.815  0.00  0.00    +0.000 A 
ATOM     16  C   UNL     1       1.601   8.537  19.537  0.00  0.00    +0.000 A 
ATOM     17  C   UNL     1       1.358   8.538  20.914  0.00  0.00    +0.000 A 
ATOM     18  C   UNL     1       0.584   9.556  21.531  0.00  0.00    +0.000 A 
BRANCH  13  20
ATOM     19  C   UNL     1      -2.056  12.186  20.758  0.00  0.00    +0.000 C 
ATOM     20  C   UNL     1      -0.765  11.761  21.507  0.00  0.00    +0.000 C 
ATOM     21  C   UNL     1       0.099  13.037  21.639  0.00  0.00    +0.000 C 
ATOM     22  C   UNL     1      -1.205  11.322  22.921  0.00  0.00    +0.000 C 
ENDBRANCH  13  20
ENDBRANCH   1  16
TORSDOF 2
ENDMDL
MODEL 7
REMARK VINA RESULT:      -6.8      1.513      2.092
REMARK  Name = 
REMARK  5 active torsions:
REMARK  status: ('A' for Active; 'I' for Inactive)
REMARK    1  A    between atoms: C_1  and  C_2
REMARK    2  A    between atoms: C_2  and  C_3
REMARK    3  A    between atoms: C_2  and  C_4
REMARK    4  A    between atoms: C_2  and  C_5
REMARK    5  A    between atoms: C_8  and  N_9
REMARK                            x       y       z     vdW  Elec       q    Type
REMARK                         _______ _______ _______ _____ _____    ______ ____
ROOT
ATOM      1  N   UNL     1       2.440   6.641  18.504  0.00  0.00    +0.000 N 
ATOM      2  C   UNL     1       2.348   5.638  19.452  0.00  0.00    +0.000 C 
ATOM      3  O   UNL     1       2.157   5.850  20.640  0.00  0.00    +0.000 OA
ATOM      4  N   UNL     1       2.248   4.337  18.939  0.00  0.00    +0.000 N 
ATOM      5  C   UNL     1       1.456   3.418  19.754  0.00  0.00    +0.000 C 
ATOM      6  C   UNL     1       1.262   2.267  18.764  0.00  0.00    +0.000 C 
ATOM      7  C   UNL     1       2.618   2.169  18.049  0.00  0.00    +0.000 C 
ATOM      8  C   UNL     1       3.358   3.471  18.480  0.00  0.00    +0.000 C 
ATOM      9  C   UNL     1       4.258   3.065  19.680  0.00  0.00    +0.000 C 
ATOM     10  O   UNL     1       3.503   2.319  20.661  0.00  0.00    +0.000 OA
ATOM     11  C   UNL     1       2.278   2.995  21.011  0.00  0.00    +0.000 C 
ATOM     12  H   UNL     1       2.815   6.399  17.600  0.00  0.00    +0.000 HD
ENDROOT
BRANCH   1  16
ATOM     13  C   UNL     1       1.176  10.761  19.063  0.00  0.00    +0.000 A 
ATOM     14  C   UNL     1       0.942   9.793  20.037  0.00  0.00    +0.000 A 
ATOM     15  C   UNL     1       1.366   8.451  19.874  0.00  0.00    +0.000 A 
ATOM     16  C   UNL     1       2.045   8.009  18.727  0.00  0.00    +0.000 A 
ATOM     17  C   UNL     1       2.285   8.977  17.747  0.00  0.00    +0.000 A 
ATOM     18  C   UNL     1       1.871  10.324  17.917  0.00  0.00    +0.000 A 
BRANCH  13  20
ATOM     19  C   UNL     1       0.601  12.730  20.672  0.00  0.00    +0.000 C 
ATOM     20  C   UNL     1       0.690  12.228  19.207  0.00  0.00    +0.000 C 
ATOM     21  C   UNL     1      -0.727  12.389  18.607  0.00  0.00    +0.000 C 
ATOM     22  C   UNL     1       1.642  13.196  18.471  0.00  0.00    +0.000 C 
ENDBRANCH  13  20
ENDBRANCH   1  16
TORSDOF 2
ENDMDL
MODEL 8
REMARK VINA RESULT:      -6.8      1.615      2.132
REMARK  Name = 
REMARK  5 active torsions:
REMARK  status: ('A' for Active; 'I' for Inactive)
REMARK    1  A    between atoms: C_1  and  C_2
REMARK    2  A    between atoms: C_2  and  C_3
REMARK    3  A    between atoms: C_2  and  C_4
REMARK    4  A    between atoms: C_2  and  C_5
REMARK    5  A    between atoms: C_8  and  N_9
REMARK                            x       y       z     vdW  Elec       q    Type
REMARK                         _______ _______ _______ _____ _____    ______ ____
ROOT
ATOM      1  N   UNL     1       3.083   7.201  19.000  0.00  0.00    +0.000 N 
ATOM      2  C   UNL     1       2.866   5.911  18.547  0.00  0.00    +0.000 C 
ATOM      3  O   UNL     1       1.753   5.436  18.379  0.00  0.00    +0.000 OA
ATOM      4  N   UNL     1       4.001   5.249  18.059  0.00  0.00    +0.000 N 
ATOM      5  C   UNL     1       3.739   4.303  16.977  0.00  0.00    +0.000 C 
ATOM      6  C   UNL     1       5.162   4.059  16.471  0.00  0.00    +0.000 C 
ATOM      7  C   UNL     1       6.003   4.012  17.756  0.00  0.00    +0.000 C 
ATOM      8  C   UNL     1       5.031   4.539  18.853  0.00  0.00    +0.000 C 
ATOM      9  C   UNL     1       4.421   3.273  19.518  0.00  0.00    +0.000 C 
ATOM     10  O   UNL     1       3.932   2.352  18.518  0.00  0.00    +0.000 OA
ATOM     11  C   UNL     1       3.081   3.013  17.560  0.00  0.00    +0.000 C 
ATOM     12  H   UNL     1       4.011   7.435  19.320  0.00  0.00    +0.000 HD
ENDROOT
BRANCH   1  16
ATOM     13  C   UNL     1      -0.039  10.222  19.070  0.00  0.00    +0.000 A 
ATOM     14  C   UNL     1       0.331   9.535  20.224  0.00  0.00    +0.000 A 
ATOM     15  C   UNL     1       1.360   8.561  20.217  0.00  0.00    +0.000 A 
ATOM     16  C   UNL     1       2.071   8.225  19.055  0.00  0.00    +0.000 A 
ATOM     17  C   UNL     1       1.706   8.913  17.894  0.00  0.00    +0.000 A 
ATOM     18  C   UNL     1       0.683   9.897  17.904  0.00  0.00    +0.000 A 
BRANCH  13  20
ATOM     19  C   UNL     1      -0.832  12.588  18.316  0.00  0.00    +0.000 C 
ATOM     20  C   UNL     1      -1.186  11.267  19.049  0.00  0.00    +0.000 C 
ATOM     21  C   UNL     1      -1.582  11.665  20.491  0.00  0.00    +0.000 C 
ATOM     22  C   UNL     1      -2.435  10.697  18.342  0.00  0.00    +0.000 C 
ENDBRANCH  13  20
ENDBRANCH   1  16
TORSDOF 2
ENDMDL
MODEL 9
REMARK VINA RESULT:      -6.7      2.691      8.024
REMARK  Name = 
REMARK  5 active torsions:
REMARK  status: ('A' for Active; 'I' for Inactive)
REMARK    1  A    between atoms: C_1  and  C_2
REMARK    2  A    between atoms: C_2  and  C_3
REMARK    3  A    between atoms: C_2  and  C_4
REMARK    4  A    between atoms: C_2  and  C_5
REMARK    5  A    between atoms: C_8  and  N_9
REMARK                            x       y       z     vdW  Elec       q    Type
REMARK                         _______ _______ _______ _____ _____    ______ ____
ROOT
ATOM      1  N   UNL     1       1.727   9.044  20.037  0.00  0.00    +0.000 N 
ATOM      2  C   UNL     1       0.850   9.884  19.374  0.00  0.00    +0.000 C 
ATOM      3  O   UNL     1       0.336   9.607  18.300  0.00  0.00    +0.000 OA
ATOM      4  N   UNL     1       0.392  10.980  20.118  0.00  0.00    +0.000 N 
ATOM      5  C   UNL     1      -0.966  11.413  19.796  0.00  0.00    +0.000 C 
ATOM      6  C   UNL     1      -1.253  12.332  20.986  0.00  0.00    +0.000 C 
ATOM      7  C   UNL     1       0.079  13.062  21.211  0.00  0.00    +0.000 C 
ATOM      8  C   UNL     1       1.089  12.270  20.329  0.00  0.00    +0.000 C 
ATOM      9  C   UNL     1       1.186  13.056  18.991  0.00  0.00    +0.000 C 
ATOM     10  O   UNL     1      -0.130  13.353  18.473  0.00  0.00    +0.000 OA
ATOM     11  C   UNL     1      -0.962  12.177  18.436  0.00  0.00    +0.000 C 
ATOM     12  H   UNL     1       2.269   9.435  20.792  0.00  0.00    +0.000 HD
ENDROOT
BRANCH   1  16
ATOM     13  C   UNL     1       2.183   4.828  19.087  0.00  0.00    +0.000 A 
ATOM     14  C   UNL     1       2.549   5.820  18.180  0.00  0.00    +0.000 A 
ATOM     15  C   UNL     1       2.421   7.197  18.485  0.00  0.00    +0.000 A 
ATOM     16  C   UNL     1       1.921   7.653  19.715  0.00  0.00    +0.000 A 
ATOM     17  C   UNL     1       1.555   6.663  20.631  0.00  0.00    +0.000 A 
ATOM     18  C   UNL     1       1.694   5.282  20.329  0.00  0.00    +0.000 A 
BRANCH  13  20
ATOM     19  C   UNL     1       0.956   2.532  18.956  0.00  0.00    +0.000 C 
ATOM     20  C   UNL     1       2.281   3.314  18.759  0.00  0.00    +0.000 C 
ATOM     21  C   UNL     1       3.327   2.631  19.672  0.00  0.00    +0.000 C 
ATOM     22  C   UNL     1       2.702   3.097  17.289  0.00  0.00    +0.000 C 
ENDBRANCH  13  20
ENDBRANCH   1  16
TORSDOF 2
ENDMDL
