MODEL 1
REMARK VINA RESULT:      -6.8      0.000      0.000
REMARK  Name = 
REMARK  7 active torsions:
REMARK  status: ('A' for Active; 'I' for Inactive)
REMARK    1  A    between atoms: C_1  and  C_2
REMARK    2  A    between atoms: C_2  and  C_3
REMARK    3  A    between atoms: C_10  and  C_11
REMARK    4  A    between atoms: C_11  and  O_12
REMARK    5  A    between atoms: C_11  and  C_13
REMARK    6  A    between atoms: C_20  and  O_21
REMARK    7  A    between atoms: O_21  and  C_22
REMARK                            x       y       z     vdW  Elec       q    Type
REMARK                         _______ _______ _______ _____ _____    ______ ____
ROOT
ATOM      1  C   UNL     1       3.474   6.109  17.412  0.00  0.00    +0.000 C 
ENDROOT
BRANCH   1   2
ATOM      2  C   UNL     1       4.976   6.055  17.103  0.00  0.00    +0.000 A 
ATOM      3  C   UNL     1       5.845   6.694  18.012  0.00  0.00    +0.000 A 
ATOM      4  C   UNL     1       7.218   6.710  17.793  0.00  0.00    +0.000 A 
ATOM      5  N   UNL     1       7.740   6.119  16.695  0.00  0.00    +0.000 NA
ATOM      6  C   UNL     1       6.961   5.490  15.780  0.00  0.00    +0.000 A 
ATOM      7  C   UNL     1       7.576   4.908  14.668  0.00  0.00    +0.000 A 
ATOM      8  C   UNL     1       6.817   4.247  13.710  0.00  0.00    +0.000 A 
ATOM      9  C   UNL     1       5.422   4.153  13.849  0.00  0.00    +0.000 A 
ATOM     10  C   UNL     1       4.799   4.744  14.960  0.00  0.00    +0.000 A 
ATOM     11  C   UNL     1       5.550   5.426  15.949  0.00  0.00    +0.000 A 
BRANCH   9  12
ATOM     12  O   UNL     1       4.648   3.501  12.941  0.00  0.00    +0.000 OA
ATOM     13  C   UNL     1       5.035   3.139  11.665  0.00  0.00    +0.000 C 
ENDBRANCH   9  12
ENDBRANCH   1   2
BRANCH   1  21
ATOM     14  C   UNL     1       2.643   2.489  19.841  0.00  0.00    +0.000 C 
ATOM     15  C   UNL     1       1.514   3.407  19.270  0.00  0.00    +0.000 C 
ATOM     16  N   UNL     1       1.993   4.165  18.082  0.00  0.00    +0.000 NA
ATOM     17  C   UNL     1       2.514   3.196  17.086  0.00  0.00    +0.000 C 
ATOM     18  C   UNL     1       3.796   2.507  17.607  0.00  0.00    +0.000 C 
ATOM     19  C   UNL     1       3.968   2.837  19.108  0.00  0.00    +0.000 C 
ATOM     20  C   UNL     1       4.247   4.355  19.175  0.00  0.00    +0.000 C 
ATOM     21  C   UNL     1       3.045   5.123  18.543  0.00  0.00    +0.000 C 
BRANCH  14  23
ATOM     22  C   UNL     1       1.405   2.744  22.073  0.00  0.00    +0.000 C 
ATOM     23  C   UNL     1       2.760   2.573  21.380  0.00  0.00    +0.000 C 
ENDBRANCH  14  23
ENDBRANCH   1  21
BRANCH   1  24
ATOM     24  O   UNL     1       3.115   7.431  17.738  0.00  0.00    +0.000 OA
ATOM     25  H   UNL     1       3.529   8.046  17.078  0.00  0.00    +0.000 HD
ENDBRANCH   1  24
TORSDOF 5
ENDMDL
MODEL 2
REMARK VINA RESULT:      -6.5      2.177      6.462
REMARK  Name = 
REMARK  7 active torsions:
REMARK  status: ('A' for Active; 'I' for Inactive)
REMARK    1  A    between atoms: C_1  and  C_2
REMARK    2  A    between atoms: C_2  and  C_3
REMARK    3  A    between atoms: C_10  and  C_11
REMARK    4  A    between atoms: C_11  and  O_12
REMARK    5  A    between atoms: C_11  and  C_13
REMARK    6  A    between atoms: C_20  and  O_21
REMARK    7  A    between atoms: O_21  and  C_22
REMARK                            x       y       z     vdW  Elec       q    Type
REMARK                         _______ _______ _______ _____ _____    ______ ____
ROOT
ATOM      1  C   UNL     1       3.894   3.628  17.748  0.00  0.00    +0.000 C 
ENDROOT
BRANCH   1   2
ATOM      2  C   UNL     1       3.027   3.770  19.006  0.00  0.00    +0.000 A 
ATOM      3  C   UNL     1       2.739   2.593  19.729  0.00  0.00    +0.000 A 
ATOM      4  C   UNL     1       1.944   2.633  20.868  0.00  0.00    +0.000 A 
ATOM      5  N   UNL     1       1.422   3.806  21.295  0.00  0.00    +0.000 NA
ATOM      6  C   UNL     1       1.658   4.973  20.645  0.00  0.00    +0.000 A 
ATOM      7  C   UNL     1       1.079   6.143  21.146  0.00  0.00    +0.000 A 
ATOM      8  C   UNL     1       1.299   7.362  20.517  0.00  0.00    +0.000 A 
ATOM      9  C   UNL     1       2.109   7.435  19.371  0.00  0.00    +0.000 A 
ATOM     10  C   UNL     1       2.686   6.261  18.860  0.00  0.00    +0.000 A 
ATOM     11  C   UNL     1       2.474   5.005  19.481  0.00  0.00    +0.000 A 
BRANCH   9  12
ATOM     12  O   UNL     1       2.361   8.611  18.738  0.00  0.00    +0.000 OA
ATOM     13  C   UNL     1       1.475   9.293  17.926  0.00  0.00    +0.000 C 
ENDBRANCH   9  12
ENDBRANCH   1   2
BRANCH   1  21
ATOM     14  C   UNL     1       7.367   6.238  16.842  0.00  0.00    +0.000 C 
ATOM     15  C   UNL     1       7.497   4.695  17.057  0.00  0.00    +0.000 C 
ATOM     16  N   UNL     1       6.205   4.009  16.782  0.00  0.00    +0.000 NA
ATOM     17  C   UNL     1       5.765   4.370  15.411  0.00  0.00    +0.000 C 
ATOM     18  C   UNL     1       5.393   5.869  15.330  0.00  0.00    +0.000 C 
ATOM     19  C   UNL     1       5.866   6.572  16.623  0.00  0.00    +0.000 C 
ATOM     20  C   UNL     1       5.003   5.985  17.761  0.00  0.00    +0.000 C 
ATOM     21  C   UNL     1       5.224   4.441  17.824  0.00  0.00    +0.000 C 
BRANCH  14  23
ATOM     22  C   UNL     1       7.952   8.567  17.742  0.00  0.00    +0.000 C 
ATOM     23  C   UNL     1       8.011   7.057  17.985  0.00  0.00    +0.000 C 
ENDBRANCH  14  23
ENDBRANCH   1  21
BRANCH   1  24
ATOM     24  O   UNL     1       4.155   2.263  17.518  0.00  0.00    +0.000 OA
ATOM     25  H   UNL     1       3.713   1.730  18.228  0.00  0.00    +0.000 HD
ENDBRANCH   1  24
TORSDOF 5
ENDMDL
MODEL 3
REMARK VINA RESULT:      -6.4      4.140      6.430
REMARK  Name = 
REMARK  7 active torsions:
REMARK  status: ('A' for Active; 'I' for Inactive)
REMARK    1  A    between atoms: C_1  and  C_2
REMARK    2  A    between atoms: C_2  and  C_3
REMARK    3  A    between atoms: C_10  and  C_11
REMARK    4  A    between atoms: C_11  and  O_12
REMARK    5  A    between atoms: C_11  and  C_13
REMARK    6  A    between atoms: C_20  and  O_21
REMARK    7  A    between atoms: O_21  and  C_22
REMARK                            x       y       z     vdW  Elec       q    Type
REMARK                         _______ _______ _______ _____ _____    ______ ____
ROOT
ATOM      1  C   UNL     1       1.993   7.906  20.228  0.00  0.00    +0.000 C 
ENDROOT
BRANCH   1   2
ATOM      2  C   UNL     1       2.172   6.424  19.873  0.00  0.00    +0.000 A 
ATOM      3  C   UNL     1       1.315   5.500  20.508  0.00  0.00    +0.000 A 
ATOM      4  C   UNL     1       1.426   4.137  20.257  0.00  0.00    +0.000 A 
ATOM      5  N   UNL     1       2.370   3.675  19.406  0.00  0.00    +0.000 NA
ATOM      6  C   UNL     1       3.226   4.509  18.765  0.00  0.00    +0.000 A 
ATOM      7  C   UNL     1       4.177   3.954  17.904  0.00  0.00    +0.000 A 
ATOM      8  C   UNL     1       5.071   4.770  17.221  0.00  0.00    +0.000 A 
ATOM      9  C   UNL     1       5.027   6.165  17.384  0.00  0.00    +0.000 A 
ATOM     10  C   UNL     1       4.078   6.727  18.255  0.00  0.00    +0.000 A 
ATOM     11  C   UNL     1       3.159   5.915  18.965  0.00  0.00    +0.000 A 
BRANCH   9  12
ATOM     12  O   UNL     1       5.872   6.998  16.722  0.00  0.00    +0.000 OA
ATOM     13  C   UNL     1       7.078   7.470  17.204  0.00  0.00    +0.000 C 
ENDBRANCH   9  12
ENDBRANCH   1   2
BRANCH   1  21
ATOM     14  C   UNL     1      -0.787  10.771  18.290  0.00  0.00    +0.000 C 
ATOM     15  C   UNL     1      -1.098  10.077  19.655  0.00  0.00    +0.000 C 
ATOM     16  N   UNL     1       0.156   9.648  20.332  0.00  0.00    +0.000 NA
ATOM     17  C   UNL     1       1.043  10.831  20.469  0.00  0.00    +0.000 C 
ATOM     18  C   UNL     1       1.536  11.312  19.085  0.00  0.00    +0.000 C 
ATOM     19  C   UNL     1       0.725  10.588  17.985  0.00  0.00    +0.000 C 
ATOM     20  C   UNL     1       1.125   9.099  18.081  0.00  0.00    +0.000 C 
ATOM     21  C   UNL     1       0.778   8.567  19.506  0.00  0.00    +0.000 C 
BRANCH  14  23
ATOM     22  C   UNL     1      -3.055   9.763  17.643  0.00  0.00    +0.000 C 
ATOM     23  C   UNL     1      -1.701  10.275  17.145  0.00  0.00    +0.000 C 
ENDBRANCH  14  23
ENDBRANCH   1  21
BRANCH   1  24
ATOM     24  O   UNL     1       1.877   8.037  21.625  0.00  0.00    +0.000 OA
ATOM     25  H   UNL     1       0.946   7.816  21.889  0.00  0.00    +0.000 HD
ENDBRANCH   1  24
TORSDOF 5
ENDMDL
MODEL 4
REMARK VINA RESULT:      -6.2      4.981      7.137
REMARK  Name = 
REMARK  7 active torsions:
REMARK  status: ('A' for Active; 'I' for Inactive)
REMARK    1  A    between atoms: C_1  and  C_2
REMARK    2  A    between atoms: C_2  and  C_3
REMARK    3  A    between atoms: C_10  and  C_11
REMARK    4  A    between atoms: C_11  and  O_12
REMARK    5  A    between atoms: C_11  and  C_13
REMARK    6  A    between atoms: C_20  and  O_21
REMARK    7  A    between atoms: O_21  and  C_22
REMARK                            x       y       z     vdW  Elec       q    Type
REMARK                         _______ _______ _______ _____ _____    ______ ____
ROOT
ATOM      1  C   UNL     1       2.006   8.647  18.750  0.00  0.00    +0.000 C 
ENDROOT
BRANCH   1   2
ATOM      2  C   UNL     1       1.006   9.579  19.449  0.00  0.00    +0.000 A 
ATOM      3  C   UNL     1       1.317   9.992  20.761  0.00  0.00    +0.000 A 
ATOM      4  C   UNL     1       0.453  10.820  21.470  0.00  0.00    +0.000 A 
ATOM      5  N   UNL     1      -0.708  11.231  20.913  0.00  0.00    +0.000 NA
ATOM      6  C   UNL     1      -1.068  10.869  19.656  0.00  0.00    +0.000 A 
ATOM      7  C   UNL     1      -2.286  11.332  19.152  0.00  0.00    +0.000 A 
ATOM      8  C   UNL     1      -2.692  10.991  17.868  0.00  0.00    +0.000 A 
ATOM      9  C   UNL     1      -1.880  10.179  17.058  0.00  0.00    +0.000 A 
ATOM     10  C   UNL     1      -0.659   9.705  17.563  0.00  0.00    +0.000 A 
ATOM     11  C   UNL     1      -0.225  10.035  18.871  0.00  0.00    +0.000 A 
BRANCH   9  12
ATOM     12  O   UNL     1      -2.235   9.838  15.791  0.00  0.00    +0.000 OA
ATOM     13  C   UNL     1      -3.208  10.459  15.033  0.00  0.00    +0.000 C 
ENDBRANCH   9  12
ENDBRANCH   1   2
BRANCH   1  21
ATOM     14  C   UNL     1       2.130   4.240  19.252  0.00  0.00    +0.000 C 
ATOM     15  C   UNL     1       1.722   4.931  17.911  0.00  0.00    +0.000 C 
ATOM     16  N   UNL     1       2.288   6.305  17.827  0.00  0.00    +0.000 NA
ATOM     17  C   UNL     1       3.758   6.219  18.012  0.00  0.00    +0.000 C 
ATOM     18  C   UNL     1       4.106   5.782  19.454  0.00  0.00    +0.000 C 
ATOM     19  C   UNL     1       2.815   5.302  20.157  0.00  0.00    +0.000 C 
ATOM     20  C   UNL     1       1.923   6.555  20.299  0.00  0.00    +0.000 C 
ATOM     21  C   UNL     1       1.632   7.138  18.881  0.00  0.00    +0.000 C 
BRANCH  14  23
ATOM     22  C   UNL     1       1.337   2.863  21.266  0.00  0.00    +0.000 C 
ATOM     23  C   UNL     1       0.944   3.528  19.944  0.00  0.00    +0.000 C 
ENDBRANCH  14  23
ENDBRANCH   1  21
BRANCH   1  24
ATOM     24  O   UNL     1       2.118   9.019  17.396  0.00  0.00    +0.000 OA
ATOM     25  H   UNL     1       1.837   8.253  16.831  0.00  0.00    +0.000 HD
ENDBRANCH   1  24
TORSDOF 5
ENDMDL
MODEL 5
REMARK VINA RESULT:      -6.2      4.730      7.599
REMARK  Name = 
REMARK  7 active torsions:
REMARK  status: ('A' for Active; 'I' for Inactive)
REMARK    1  A    between atoms: C_1  and  C_2
REMARK    2  A    between atoms: C_2  and  C_3
REMARK    3  A    between atoms: C_10  and  C_11
REMARK    4  A    between atoms: C_11  and  O_12
REMARK    5  A    between atoms: C_11  and  C_13
REMARK    6  A    between atoms: C_20  and  O_21
REMARK    7  A    between atoms: O_21  and  C_22
REMARK                            x       y       z     vdW  Elec       q    Type
REMARK                         _______ _______ _______ _____ _____    ______ ____
ROOT
ATOM      1  C   UNL     1       1.566   7.090  20.138  0.00  0.00    +0.000 C 
ENDROOT
BRANCH   1   2
ATOM      2  C   UNL     1       1.558   8.487  19.501  0.00  0.00    +0.000 A 
ATOM      3  C   UNL     1       2.255   8.646  18.285  0.00  0.00    +0.000 A 
ATOM      4  C   UNL     1       2.314   9.883  17.655  0.00  0.00    +0.000 A 
ATOM      5  N   UNL     1       1.712  10.960  18.208  0.00  0.00    +0.000 NA
ATOM      6  C   UNL     1       1.028  10.876  19.377  0.00  0.00    +0.000 A 
ATOM      7  C   UNL     1       0.437  12.035  19.887  0.00  0.00    +0.000 A 
ATOM      8  C   UNL     1      -0.279  11.995  21.078  0.00  0.00    +0.000 A 
ATOM      9  C   UNL     1      -0.421  10.787  21.782  0.00  0.00    +0.000 A 
ATOM     10  C   UNL     1       0.179   9.622  21.277  0.00  0.00    +0.000 A 
ATOM     11  C   UNL     1       0.917   9.638  20.067  0.00  0.00    +0.000 A 
BRANCH   9  12
ATOM     12  O   UNL     1      -1.126  10.704  22.940  0.00  0.00    +0.000 OA
ATOM     13  C   UNL     1      -2.136  11.563  23.331  0.00  0.00    +0.000 C 
ENDBRANCH   9  12
ENDBRANCH   1   2
BRANCH   1  21
ATOM     14  C   UNL     1       3.290   3.412  18.349  0.00  0.00    +0.000 C 
ATOM     15  C   UNL     1       3.993   4.211  19.494  0.00  0.00    +0.000 C 
ATOM     16  N   UNL     1       3.006   5.009  20.270  0.00  0.00    +0.000 NA
ATOM     17  C   UNL     1       1.947   4.094  20.765  0.00  0.00    +0.000 C 
ATOM     18  C   UNL     1       1.107   3.540  19.591  0.00  0.00    +0.000 C 
ATOM     19  C   UNL     1       1.814   3.890  18.261  0.00  0.00    +0.000 C 
ATOM     20  C   UNL     1       1.743   5.428  18.140  0.00  0.00    +0.000 C 
ATOM     21  C   UNL     1       2.461   6.070  19.368  0.00  0.00    +0.000 C 
BRANCH  14  23
ATOM     22  C   UNL     1       5.184   4.532  17.031  0.00  0.00    +0.000 C 
ATOM     23  C   UNL     1       4.041   3.513  17.001  0.00  0.00    +0.000 C 
ENDBRANCH  14  23
ENDBRANCH   1  21
BRANCH   1  24
ATOM     24  O   UNL     1       1.972   7.196  21.482  0.00  0.00    +0.000 OA
ATOM     25  H   UNL     1       2.740   6.587  21.632  0.00  0.00    +0.000 HD
ENDBRANCH   1  24
TORSDOF 5
ENDMDL
MODEL 6
REMARK VINA RESULT:      -6.2      9.208     12.200
REMARK  Name = 
REMARK  7 active torsions:
REMARK  status: ('A' for Active; 'I' for Inactive)
REMARK    1  A    between atoms: C_1  and  C_2
REMARK    2  A    between atoms: C_2  and  C_3
REMARK    3  A    between atoms: C_10  and  C_11
REMARK    4  A    between atoms: C_11  and  O_12
REMARK    5  A    between atoms: C_11  and  C_13
REMARK    6  A    between atoms: C_20  and  O_21
REMARK    7  A    between atoms: O_21  and  C_22
REMARK                            x       y       z     vdW  Elec       q    Type
REMARK                         _______ _______ _______ _____ _____    ______ ____
ROOT
ATOM      1  C   UNL     1      -2.193  12.465  19.646  0.00  0.00    +0.000 C 
ENDROOT
BRANCH   1   2
ATOM      2  C   UNL     1      -3.540  12.076  19.023  0.00  0.00    +0.000 A 
ATOM      3  C   UNL     1      -3.528  11.630  17.684  0.00  0.00    +0.000 A 
ATOM      4  C   UNL     1      -4.708  11.279  17.040  0.00  0.00    +0.000 A 
ATOM      5  N   UNL     1      -5.892  11.372  17.687  0.00  0.00    +0.000 NA
ATOM      6  C   UNL     1      -5.974  11.795  18.973  0.00  0.00    +0.000 A 
ATOM      7  C   UNL     1      -7.236  11.868  19.570  0.00  0.00    +0.000 A 
ATOM      8  C   UNL     1      -7.367  12.290  20.888  0.00  0.00    +0.000 A 
ATOM      9  C   UNL     1      -6.233  12.644  21.637  0.00  0.00    +0.000 A 
ATOM     10  C   UNL     1      -4.964  12.580  21.038  0.00  0.00    +0.000 A 
ATOM     11  C   UNL     1      -4.804  12.157  19.695  0.00  0.00    +0.000 A 
BRANCH   9  12
ATOM     12  O   UNL     1      -6.319  13.045  22.933  0.00  0.00    +0.000 OA
ATOM     13  C   UNL     1      -7.252  12.605  23.851  0.00  0.00    +0.000 C 
ENDBRANCH   9  12
ENDBRANCH   1   2
BRANCH   1  21
ATOM     14  C   UNL     1       1.495  10.064  19.064  0.00  0.00    +0.000 C 
ATOM     15  C   UNL     1       1.399  11.579  18.691  0.00  0.00    +0.000 C 
ATOM     16  N   UNL     1       0.326  12.253  19.472  0.00  0.00    +0.000 NA
ATOM     17  C   UNL     1       0.583  12.025  20.916  0.00  0.00    +0.000 C 
ATOM     18  C   UNL     1       0.399  10.533  21.278  0.00  0.00    +0.000 C 
ATOM     19  C   UNL     1       0.285   9.712  19.974  0.00  0.00    +0.000 C 
ATOM     20  C   UNL     1      -1.041  10.152  19.315  0.00  0.00    +0.000 C 
ATOM     21  C   UNL     1      -0.986  11.686  19.035  0.00  0.00    +0.000 C 
BRANCH  14  23
ATOM     22  C   UNL     1       2.406   7.871  18.097  0.00  0.00    +0.000 C 
ATOM     23  C   UNL     1       1.608   9.149  17.823  0.00  0.00    +0.000 C 
ENDBRANCH  14  23
ENDBRANCH   1  21
BRANCH   1  24
ATOM     24  O   UNL     1      -2.007  13.855  19.518  0.00  0.00    +0.000 OA
ATOM     25  H   UNL     1      -2.700  14.214  18.904  0.00  0.00    +0.000 HD
ENDBRANCH   1  24
TORSDOF 5
ENDMDL
MODEL 7
REMARK VINA RESULT:      -6.2      2.290      6.525
REMARK  Name = 
REMARK  7 active torsions:
REMARK  status: ('A' for Active; 'I' for Inactive)
REMARK    1  A    between atoms: C_1  and  C_2
REMARK    2  A    between atoms: C_2  and  C_3
REMARK    3  A    between atoms: C_10  and  C_11
REMARK    4  A    between atoms: C_11  and  O_12
REMARK    5  A    between atoms: C_11  and  C_13
REMARK    6  A    between atoms: C_20  and  O_21
REMARK    7  A    between atoms: O_21  and  C_22
REMARK                            x       y       z     vdW  Elec       q    Type
REMARK                         _______ _______ _______ _____ _____    ______ ____
ROOT
ATOM      1  C   UNL     1       4.187   3.278  16.839  0.00  0.00    +0.000 C 
ENDROOT
BRANCH   1   2
ATOM      2  C   UNL     1       3.060   3.266  17.880  0.00  0.00    +0.000 A 
ATOM      3  C   UNL     1       1.805   3.769  17.479  0.00  0.00    +0.000 A 
ATOM      4  C   UNL     1       0.737   3.812  18.368  0.00  0.00    +0.000 A 
ATOM      5  N   UNL     1       0.892   3.382  19.641  0.00  0.00    +0.000 NA
ATOM      6  C   UNL     1       2.073   2.889  20.091  0.00  0.00    +0.000 A 
ATOM      7  C   UNL     1       2.155   2.468  21.422  0.00  0.00    +0.000 A 
ATOM      8  C   UNL     1       3.342   1.950  21.925  0.00  0.00    +0.000 A 
ATOM      9  C   UNL     1       4.475   1.840  21.101  0.00  0.00    +0.000 A 
ATOM     10  C   UNL     1       4.400   2.269  19.765  0.00  0.00    +0.000 A 
ATOM     11  C   UNL     1       3.202   2.804  19.230  0.00  0.00    +0.000 A 
BRANCH   9  12
ATOM     12  O   UNL     1       5.649   1.324  21.551  0.00  0.00    +0.000 OA
ATOM     13  C   UNL     1       5.849   0.021  21.965  0.00  0.00    +0.000 C 
ENDBRANCH   9  12
ENDBRANCH   1   2
BRANCH   1  21
ATOM     14  C   UNL     1       7.204   6.529  17.011  0.00  0.00    +0.000 C 
ATOM     15  C   UNL     1       7.571   5.046  16.681  0.00  0.00    +0.000 C 
ATOM     16  N   UNL     1       6.393   4.314  16.142  0.00  0.00    +0.000 NA
ATOM     17  C   UNL     1       5.874   5.059  14.968  0.00  0.00    +0.000 C 
ATOM     18  C   UNL     1       5.277   6.418  15.400  0.00  0.00    +0.000 C 
ATOM     19  C   UNL     1       5.664   6.691  16.872  0.00  0.00    +0.000 C 
ATOM     20  C   UNL     1       4.925   5.621  17.706  0.00  0.00    +0.000 C 
ATOM     21  C   UNL     1       5.379   4.204  17.236  0.00  0.00    +0.000 C 
BRANCH  14  23
ATOM     22  C   UNL     1       8.085   5.814  19.311  0.00  0.00    +0.000 C 
ATOM     23  C   UNL     1       7.739   6.986  18.388  0.00  0.00    +0.000 C 
ENDBRANCH  14  23
ENDBRANCH   1  21
BRANCH   1  24
ATOM     24  O   UNL     1       4.630   1.959  16.620  0.00  0.00    +0.000 OA
ATOM     25  H   UNL     1       3.877   1.337  16.794  0.00  0.00    +0.000 HD
ENDBRANCH   1  24
TORSDOF 5
ENDMDL
MODEL 8
REMARK VINA RESULT:      -6.1      2.632      6.229
REMARK  Name = 
REMARK  7 active torsions:
REMARK  status: ('A' for Active; 'I' for Inactive)
REMARK    1  A    between atoms: C_1  and  C_2
REMARK    2  A    between atoms: C_2  and  C_3
REMARK    3  A    between atoms: C_10  and  C_11
REMARK    4  A    between atoms: C_11  and  O_12
REMARK    5  A    between atoms: C_11  and  C_13
REMARK    6  A    between atoms: C_20  and  O_21
REMARK    7  A    between atoms: O_21  and  C_22
REMARK                            x       y       z     vdW  Elec       q    Type
REMARK                         _______ _______ _______ _____ _____    ______ ____
ROOT
ATOM      1  C   UNL     1       2.988   4.609  17.386  0.00  0.00    +0.000 C 
ENDROOT
BRANCH   1   2
ATOM      2  C   UNL     1       2.413   5.097  18.722  0.00  0.00    +0.000 A 
ATOM      3  C   UNL     1       2.168   4.124  19.714  0.00  0.00    +0.000 A 
ATOM      4  C   UNL     1       1.629   4.480  20.945  0.00  0.00    +0.000 A 
ATOM      5  N   UNL     1       1.319   5.771  21.204  0.00  0.00    +0.000 NA
ATOM      6  C   UNL     1       1.526   6.755  20.294  0.00  0.00    +0.000 A 
ATOM      7  C   UNL     1       1.174   8.064  20.637  0.00  0.00    +0.000 A 
ATOM      8  C   UNL     1       1.375   9.105  19.738  0.00  0.00    +0.000 A 
ATOM      9  C   UNL     1       1.939   8.855  18.475  0.00  0.00    +0.000 A 
ATOM     10  C   UNL     1       2.286   7.540  18.124  0.00  0.00    +0.000 A 
ATOM     11  C   UNL     1       2.087   6.461  19.021  0.00  0.00    +0.000 A 
BRANCH   9  12
ATOM     12  O   UNL     1       2.166   9.848  17.576  0.00  0.00    +0.000 OA
ATOM     13  C   UNL     1       2.284  11.192  17.874  0.00  0.00    +0.000 C 
ENDBRANCH   9  12
ENDBRANCH   1   2
BRANCH   1  21
ATOM     14  C   UNL     1       7.369   5.247  17.081  0.00  0.00    +0.000 C 
ATOM     15  C   UNL     1       6.587   4.266  16.149  0.00  0.00    +0.000 C 
ATOM     16  N   UNL     1       5.150   4.645  16.064  0.00  0.00    +0.000 NA
ATOM     17  C   UNL     1       5.062   6.059  15.623  0.00  0.00    +0.000 C 
ATOM     18  C   UNL     1       5.614   7.009  16.711  0.00  0.00    +0.000 C 
ATOM     19  C   UNL     1       6.338   6.170  17.789  0.00  0.00    +0.000 C 
ATOM     20  C   UNL     1       5.239   5.332  18.479  0.00  0.00    +0.000 C 
ATOM     21  C   UNL     1       4.538   4.433  17.412  0.00  0.00    +0.000 C 
BRANCH  14  23
ATOM     22  C   UNL     1       8.397   5.209  19.430  0.00  0.00    +0.000 C 
ATOM     23  C   UNL     1       8.307   4.515  18.068  0.00  0.00    +0.000 C 
ENDBRANCH  14  23
ENDBRANCH   1  21
BRANCH   1  24
ATOM     24  O   UNL     1       2.355   3.404  17.022  0.00  0.00    +0.000 OA
ATOM     25  H   UNL     1       2.808   2.653  17.485  0.00  0.00    +0.000 HD
ENDBRANCH   1  24
TORSDOF 5
ENDMDL
MODEL 9
REMARK VINA RESULT:      -6.1      2.334      6.704
REMARK  Name = 
REMARK  7 active torsions:
REMARK  status: ('A' for Active; 'I' for Inactive)
REMARK    1  A    between atoms: C_1  and  C_2
REMARK    2  A    between atoms: C_2  and  C_3
REMARK    3  A    between atoms: C_10  and  C_11
REMARK    4  A    between atoms: C_11  and  O_12
REMARK    5  A    between atoms: C_11  and  C_13
REMARK    6  A    between atoms: C_20  and  O_21
REMARK    7  A    between atoms: O_21  and  C_22
REMARK                            x       y       z     vdW  Elec       q    Type
REMARK                         _______ _______ _______ _____ _____    ______ ____
ROOT
ATOM      1  C   UNL     1       4.479   4.531  17.987  0.00  0.00    +0.000 C 
ENDROOT
BRANCH   1   2
ATOM      2  C   UNL     1       3.513   4.446  19.177  0.00  0.00    +0.000 A 
ATOM      3  C   UNL     1       3.392   3.198  19.823  0.00  0.00    +0.000 A 
ATOM      4  C   UNL     1       2.524   3.032  20.896  0.00  0.00    +0.000 A 
ATOM      5  N   UNL     1       1.770   4.068  21.328  0.00  0.00    +0.000 NA
ATOM      6  C   UNL     1       1.835   5.293  20.750  0.00  0.00    +0.000 A 
ATOM      7  C   UNL     1       1.020   6.311  21.252  0.00  0.00    +0.000 A 
ATOM      8  C   UNL     1       1.059   7.583  20.695  0.00  0.00    +0.000 A 
ATOM      9  C   UNL     1       1.922   7.864  19.622  0.00  0.00    +0.000 A 
ATOM     10  C   UNL     1       2.737   6.841  19.109  0.00  0.00    +0.000 A 
ATOM     11  C   UNL     1       2.713   5.535  19.657  0.00  0.00    +0.000 A 
BRANCH   9  12
ATOM     12  O   UNL     1       2.001   9.099  19.061  0.00  0.00    +0.000 OA
ATOM     13  C   UNL     1       1.906   9.377  17.711  0.00  0.00    +0.000 C 
ENDBRANCH   9  12
ENDBRANCH   1   2
BRANCH   1  21
ATOM     14  C   UNL     1       7.914   7.282  17.418  0.00  0.00    +0.000 C 
ATOM     15  C   UNL     1       7.758   6.367  18.675  0.00  0.00    +0.000 C 
ATOM     16  N   UNL     1       6.893   5.193  18.374  0.00  0.00    +0.000 NA
ATOM     17  C   UNL     1       7.461   4.480  17.203  0.00  0.00    +0.000 C 
ATOM     18  C   UNL     1       7.343   5.341  15.925  0.00  0.00    +0.000 C 
ATOM     19  C   UNL     1       6.932   6.777  16.325  0.00  0.00    +0.000 C 
ATOM     20  C   UNL     1       5.498   6.661  16.889  0.00  0.00    +0.000 C 
ATOM     21  C   UNL     1       5.509   5.695  18.115  0.00  0.00    +0.000 C 
BRANCH  14  23
ATOM     22  C   UNL     1       8.811   9.315  18.699  0.00  0.00    +0.000 C 
ATOM     23  C   UNL     1       7.738   8.783  17.745  0.00  0.00    +0.000 C 
ENDBRANCH  14  23
ENDBRANCH   1  21
BRANCH   1  24
ATOM     24  O   UNL     1       5.137   3.295  17.836  0.00  0.00    +0.000 OA
ATOM     25  H   UNL     1       5.343   2.931  18.737  0.00  0.00    +0.000 HD
ENDBRANCH   1  24
TORSDOF 5
ENDMDL
