MODEL 1
REMARK VINA RESULT:      -5.3      0.000      0.000
REMARK  Name = 
REMARK  5 active torsions:
REMARK  status: ('A' for Active; 'I' for Inactive)
REMARK    1  A    between atoms: C_1  and  S_2
REMARK    2  A    between atoms: S_2  and  C_3
REMARK    3  A    between atoms: C_3  and  C_5
REMARK    4  A    between atoms: C_6  and  O_7
REMARK    5  A    between atoms: C_6  and  C_8
REMARK                            x       y       z     vdW  Elec       q    Type
REMARK                         _______ _______ _______ _____ _____    ______ ____
ROOT
ATOM      1  C   UNL     1       3.674   4.646  18.982  0.00  0.00    +0.000 C 
ATOM      2  C   UNL     1       4.933   4.190  19.136  0.00  0.00    +0.000 C 
ENDROOT
BRANCH   2   3
ATOM      3  C   UNL     1       6.046   5.059  18.902  0.00  0.00    +0.000 A 
ATOM      4  C   UNL     1       6.300   5.887  17.812  0.00  0.00    +0.000 A 
ATOM      5  C   UNL     1       7.517   6.568  18.043  0.00  0.00    +0.000 A 
ATOM      6  C   UNL     1       7.965   6.123  19.259  0.00  0.00    +0.000 A 
ATOM      7  O   UNL     1       7.100   5.223  19.783  0.00  0.00    +0.000 OA
ENDBRANCH   2   3
BRANCH   1   8
ATOM      8  C   UNL     1       2.402   3.885  19.172  0.00  0.00    +0.000 C 
ATOM      9  S   UNL     1       1.801   2.652  18.198  0.00  0.00    +0.000 S 
BRANCH   8  11
ATOM     10  C   UNL     1       1.859   2.933  21.707  0.00  0.00    +0.000 C 
ATOM     11  S   UNL     1       1.570   4.377  20.657  0.00  0.00    +0.000 S 
ENDBRANCH   8  11
ENDBRANCH   1   8
BRANCH   2  12
ATOM     12  O   UNL     1       5.287   2.913  19.508  0.00  0.00    +0.000 OA
ATOM     13  H   UNL     1       6.214   2.754  19.252  0.00  0.00    +0.000 HD
ENDBRANCH   2  12
TORSDOF 4
ENDMDL
MODEL 2
REMARK VINA RESULT:      -5.1      2.777      5.272
REMARK  Name = 
REMARK  5 active torsions:
REMARK  status: ('A' for Active; 'I' for Inactive)
REMARK    1  A    between atoms: C_1  and  S_2
REMARK    2  A    between atoms: S_2  and  C_3
REMARK    3  A    between atoms: C_3  and  C_5
REMARK    4  A    between atoms: C_6  and  O_7
REMARK    5  A    between atoms: C_6  and  C_8
REMARK                            x       y       z     vdW  Elec       q    Type
REMARK                         _______ _______ _______ _____ _____    ______ ____
ROOT
ATOM      1  C   UNL     1       4.984   4.891  18.884  0.00  0.00    +0.000 C 
ATOM      2  C   UNL     1       4.509   3.748  19.415  0.00  0.00    +0.000 C 
ENDROOT
BRANCH   2   3
ATOM      3  C   UNL     1       3.168   3.687  19.911  0.00  0.00    +0.000 A 
ATOM      4  C   UNL     1       2.175   4.664  19.882  0.00  0.00    +0.000 A 
ATOM      5  C   UNL     1       1.009   4.131  20.477  0.00  0.00    +0.000 A 
ATOM      6  C   UNL     1       1.335   2.855  20.855  0.00  0.00    +0.000 A 
ATOM      7  O   UNL     1       2.618   2.576  20.525  0.00  0.00    +0.000 OA
ENDBRANCH   2   3
BRANCH   1   8
ATOM      8  C   UNL     1       6.349   5.139  18.330  0.00  0.00    +0.000 C 
ATOM      9  S   UNL     1       7.679   5.763  19.150  0.00  0.00    +0.000 S 
BRANCH   8  11
ATOM     10  C   UNL     1       5.364   5.780  15.830  0.00  0.00    +0.000 C 
ATOM     11  S   UNL     1       6.471   4.605  16.645  0.00  0.00    +0.000 S 
ENDBRANCH   8  11
ENDBRANCH   1   8
BRANCH   2  12
ATOM     12  O   UNL     1       5.208   2.570  19.546  0.00  0.00    +0.000 OA
ATOM     13  H   UNL     1       4.632   1.828  19.287  0.00  0.00    +0.000 HD
ENDBRANCH   2  12
TORSDOF 4
ENDMDL
MODEL 3
REMARK VINA RESULT:      -5.1      2.773      5.212
REMARK  Name = 
REMARK  5 active torsions:
REMARK  status: ('A' for Active; 'I' for Inactive)
REMARK    1  A    between atoms: C_1  and  S_2
REMARK    2  A    between atoms: S_2  and  C_3
REMARK    3  A    between atoms: C_3  and  C_5
REMARK    4  A    between atoms: C_6  and  O_7
REMARK    5  A    between atoms: C_6  and  C_8
REMARK                            x       y       z     vdW  Elec       q    Type
REMARK                         _______ _______ _______ _____ _____    ______ ____
ROOT
ATOM      1  C   UNL     1       4.940   4.759  18.384  0.00  0.00    +0.000 C 
ATOM      2  C   UNL     1       4.536   3.744  19.172  0.00  0.00    +0.000 C 
ENDROOT
BRANCH   2   3
ATOM      3  C   UNL     1       3.224   3.756  19.745  0.00  0.00    +0.000 A 
ATOM      4  C   UNL     1       2.394   4.841  20.017  0.00  0.00    +0.000 A 
ATOM      5  C   UNL     1       1.186   4.351  20.564  0.00  0.00    +0.000 A 
ATOM      6  C   UNL     1       1.327   2.990  20.614  0.00  0.00    +0.000 A 
ATOM      7  O   UNL     1       2.536   2.620  20.130  0.00  0.00    +0.000 OA
ENDBRANCH   2   3
BRANCH   1   8
ATOM      8  C   UNL     1       6.266   4.919  17.714  0.00  0.00    +0.000 C 
ATOM      9  S   UNL     1       6.685   4.426  16.161  0.00  0.00    +0.000 S 
BRANCH   8  11
ATOM     10  C   UNL     1       7.644   7.312  17.772  0.00  0.00    +0.000 C 
ATOM     11  S   UNL     1       7.408   5.803  18.741  0.00  0.00    +0.000 S 
ENDBRANCH   8  11
ENDBRANCH   1   8
BRANCH   2  12
ATOM     12  O   UNL     1       5.285   2.641  19.512  0.00  0.00    +0.000 OA
ATOM     13  H   UNL     1       6.113   2.937  19.932  0.00  0.00    +0.000 HD
ENDBRANCH   2  12
TORSDOF 4
ENDMDL
MODEL 4
REMARK VINA RESULT:      -5.1      2.620      5.095
REMARK  Name = 
REMARK  5 active torsions:
REMARK  status: ('A' for Active; 'I' for Inactive)
REMARK    1  A    between atoms: C_1  and  S_2
REMARK    2  A    between atoms: S_2  and  C_3
REMARK    3  A    between atoms: C_3  and  C_5
REMARK    4  A    between atoms: C_6  and  O_7
REMARK    5  A    between atoms: C_6  and  C_8
REMARK                            x       y       z     vdW  Elec       q    Type
REMARK                         _______ _______ _______ _____ _____    ______ ____
ROOT
ATOM      1  C   UNL     1       4.155   4.587  17.539  0.00  0.00    +0.000 C 
ATOM      2  C   UNL     1       4.214   3.833  18.654  0.00  0.00    +0.000 C 
ENDROOT
BRANCH   2   3
ATOM      3  C   UNL     1       3.029   3.582  19.416  0.00  0.00    +0.000 A 
ATOM      4  C   UNL     1       1.714   3.950  19.142  0.00  0.00    +0.000 A 
ATOM      5  C   UNL     1       0.888   3.458  20.179  0.00  0.00    +0.000 A 
ATOM      6  C   UNL     1       1.730   2.818  21.050  0.00  0.00    +0.000 A 
ATOM      7  O   UNL     1       3.008   2.883  20.610  0.00  0.00    +0.000 OA
ENDBRANCH   2   3
BRANCH   1   8
ATOM      8  C   UNL     1       5.283   4.959  16.631  0.00  0.00    +0.000 C 
ATOM      9  S   UNL     1       5.953   4.019  15.407  0.00  0.00    +0.000 S 
BRANCH   8  11
ATOM     10  C   UNL     1       7.333   6.316  17.889  0.00  0.00    +0.000 C 
ATOM     11  S   UNL     1       5.832   6.617  16.927  0.00  0.00    +0.000 S 
ENDBRANCH   8  11
ENDBRANCH   1   8
BRANCH   2  12
ATOM     12  O   UNL     1       5.348   3.252  19.174  0.00  0.00    +0.000 OA
ATOM     13  H   UNL     1       5.507   2.404  18.720  0.00  0.00    +0.000 HD
ENDBRANCH   2  12
TORSDOF 4
ENDMDL
MODEL 5
REMARK VINA RESULT:      -5.1      2.858      5.352
REMARK  Name = 
REMARK  5 active torsions:
REMARK  status: ('A' for Active; 'I' for Inactive)
REMARK    1  A    between atoms: C_1  and  S_2
REMARK    2  A    between atoms: S_2  and  C_3
REMARK    3  A    between atoms: C_3  and  C_5
REMARK    4  A    between atoms: C_6  and  O_7
REMARK    5  A    between atoms: C_6  and  C_8
REMARK                            x       y       z     vdW  Elec       q    Type
REMARK                         _______ _______ _______ _____ _____    ______ ____
ROOT
ATOM      1  C   UNL     1       4.322   4.812  17.921  0.00  0.00    +0.000 C 
ATOM      2  C   UNL     1       4.326   3.927  18.937  0.00  0.00    +0.000 C 
ENDROOT
BRANCH   2   3
ATOM      3  C   UNL     1       3.134   3.695  19.695  0.00  0.00    +0.000 A 
ATOM      4  C   UNL     1       1.853   4.206  19.495  0.00  0.00    +0.000 A 
ATOM      5  C   UNL     1       1.002   3.674  20.491  0.00  0.00    +0.000 A 
ATOM      6  C   UNL     1       1.794   2.868  21.264  0.00  0.00    +0.000 A 
ATOM      7  O   UNL     1       3.067   2.870  20.803  0.00  0.00    +0.000 OA
ENDBRANCH   2   3
BRANCH   1   8
ATOM      8  C   UNL     1       5.466   5.185  17.036  0.00  0.00    +0.000 C 
ATOM      9  S   UNL     1       6.487   6.511  17.202  0.00  0.00    +0.000 S 
BRANCH   8  11
ATOM     10  C   UNL     1       6.966   4.808  14.747  0.00  0.00    +0.000 C 
ATOM     11  S   UNL     1       5.716   3.982  15.759  0.00  0.00    +0.000 S 
ENDBRANCH   8  11
ENDBRANCH   1   8
BRANCH   2  12
ATOM     12  O   UNL     1       5.407   3.184  19.354  0.00  0.00    +0.000 OA
ATOM     13  H   UNL     1       6.223   3.587  19.003  0.00  0.00    +0.000 HD
ENDBRANCH   2  12
TORSDOF 4
ENDMDL
MODEL 6
REMARK VINA RESULT:      -5.1      2.881      5.294
REMARK  Name = 
REMARK  5 active torsions:
REMARK  status: ('A' for Active; 'I' for Inactive)
REMARK    1  A    between atoms: C_1  and  S_2
REMARK    2  A    between atoms: S_2  and  C_3
REMARK    3  A    between atoms: C_3  and  C_5
REMARK    4  A    between atoms: C_6  and  O_7
REMARK    5  A    between atoms: C_6  and  C_8
REMARK                            x       y       z     vdW  Elec       q    Type
REMARK                         _______ _______ _______ _____ _____    ______ ____
ROOT
ATOM      1  C   UNL     1       5.036   4.923  18.760  0.00  0.00    +0.000 C 
ATOM      2  C   UNL     1       4.540   3.794  19.305  0.00  0.00    +0.000 C 
ENDROOT
BRANCH   2   3
ATOM      3  C   UNL     1       3.184   3.750  19.759  0.00  0.00    +0.000 A 
ATOM      4  C   UNL     1       2.333   2.654  19.880  0.00  0.00    +0.000 A 
ATOM      5  C   UNL     1       1.095   3.105  20.392  0.00  0.00    +0.000 A 
ATOM      6  C   UNL     1       1.233   4.458  20.555  0.00  0.00    +0.000 A 
ATOM      7  O   UNL     1       2.471   4.858  20.181  0.00  0.00    +0.000 OA
ENDBRANCH   2   3
BRANCH   1   8
ATOM      8  C   UNL     1       6.419   5.153  18.244  0.00  0.00    +0.000 C 
ATOM      9  S   UNL     1       7.724   5.795  19.090  0.00  0.00    +0.000 S 
BRANCH   8  11
ATOM     10  C   UNL     1       5.443   5.669  15.712  0.00  0.00    +0.000 C 
ATOM     11  S   UNL     1       6.594   4.575  16.578  0.00  0.00    +0.000 S 
ENDBRANCH   8  11
ENDBRANCH   1   8
BRANCH   2  12
ATOM     12  O   UNL     1       5.231   2.618  19.488  0.00  0.00    +0.000 OA
ATOM     13  H   UNL     1       5.081   2.038  18.719  0.00  0.00    +0.000 HD
ENDBRANCH   2  12
TORSDOF 4
ENDMDL
MODEL 7
REMARK VINA RESULT:      -5.0      2.977      5.138
REMARK  Name = 
REMARK  5 active torsions:
REMARK  status: ('A' for Active; 'I' for Inactive)
REMARK    1  A    between atoms: C_1  and  S_2
REMARK    2  A    between atoms: S_2  and  C_3
REMARK    3  A    between atoms: C_3  and  C_5
REMARK    4  A    between atoms: C_6  and  O_7
REMARK    5  A    between atoms: C_6  and  C_8
REMARK                            x       y       z     vdW  Elec       q    Type
REMARK                         _______ _______ _______ _____ _____    ______ ____
ROOT
ATOM      1  C   UNL     1       4.723   4.354  18.011  0.00  0.00    +0.000 C 
ATOM      2  C   UNL     1       4.037   3.260  18.396  0.00  0.00    +0.000 C 
ENDROOT
BRANCH   2   3
ATOM      3  C   UNL     1       3.044   3.359  19.423  0.00  0.00    +0.000 A 
ATOM      4  C   UNL     1       1.791   3.965  19.377  0.00  0.00    +0.000 A 
ATOM      5  C   UNL     1       1.164   3.786  20.632  0.00  0.00    +0.000 A 
ATOM      6  C   UNL     1       2.060   3.087  21.397  0.00  0.00    +0.000 A 
ATOM      7  O   UNL     1       3.185   2.826  20.691  0.00  0.00    +0.000 OA
ENDBRANCH   2   3
BRANCH   1   8
ATOM      8  C   UNL     1       5.793   4.436  16.970  0.00  0.00    +0.000 C 
ATOM      9  S   UNL     1       5.600   4.322  15.304  0.00  0.00    +0.000 S 
BRANCH   8  11
ATOM     10  C   UNL     1       7.348   6.575  17.770  0.00  0.00    +0.000 C 
ATOM     11  S   UNL     1       7.376   4.768  17.695  0.00  0.00    +0.000 S 
ENDBRANCH   8  11
ENDBRANCH   1   8
BRANCH   2  12
ATOM     12  O   UNL     1       4.195   1.990  17.891  0.00  0.00    +0.000 OA
ATOM     13  H   UNL     1       4.082   1.345  18.612  0.00  0.00    +0.000 HD
ENDBRANCH   2  12
TORSDOF 4
ENDMDL
MODEL 8
REMARK VINA RESULT:      -5.0      2.793      5.245
REMARK  Name = 
REMARK  5 active torsions:
REMARK  status: ('A' for Active; 'I' for Inactive)
REMARK    1  A    between atoms: C_1  and  S_2
REMARK    2  A    between atoms: S_2  and  C_3
REMARK    3  A    between atoms: C_3  and  C_5
REMARK    4  A    between atoms: C_6  and  O_7
REMARK    5  A    between atoms: C_6  and  C_8
REMARK                            x       y       z     vdW  Elec       q    Type
REMARK                         _______ _______ _______ _____ _____    ______ ____
ROOT
ATOM      1  C   UNL     1       4.330   4.613  17.359  0.00  0.00    +0.000 C 
ATOM      2  C   UNL     1       4.231   3.840  18.458  0.00  0.00    +0.000 C 
ENDROOT
BRANCH   2   3
ATOM      3  C   UNL     1       2.950   3.579  19.041  0.00  0.00    +0.000 A 
ATOM      4  C   UNL     1       2.403   4.078  20.220  0.00  0.00    +0.000 A 
ATOM      5  C   UNL     1       1.101   3.547  20.368  0.00  0.00    +0.000 A 
ATOM      6  C   UNL     1       0.906   2.738  19.280  0.00  0.00    +0.000 A 
ATOM      7  O   UNL     1       1.999   2.745  18.481  0.00  0.00    +0.000 OA
ENDBRANCH   2   3
BRANCH   1   8
ATOM      8  C   UNL     1       5.575   4.997  16.627  0.00  0.00    +0.000 C 
ATOM      9  S   UNL     1       6.287   4.183  15.338  0.00  0.00    +0.000 S 
BRANCH   8  11
ATOM     10  C   UNL     1       7.514   5.940  18.354  0.00  0.00    +0.000 C 
ATOM     11  S   UNL     1       6.231   6.531  17.225  0.00  0.00    +0.000 S 
ENDBRANCH   8  11
ENDBRANCH   1   8
BRANCH   2  12
ATOM     12  O   UNL     1       5.280   3.246  19.123  0.00  0.00    +0.000 OA
ATOM     13  H   UNL     1       4.927   2.703  19.851  0.00  0.00    +0.000 HD
ENDBRANCH   2  12
TORSDOF 4
ENDMDL
MODEL 9
REMARK VINA RESULT:      -5.0      1.205      1.958
REMARK  Name = 
REMARK  5 active torsions:
REMARK  status: ('A' for Active; 'I' for Inactive)
REMARK    1  A    between atoms: C_1  and  S_2
REMARK    2  A    between atoms: S_2  and  C_3
REMARK    3  A    between atoms: C_3  and  C_5
REMARK    4  A    between atoms: C_6  and  O_7
REMARK    5  A    between atoms: C_6  and  C_8
REMARK                            x       y       z     vdW  Elec       q    Type
REMARK                         _______ _______ _______ _____ _____    ______ ____
ROOT
ATOM      1  C   UNL     1       3.907   5.028  19.113  0.00  0.00    +0.000 C 
ATOM      2  C   UNL     1       5.192   4.646  18.970  0.00  0.00    +0.000 C 
ENDROOT
BRANCH   2   3
ATOM      3  C   UNL     1       6.190   5.604  18.602  0.00  0.00    +0.000 A 
ATOM      4  C   UNL     1       7.444   5.826  19.166  0.00  0.00    +0.000 A 
ATOM      5  C   UNL     1       8.077   6.866  18.448  0.00  0.00    +0.000 A 
ATOM      6  C   UNL     1       7.184   7.245  17.480  0.00  0.00    +0.000 A 
ATOM      7  O   UNL     1       6.055   6.503  17.560  0.00  0.00    +0.000 OA
ENDBRANCH   2   3
BRANCH   1   8
ATOM      8  C   UNL     1       2.739   4.171  19.480  0.00  0.00    +0.000 C 
ATOM      9  S   UNL     1       2.000   4.053  20.986  0.00  0.00    +0.000 S 
BRANCH   8  11
ATOM     10  C   UNL     1       0.720   2.408  18.812  0.00  0.00    +0.000 C 
ATOM     11  S   UNL     1       2.112   3.295  18.073  0.00  0.00    +0.000 S 
ENDBRANCH   8  11
ENDBRANCH   1   8
BRANCH   2  12
ATOM     12  O   UNL     1       5.676   3.369  19.141  0.00  0.00    +0.000 OA
ATOM     13  H   UNL     1       5.005   2.835  19.603  0.00  0.00    +0.000 HD
ENDBRANCH   2  12
TORSDOF 4
ENDMDL
