MODEL 1
REMARK VINA RESULT:      -8.0      0.000      0.000
REMARK  Name = 
REMARK  7 active torsions:
REMARK  status: ('A' for Active; 'I' for Inactive)
REMARK    1  A    between atoms: C_1  and  C_2
REMARK    2  A    between atoms: C_2  and  C_3
REMARK    3  A    between atoms: C_3  and  C_4
REMARK    4  A    between atoms: C_3  and  N_5
REMARK    5  A    between atoms: C_6  and  C_8
REMARK    6  A    between atoms: C_8  and  S_9
REMARK    7  A    between atoms: S_9  and  C_10
REMARK                            x       y       z     vdW  Elec       q    Type
REMARK                         _______ _______ _______ _____ _____    ______ ____
ROOT
ATOM      1  C   UNL     1       4.938   4.442  18.143  0.00  0.00    +0.000 A 
ATOM      2  N   UNL     1       3.723   4.862  18.251  0.00  0.00    +0.000 NA
ATOM      3  C   UNL     1       2.908   4.226  19.211  0.00  0.00    +0.000 A 
ATOM      4  C   UNL     1       1.591   4.660  19.386  0.00  0.00    +0.000 A 
ATOM      5  C   UNL     1       0.759   4.050  20.333  0.00  0.00    +0.000 A 
ATOM      6  C   UNL     1       1.232   2.997  21.116  0.00  0.00    +0.000 A 
ATOM      7  C   UNL     1       2.543   2.550  20.955  0.00  0.00    +0.000 A 
ATOM      8  C   UNL     1       3.365   3.171  20.008  0.00  0.00    +0.000 A 
ATOM      9  C   UNL     1       4.759   2.733  19.820  0.00  0.00    +0.000 A 
ATOM     10  O   UNL     1       5.249   1.814  20.464  0.00  0.00    +0.000 OA
ATOM     11  N   UNL     1       5.469   3.430  18.882  0.00  0.00    +0.000 N 
ATOM     12  H   UNL     1       6.431   3.165  18.735  0.00  0.00    +0.000 HD
ENDROOT
BRANCH   1  13
ATOM     13  S   UNL     1       6.106   5.086  17.033  0.00  0.00    +0.000 S 
BRANCH  13  14
ATOM     14  C   UNL     1       6.406   3.651  15.963  0.00  0.00    +0.000 C 
BRANCH  14  16
ATOM     15  N   UNL     1       5.983   3.178  13.595  0.00  0.00    +0.000 N 
ATOM     16  C   UNL     1       6.480   4.092  14.507  0.00  0.00    +0.000 C 
ATOM     17  O   UNL     1       6.896   5.203  14.185  0.00  0.00    +0.000 OA
ATOM     18  H   UNL     1       5.860   2.224  13.914  0.00  0.00    +0.000 HD
BRANCH  15  19
ATOM     19  C   UNL     1       6.002   3.429  12.158  0.00  0.00    +0.000 C 
ATOM     20  C   UNL     1       4.589   3.342  11.587  0.00  0.00    +0.000 C 
BRANCH  19  22
ATOM     21  C   UNL     1       6.455   1.126  11.074  0.00  0.00    +0.000 C 
ATOM     22  C   UNL     1       6.994   2.509  11.421  0.00  0.00    +0.000 C 
ENDBRANCH  19  22
ENDBRANCH  15  19
ENDBRANCH  14  16
ENDBRANCH  13  14
ENDBRANCH   1  13
TORSDOF 5
ENDMDL
MODEL 2
REMARK VINA RESULT:      -8.0      1.685      2.055
REMARK  Name = 
REMARK  7 active torsions:
REMARK  status: ('A' for Active; 'I' for Inactive)
REMARK    1  A    between atoms: C_1  and  C_2
REMARK    2  A    between atoms: C_2  and  C_3
REMARK    3  A    between atoms: C_3  and  C_4
REMARK    4  A    between atoms: C_3  and  N_5
REMARK    5  A    between atoms: C_6  and  C_8
REMARK    6  A    between atoms: C_8  and  S_9
REMARK    7  A    between atoms: S_9  and  C_10
REMARK                            x       y       z     vdW  Elec       q    Type
REMARK                         _______ _______ _______ _____ _____    ______ ____
ROOT
ATOM      1  C   UNL     1       5.408   4.846  18.846  0.00  0.00    +0.000 A 
ATOM      2  N   UNL     1       4.286   5.177  18.302  0.00  0.00    +0.000 NA
ATOM      3  C   UNL     1       3.216   4.268  18.437  0.00  0.00    +0.000 A 
ATOM      4  C   UNL     1       1.971   4.588  17.888  0.00  0.00    +0.000 A 
ATOM      5  C   UNL     1       0.890   3.707  18.008  0.00  0.00    +0.000 A 
ATOM      6  C   UNL     1       1.040   2.491  18.675  0.00  0.00    +0.000 A 
ATOM      7  C   UNL     1       2.274   2.153  19.228  0.00  0.00    +0.000 A 
ATOM      8  C   UNL     1       3.345   3.045  19.105  0.00  0.00    +0.000 A 
ATOM      9  C   UNL     1       4.660   2.727  19.688  0.00  0.00    +0.000 A 
ATOM     10  O   UNL     1       4.875   1.679  20.285  0.00  0.00    +0.000 OA
ATOM     11  N   UNL     1       5.621   3.684  19.522  0.00  0.00    +0.000 N 
ATOM     12  H   UNL     1       6.531   3.505  19.918  0.00  0.00    +0.000 HD
ENDROOT
BRANCH   1  13
ATOM     13  S   UNL     1       6.845   5.819  18.804  0.00  0.00    +0.000 S 
BRANCH  13  14
ATOM     14  C   UNL     1       6.805   6.437  17.099  0.00  0.00    +0.000 C 
BRANCH  14  16
ATOM     15  N   UNL     1       6.726   5.496  14.836  0.00  0.00    +0.000 N 
ATOM     16  C   UNL     1       7.185   5.325  16.130  0.00  0.00    +0.000 C 
ATOM     17  O   UNL     1       7.897   4.383  16.470  0.00  0.00    +0.000 OA
ATOM     18  H   UNL     1       5.984   6.171  14.692  0.00  0.00    +0.000 HD
BRANCH  15  19
ATOM     19  C   UNL     1       6.977   4.512  13.789  0.00  0.00    +0.000 C 
ATOM     20  C   UNL     1       7.700   5.163  12.612  0.00  0.00    +0.000 C 
BRANCH  19  22
ATOM     21  C   UNL     1       5.762   3.095  12.000  0.00  0.00    +0.000 C 
ATOM     22  C   UNL     1       5.692   3.780  13.360  0.00  0.00    +0.000 C 
ENDBRANCH  19  22
ENDBRANCH  15  19
ENDBRANCH  14  16
ENDBRANCH  13  14
ENDBRANCH   1  13
TORSDOF 5
ENDMDL
MODEL 3
REMARK VINA RESULT:      -7.9      1.755      2.097
REMARK  Name = 
REMARK  7 active torsions:
REMARK  status: ('A' for Active; 'I' for Inactive)
REMARK    1  A    between atoms: C_1  and  C_2
REMARK    2  A    between atoms: C_2  and  C_3
REMARK    3  A    between atoms: C_3  and  C_4
REMARK    4  A    between atoms: C_3  and  N_5
REMARK    5  A    between atoms: C_6  and  C_8
REMARK    6  A    between atoms: C_8  and  S_9
REMARK    7  A    between atoms: S_9  and  C_10
REMARK                            x       y       z     vdW  Elec       q    Type
REMARK                         _______ _______ _______ _____ _____    ______ ____
ROOT
ATOM      1  C   UNL     1       5.288   4.860  19.044  0.00  0.00    +0.000 A 
ATOM      2  N   UNL     1       4.295   5.362  19.698  0.00  0.00    +0.000 NA
ATOM      3  C   UNL     1       3.106   4.606  19.736  0.00  0.00    +0.000 A 
ATOM      4  C   UNL     1       2.008   5.093  20.451  0.00  0.00    +0.000 A 
ATOM      5  C   UNL     1       0.814   4.364  20.511  0.00  0.00    +0.000 A 
ATOM      6  C   UNL     1       0.701   3.139  19.852  0.00  0.00    +0.000 A 
ATOM      7  C   UNL     1       1.785   2.638  19.133  0.00  0.00    +0.000 A 
ATOM      8  C   UNL     1       2.973   3.374  19.086  0.00  0.00    +0.000 A 
ATOM      9  C   UNL     1       4.143   2.869  18.346  0.00  0.00    +0.000 A 
ATOM     10  O   UNL     1       4.123   1.806  17.739  0.00  0.00    +0.000 OA
ATOM     11  N   UNL     1       5.252   3.666  18.391  0.00  0.00    +0.000 N 
ATOM     12  H   UNL     1       6.076   3.346  17.905  0.00  0.00    +0.000 HD
ENDROOT
BRANCH   1  13
ATOM     13  S   UNL     1       6.840   5.619  18.875  0.00  0.00    +0.000 S 
BRANCH  13  14
ATOM     14  C   UNL     1       6.722   6.296  17.197  0.00  0.00    +0.000 C 
BRANCH  14  16
ATOM     15  N   UNL     1       6.739   5.498  14.879  0.00  0.00    +0.000 N 
ATOM     16  C   UNL     1       7.139   5.243  16.178  0.00  0.00    +0.000 C 
ATOM     17  O   UNL     1       7.832   4.277  16.489  0.00  0.00    +0.000 OA
ATOM     18  H   UNL     1       6.006   6.186  14.745  0.00  0.00    +0.000 HD
BRANCH  15  19
ATOM     19  C   UNL     1       7.031   4.578  13.784  0.00  0.00    +0.000 C 
ATOM     20  C   UNL     1       7.775   5.306  12.666  0.00  0.00    +0.000 C 
BRANCH  19  22
ATOM     21  C   UNL     1       5.969   2.996  12.037  0.00  0.00    +0.000 C 
ATOM     22  C   UNL     1       5.768   3.856  13.279  0.00  0.00    +0.000 C 
ENDBRANCH  19  22
ENDBRANCH  15  19
ENDBRANCH  14  16
ENDBRANCH  13  14
ENDBRANCH   1  13
TORSDOF 5
ENDMDL
MODEL 4
REMARK VINA RESULT:      -7.7      1.097      1.308
REMARK  Name = 
REMARK  7 active torsions:
REMARK  status: ('A' for Active; 'I' for Inactive)
REMARK    1  A    between atoms: C_1  and  C_2
REMARK    2  A    between atoms: C_2  and  C_3
REMARK    3  A    between atoms: C_3  and  C_4
REMARK    4  A    between atoms: C_3  and  N_5
REMARK    5  A    between atoms: C_6  and  C_8
REMARK    6  A    between atoms: C_8  and  S_9
REMARK    7  A    between atoms: S_9  and  C_10
REMARK                            x       y       z     vdW  Elec       q    Type
REMARK                         _______ _______ _______ _____ _____    ______ ____
ROOT
ATOM      1  C   UNL     1       5.223   4.894  18.771  0.00  0.00    +0.000 A 
ATOM      2  N   UNL     1       4.054   5.411  18.950  0.00  0.00    +0.000 NA
ATOM      3  C   UNL     1       3.102   4.621  19.626  0.00  0.00    +0.000 A 
ATOM      4  C   UNL     1       1.828   5.142  19.869  0.00  0.00    +0.000 A 
ATOM      5  C   UNL     1       0.862   4.382  20.540  0.00  0.00    +0.000 A 
ATOM      6  C   UNL     1       1.156   3.090  20.975  0.00  0.00    +0.000 A 
ATOM      7  C   UNL     1       2.421   2.553  20.741  0.00  0.00    +0.000 A 
ATOM      8  C   UNL     1       3.378   3.324  20.074  0.00  0.00    +0.000 A 
ATOM      9  C   UNL     1       4.729   2.793  19.821  0.00  0.00    +0.000 A 
ATOM     10  O   UNL     1       5.065   1.667  20.167  0.00  0.00    +0.000 OA
ATOM     11  N   UNL     1       5.582   3.647  19.180  0.00  0.00    +0.000 N 
ATOM     12  H   UNL     1       6.520   3.321  19.000  0.00  0.00    +0.000 HD
ENDROOT
BRANCH   1  13
ATOM     13  S   UNL     1       6.539   5.694  17.970  0.00  0.00    +0.000 S 
BRANCH  13  14
ATOM     14  C   UNL     1       5.864   5.898  16.298  0.00  0.00    +0.000 C 
BRANCH  14  16
ATOM     15  N   UNL     1       5.950   4.771  14.123  0.00  0.00    +0.000 N 
ATOM     16  C   UNL     1       6.603   4.991  15.322  0.00  0.00    +0.000 C 
ATOM     17  O   UNL     1       7.722   4.546  15.569  0.00  0.00    +0.000 OA
ATOM     18  H   UNL     1       4.962   4.993  14.085  0.00  0.00    +0.000 HD
BRANCH  15  19
ATOM     19  C   UNL     1       6.504   3.905  13.087  0.00  0.00    +0.000 C 
ATOM     20  C   UNL     1       7.492   4.683  12.220  0.00  0.00    +0.000 C 
BRANCH  19  22
ATOM     21  C   UNL     1       5.864   1.997  11.465  0.00  0.00    +0.000 C 
ATOM     22  C   UNL     1       5.406   3.216  12.257  0.00  0.00    +0.000 C 
ENDBRANCH  19  22
ENDBRANCH  15  19
ENDBRANCH  14  16
ENDBRANCH  13  14
ENDBRANCH   1  13
TORSDOF 5
ENDMDL
MODEL 5
REMARK VINA RESULT:      -7.7      2.156      2.833
REMARK  Name = 
REMARK  7 active torsions:
REMARK  status: ('A' for Active; 'I' for Inactive)
REMARK    1  A    between atoms: C_1  and  C_2
REMARK    2  A    between atoms: C_2  and  C_3
REMARK    3  A    between atoms: C_3  and  C_4
REMARK    4  A    between atoms: C_3  and  N_5
REMARK    5  A    between atoms: C_6  and  C_8
REMARK    6  A    between atoms: C_8  and  S_9
REMARK    7  A    between atoms: S_9  and  C_10
REMARK                            x       y       z     vdW  Elec       q    Type
REMARK                         _______ _______ _______ _____ _____    ______ ____
ROOT
ATOM      1  C   UNL     1       5.162   4.992  19.242  0.00  0.00    +0.000 A 
ATOM      2  N   UNL     1       4.853   3.762  19.002  0.00  0.00    +0.000 NA
ATOM      3  C   UNL     1       3.494   3.408  19.127  0.00  0.00    +0.000 A 
ATOM      4  C   UNL     1       3.100   2.095  18.854  0.00  0.00    +0.000 A 
ATOM      5  C   UNL     1       1.757   1.714  18.966  0.00  0.00    +0.000 A 
ATOM      6  C   UNL     1       0.790   2.642  19.356  0.00  0.00    +0.000 A 
ATOM      7  C   UNL     1       1.164   3.955  19.634  0.00  0.00    +0.000 A 
ATOM      8  C   UNL     1       2.508   4.324  19.513  0.00  0.00    +0.000 A 
ATOM      9  C   UNL     1       2.937   5.706  19.786  0.00  0.00    +0.000 A 
ATOM     10  O   UNL     1       2.151   6.578  20.137  0.00  0.00    +0.000 OA
ATOM     11  N   UNL     1       4.270   5.950  19.613  0.00  0.00    +0.000 N 
ATOM     12  H   UNL     1       4.598   6.890  19.780  0.00  0.00    +0.000 HD
ENDROOT
BRANCH   1  13
ATOM     13  S   UNL     1       6.770   5.638  19.142  0.00  0.00    +0.000 S 
BRANCH  13  14
ATOM     14  C   UNL     1       6.762   6.355  17.476  0.00  0.00    +0.000 C 
BRANCH  14  16
ATOM     15  N   UNL     1       6.622   5.467  15.195  0.00  0.00    +0.000 N 
ATOM     16  C   UNL     1       7.175   5.305  16.453  0.00  0.00    +0.000 C 
ATOM     17  O   UNL     1       7.987   4.422  16.720  0.00  0.00    +0.000 OA
ATOM     18  H   UNL     1       5.816   6.078  15.117  0.00  0.00    +0.000 HD
BRANCH  15  19
ATOM     19  C   UNL     1       6.891   4.535  14.105  0.00  0.00    +0.000 C 
ATOM     20  C   UNL     1       7.804   5.184  13.067  0.00  0.00    +0.000 C 
BRANCH  19  22
ATOM     21  C   UNL     1       5.781   3.220  12.176  0.00  0.00    +0.000 C 
ATOM     22  C   UNL     1       5.596   3.978  13.486  0.00  0.00    +0.000 C 
ENDBRANCH  19  22
ENDBRANCH  15  19
ENDBRANCH  14  16
ENDBRANCH  13  14
ENDBRANCH   1  13
TORSDOF 5
ENDMDL
MODEL 6
REMARK VINA RESULT:      -7.7      2.096      2.569
REMARK  Name = 
REMARK  7 active torsions:
REMARK  status: ('A' for Active; 'I' for Inactive)
REMARK    1  A    between atoms: C_1  and  C_2
REMARK    2  A    between atoms: C_2  and  C_3
REMARK    3  A    between atoms: C_3  and  C_4
REMARK    4  A    between atoms: C_3  and  N_5
REMARK    5  A    between atoms: C_6  and  C_8
REMARK    6  A    between atoms: C_8  and  S_9
REMARK    7  A    between atoms: S_9  and  C_10
REMARK                            x       y       z     vdW  Elec       q    Type
REMARK                         _______ _______ _______ _____ _____    ______ ____
ROOT
ATOM      1  C   UNL     1       3.915   5.632  17.898  0.00  0.00    +0.000 A 
ATOM      2  N   UNL     1       3.612   5.701  19.151  0.00  0.00    +0.000 NA
ATOM      3  C   UNL     1       2.855   4.638  19.685  0.00  0.00    +0.000 A 
ATOM      4  C   UNL     1       2.521   4.650  21.043  0.00  0.00    +0.000 A 
ATOM      5  C   UNL     1       1.772   3.608  21.603  0.00  0.00    +0.000 A 
ATOM      6  C   UNL     1       1.344   2.541  20.813  0.00  0.00    +0.000 A 
ATOM      7  C   UNL     1       1.666   2.513  19.457  0.00  0.00    +0.000 A 
ATOM      8  C   UNL     1       2.418   3.558  18.911  0.00  0.00    +0.000 A 
ATOM      9  C   UNL     1       2.788   3.554  17.485  0.00  0.00    +0.000 A 
ATOM     10  O   UNL     1       2.448   2.657  16.723  0.00  0.00    +0.000 OA
ATOM     11  N   UNL     1       3.542   4.617  17.073  0.00  0.00    +0.000 N 
ATOM     12  H   UNL     1       3.823   4.641  16.104  0.00  0.00    +0.000 HD
ENDROOT
BRANCH   1  13
ATOM     13  S   UNL     1       4.841   6.826  17.044  0.00  0.00    +0.000 S 
BRANCH  13  14
ATOM     14  C   UNL     1       6.532   6.363  17.511  0.00  0.00    +0.000 C 
BRANCH  14  16
ATOM     15  N   UNL     1       6.681   5.521  15.213  0.00  0.00    +0.000 N 
ATOM     16  C   UNL     1       7.086   5.344  16.524  0.00  0.00    +0.000 C 
ATOM     17  O   UNL     1       7.881   4.472  16.868  0.00  0.00    +0.000 OA
ATOM     18  H   UNL     1       5.876   6.115  15.052  0.00  0.00    +0.000 HD
BRANCH  15  19
ATOM     19  C   UNL     1       7.096   4.617  14.145  0.00  0.00    +0.000 C 
ATOM     20  C   UNL     1       7.826   5.393  13.051  0.00  0.00    +0.000 C 
BRANCH  19  22
ATOM     21  C   UNL     1       6.097   3.286  12.168  0.00  0.00    +0.000 C 
ATOM     22  C   UNL     1       5.922   3.787  13.597  0.00  0.00    +0.000 C 
ENDBRANCH  19  22
ENDBRANCH  15  19
ENDBRANCH  14  16
ENDBRANCH  13  14
ENDBRANCH   1  13
TORSDOF 5
ENDMDL
MODEL 7
REMARK VINA RESULT:      -7.6      1.348      1.727
REMARK  Name = 
REMARK  7 active torsions:
REMARK  status: ('A' for Active; 'I' for Inactive)
REMARK    1  A    between atoms: C_1  and  C_2
REMARK    2  A    between atoms: C_2  and  C_3
REMARK    3  A    between atoms: C_3  and  C_4
REMARK    4  A    between atoms: C_3  and  N_5
REMARK    5  A    between atoms: C_6  and  C_8
REMARK    6  A    between atoms: C_8  and  S_9
REMARK    7  A    between atoms: S_9  and  C_10
REMARK                            x       y       z     vdW  Elec       q    Type
REMARK                         _______ _______ _______ _____ _____    ______ ____
ROOT
ATOM      1  C   UNL     1       5.786   4.688  18.612  0.00  0.00    +0.000 A 
ATOM      2  N   UNL     1       4.930   5.624  18.849  0.00  0.00    +0.000 NA
ATOM      3  C   UNL     1       3.716   5.242  19.457  0.00  0.00    +0.000 A 
ATOM      4  C   UNL     1       2.764   6.219  19.759  0.00  0.00    +0.000 A 
ATOM      5  C   UNL     1       1.551   5.871  20.365  0.00  0.00    +0.000 A 
ATOM      6  C   UNL     1       1.272   4.540  20.674  0.00  0.00    +0.000 A 
ATOM      7  C   UNL     1       2.209   3.551  20.380  0.00  0.00    +0.000 A 
ATOM      8  C   UNL     1       3.419   3.912  19.778  0.00  0.00    +0.000 A 
ATOM      9  C   UNL     1       4.437   2.895  19.465  0.00  0.00    +0.000 A 
ATOM     10  O   UNL     1       4.268   1.706  19.701  0.00  0.00    +0.000 OA
ATOM     11  N   UNL     1       5.586   3.373  18.899  0.00  0.00    +0.000 N 
ATOM     12  H   UNL     1       6.311   2.706  18.681  0.00  0.00    +0.000 HD
ENDROOT
BRANCH   1  13
ATOM     13  S   UNL     1       7.339   4.939  17.877  0.00  0.00    +0.000 S 
BRANCH  13  14
ATOM     14  C   UNL     1       6.860   5.569  16.244  0.00  0.00    +0.000 C 
BRANCH  14  16
ATOM     15  N   UNL     1       6.628   4.636  13.989  0.00  0.00    +0.000 N 
ATOM     16  C   UNL     1       6.442   4.415  15.342  0.00  0.00    +0.000 C 
ATOM     17  O   UNL     1       6.030   3.351  15.797  0.00  0.00    +0.000 OA
ATOM     18  H   UNL     1       6.767   5.594  13.690  0.00  0.00    +0.000 HD
BRANCH  15  19
ATOM     19  C   UNL     1       6.255   3.646  12.984  0.00  0.00    +0.000 C 
ATOM     20  C   UNL     1       7.173   3.754  11.769  0.00  0.00    +0.000 C 
BRANCH  19  22
ATOM     21  C   UNL     1       4.396   3.088  11.277  0.00  0.00    +0.000 C 
ATOM     22  C   UNL     1       4.764   3.734  12.607  0.00  0.00    +0.000 C 
ENDBRANCH  19  22
ENDBRANCH  15  19
ENDBRANCH  14  16
ENDBRANCH  13  14
ENDBRANCH   1  13
TORSDOF 5
ENDMDL
MODEL 8
REMARK VINA RESULT:      -7.6      1.602      2.172
REMARK  Name = 
REMARK  7 active torsions:
REMARK  status: ('A' for Active; 'I' for Inactive)
REMARK    1  A    between atoms: C_1  and  C_2
REMARK    2  A    between atoms: C_2  and  C_3
REMARK    3  A    between atoms: C_3  and  C_4
REMARK    4  A    between atoms: C_3  and  N_5
REMARK    5  A    between atoms: C_6  and  C_8
REMARK    6  A    between atoms: C_8  and  S_9
REMARK    7  A    between atoms: S_9  and  C_10
REMARK                            x       y       z     vdW  Elec       q    Type
REMARK                         _______ _______ _______ _____ _____    ______ ____
ROOT
ATOM      1  C   UNL     1       5.184   5.090  18.025  0.00  0.00    +0.000 A 
ATOM      2  N   UNL     1       5.015   4.048  18.767  0.00  0.00    +0.000 NA
ATOM      3  C   UNL     1       3.821   3.981  19.514  0.00  0.00    +0.000 A 
ATOM      4  C   UNL     1       3.576   2.861  20.315  0.00  0.00    +0.000 A 
ATOM      5  C   UNL     1       2.398   2.765  21.066  0.00  0.00    +0.000 A 
ATOM      6  C   UNL     1       1.451   3.788  21.028  0.00  0.00    +0.000 A 
ATOM      7  C   UNL     1       1.678   4.912  20.237  0.00  0.00    +0.000 A 
ATOM      8  C   UNL     1       2.856   4.994  19.488  0.00  0.00    +0.000 A 
ATOM      9  C   UNL     1       3.124   6.162  18.630  0.00  0.00    +0.000 A 
ATOM     10  O   UNL     1       2.344   7.103  18.545  0.00  0.00    +0.000 OA
ATOM     11  N   UNL     1       4.297   6.118  17.931  0.00  0.00    +0.000 N 
ATOM     12  H   UNL     1       4.507   6.896  17.324  0.00  0.00    +0.000 HD
ENDROOT
BRANCH   1  13
ATOM     13  S   UNL     1       6.575   5.369  17.024  0.00  0.00    +0.000 S 
BRANCH  13  14
ATOM     14  C   UNL     1       6.570   3.881  15.987  0.00  0.00    +0.000 C 
BRANCH  14  16
ATOM     15  N   UNL     1       6.160   3.275  13.647  0.00  0.00    +0.000 N 
ATOM     16  C   UNL     1       6.573   4.270  14.514  0.00  0.00    +0.000 C 
ATOM     17  O   UNL     1       6.862   5.406  14.143  0.00  0.00    +0.000 OA
ATOM     18  H   UNL     1       6.145   2.326  14.003  0.00  0.00    +0.000 HD
BRANCH  15  19
ATOM     19  C   UNL     1       6.129   3.471  12.202  0.00  0.00    +0.000 C 
ATOM     20  C   UNL     1       4.695   3.371  11.685  0.00  0.00    +0.000 C 
BRANCH  19  22
ATOM     21  C   UNL     1       6.489   1.173  11.073  0.00  0.00    +0.000 C 
ATOM     22  C   UNL     1       7.089   2.518  11.465  0.00  0.00    +0.000 C 
ENDBRANCH  19  22
ENDBRANCH  15  19
ENDBRANCH  14  16
ENDBRANCH  13  14
ENDBRANCH   1  13
TORSDOF 5
ENDMDL
MODEL 9
REMARK VINA RESULT:      -7.6      2.253      2.958
REMARK  Name = 
REMARK  7 active torsions:
REMARK  status: ('A' for Active; 'I' for Inactive)
REMARK    1  A    between atoms: C_1  and  C_2
REMARK    2  A    between atoms: C_2  and  C_3
REMARK    3  A    between atoms: C_3  and  C_4
REMARK    4  A    between atoms: C_3  and  N_5
REMARK    5  A    between atoms: C_6  and  C_8
REMARK    6  A    between atoms: C_8  and  S_9
REMARK    7  A    between atoms: S_9  and  C_10
REMARK                            x       y       z     vdW  Elec       q    Type
REMARK                         _______ _______ _______ _____ _____    ______ ____
ROOT
ATOM      1  C   UNL     1       3.789   6.074  17.750  0.00  0.00    +0.000 A 
ATOM      2  N   UNL     1       3.598   4.805  17.622  0.00  0.00    +0.000 NA
ATOM      3  C   UNL     1       2.706   4.197  18.529  0.00  0.00    +0.000 A 
ATOM      4  C   UNL     1       2.444   2.828  18.419  0.00  0.00    +0.000 A 
ATOM      5  C   UNL     1       1.560   2.197  19.303  0.00  0.00    +0.000 A 
ATOM      6  C   UNL     1       0.929   2.926  20.311  0.00  0.00    +0.000 A 
ATOM      7  C   UNL     1       1.178   4.291  20.437  0.00  0.00    +0.000 A 
ATOM      8  C   UNL     1       2.059   4.911  19.545  0.00  0.00    +0.000 A 
ATOM      9  C   UNL     1       2.337   6.354  19.640  0.00  0.00    +0.000 A 
ATOM     10  O   UNL     1       1.826   7.063  20.499  0.00  0.00    +0.000 OA
ATOM     11  N   UNL     1       3.197   6.848  18.700  0.00  0.00    +0.000 N 
ATOM     12  H   UNL     1       3.401   7.836  18.728  0.00  0.00    +0.000 HD
ENDROOT
BRANCH   1  13
ATOM     13  S   UNL     1       4.839   7.018  16.739  0.00  0.00    +0.000 S 
BRANCH  13  14
ATOM     14  C   UNL     1       6.470   6.484  17.328  0.00  0.00    +0.000 C 
BRANCH  14  16
ATOM     15  N   UNL     1       6.771   5.592  15.064  0.00  0.00    +0.000 N 
ATOM     16  C   UNL     1       7.029   5.405  16.410  0.00  0.00    +0.000 C 
ATOM     17  O   UNL     1       7.711   4.477  16.839  0.00  0.00    +0.000 OA
ATOM     18  H   UNL     1       6.038   6.249  14.819  0.00  0.00    +0.000 HD
BRANCH  15  19
ATOM     19  C   UNL     1       7.211   4.639  14.051  0.00  0.00    +0.000 C 
ATOM     20  C   UNL     1       7.809   5.377  12.855  0.00  0.00    +0.000 C 
BRANCH  19  22
ATOM     21  C   UNL     1       6.022   3.346  12.154  0.00  0.00    +0.000 C 
ATOM     22  C   UNL     1       6.090   3.665  13.643  0.00  0.00    +0.000 C 
ENDBRANCH  19  22
ENDBRANCH  15  19
ENDBRANCH  14  16
ENDBRANCH  13  14
ENDBRANCH   1  13
TORSDOF 5
ENDMDL
