MODEL 1
REMARK VINA RESULT:      -8.5      0.000      0.000
REMARK  Name = 
REMARK  8 active torsions:
REMARK  status: ('A' for Active; 'I' for Inactive)
REMARK    1  A    between atoms: N_1  and  C_2
REMARK    2  A    between atoms: C_2  and  C_3
REMARK    3  A    between atoms: C_5  and  N_6
REMARK    4  A    between atoms: N_6  and  C_7
REMARK    5  A    between atoms: C_7  and  C_8
REMARK    6  A    between atoms: C_12  and  C_13
REMARK    7  A    between atoms: N_15  and  C_16
REMARK    8  A    between atoms: C_24  and  C_25
REMARK                            x       y       z     vdW  Elec       q    Type
REMARK                         _______ _______ _______ _____ _____    ______ ____
ROOT
ATOM      1  C   UNL     1       6.221   5.194  15.533  0.00  0.00    +0.000 C 
ENDROOT
BRANCH   1   2
ATOM      2  C   UNL     1       6.962   5.586  16.775  0.00  0.00    +0.000 A 
ATOM      3  C   UNL     1       7.272   4.637  17.754  0.00  0.00    +0.000 A 
ATOM      4  C   UNL     1       7.910   5.033  18.930  0.00  0.00    +0.000 A 
ATOM      5  C   UNL     1       8.242   6.377  19.138  0.00  0.00    +0.000 A 
ATOM      6  C   UNL     1       7.940   7.350  18.159  0.00  0.00    +0.000 A 
ATOM      7  C   UNL     1       7.297   6.928  16.980  0.00  0.00    +0.000 A 
BRANCH   6   8
ATOM      8  C   UNL     1       8.247   8.809  18.312  0.00  0.00    +0.000 C 
ATOM      9  O   UNL     1       7.610   9.590  17.625  0.00  0.00    +0.000 OA
ATOM     10  N   UNL     1       9.228   9.274  19.151  0.00  0.00    +0.000 N 
ATOM     11  H   UNL     1       9.810   8.590  19.650  0.00  0.00    +0.000 HD
BRANCH  10  12
ATOM     12  C   UNL     1       9.572  10.653  19.351  0.00  0.00    +0.000 A 
ATOM     13  C   UNL     1       9.323  11.363  20.553  0.00  0.00    +0.000 A 
ATOM     14  C   UNL     1       9.669  12.710  20.669  0.00  0.00    +0.000 A 
ATOM     15  C   UNL     1      10.268  13.378  19.601  0.00  0.00    +0.000 A 
ATOM     16  C   UNL     1      10.537  12.694  18.417  0.00  0.00    +0.000 A 
ATOM     17  C   UNL     1      10.200  11.343  18.293  0.00  0.00    +0.000 A 
ENDBRANCH  10  12
ENDBRANCH   6   8
ENDBRANCH   1   2
BRANCH   1  18
ATOM     18  N   UNL     1       5.130   4.278  15.803  0.00  0.00    +0.000 N 
ATOM     19  H   UNL     1       5.011   3.430  15.224  0.00  0.00    +0.000 HD
BRANCH  18  22
ATOM     20  C   UNL     1       2.740   3.777  18.631  0.00  0.00    +0.000 A 
ATOM     21  C   UNL     1       3.648   3.500  17.612  0.00  0.00    +0.000 A 
ATOM     22  C   UNL     1       4.188   4.541  16.839  0.00  0.00    +0.000 A 
ATOM     23  N   UNL     1       3.813   5.823  17.100  0.00  0.00    +0.000 NA
ATOM     24  C   UNL     1       2.925   6.133  18.089  0.00  0.00    +0.000 A 
ATOM     25  C   UNL     1       2.371   5.107  18.871  0.00  0.00    +0.000 A 
BRANCH  24  26
ATOM     26  C   UNL     1       2.554   7.566  18.344  0.00  0.00    +0.000 C 
ATOM     27  F   UNL     1       3.564   8.413  17.921  0.00  0.00    +0.000 F 
ATOM     28  F   UNL     1       1.393   7.877  17.660  0.00  0.00    +0.000 F 
ATOM     29  F   UNL     1       2.350   7.758  19.697  0.00  0.00    +0.000 F 
ENDBRANCH  24  26
BRANCH  20  30
ATOM     30  C   UNL     1       2.195   2.640  19.456  0.00  0.00    +0.000 C 
BRANCH  30  31
ATOM     31  N   UNL     1       1.492   1.681  18.613  0.00  0.00    +0.000 NA
ATOM     32  H   UNL     1       1.139   0.910  19.228  0.00  0.00    +0.000 HD
ATOM     33  H   UNL     1       2.172   1.258  17.941  0.00  0.00    +0.000 HD
ENDBRANCH  30  31
ENDBRANCH  20  30
ENDBRANCH  18  22
ENDBRANCH   1  18
TORSDOF 8
ENDMDL
MODEL 2
REMARK VINA RESULT:      -8.4      5.449      8.065
REMARK  Name = 
REMARK  8 active torsions:
REMARK  status: ('A' for Active; 'I' for Inactive)
REMARK    1  A    between atoms: N_1  and  C_2
REMARK    2  A    between atoms: C_2  and  C_3
REMARK    3  A    between atoms: C_5  and  N_6
REMARK    4  A    between atoms: N_6  and  C_7
REMARK    5  A    between atoms: C_7  and  C_8
REMARK    6  A    between atoms: C_12  and  C_13
REMARK    7  A    between atoms: N_15  and  C_16
REMARK    8  A    between atoms: C_24  and  C_25
REMARK                            x       y       z     vdW  Elec       q    Type
REMARK                         _______ _______ _______ _____ _____    ______ ____
ROOT
ATOM      1  C   UNL     1       2.027   6.549  20.327  0.00  0.00    +0.000 C 
ENDROOT
BRANCH   1   2
ATOM      2  C   UNL     1       1.586   7.943  20.004  0.00  0.00    +0.000 A 
ATOM      3  C   UNL     1       1.871   8.515  18.761  0.00  0.00    +0.000 A 
ATOM      4  C   UNL     1       1.503   9.835  18.501  0.00  0.00    +0.000 A 
ATOM      5  C   UNL     1       0.851  10.596  19.480  0.00  0.00    +0.000 A 
ATOM      6  C   UNL     1       0.553  10.034  20.742  0.00  0.00    +0.000 A 
ATOM      7  C   UNL     1       0.931   8.699  20.981  0.00  0.00    +0.000 A 
BRANCH   6   8
ATOM      8  C   UNL     1      -0.127  10.784  21.847  0.00  0.00    +0.000 C 
ATOM      9  O   UNL     1       0.134  10.452  22.992  0.00  0.00    +0.000 OA
ATOM     10  N   UNL     1      -1.042  11.779  21.612  0.00  0.00    +0.000 N 
ATOM     11  H   UNL     1      -1.311  11.977  20.640  0.00  0.00    +0.000 HD
BRANCH  10  12
ATOM     12  C   UNL     1      -1.726  12.541  22.618  0.00  0.00    +0.000 A 
ATOM     13  C   UNL     1      -2.976  12.172  23.175  0.00  0.00    +0.000 A 
ATOM     14  C   UNL     1      -3.591  12.973  24.138  0.00  0.00    +0.000 A 
ATOM     15  C   UNL     1      -2.982  14.152  24.567  0.00  0.00    +0.000 A 
ATOM     16  C   UNL     1      -1.745  14.524  24.044  0.00  0.00    +0.000 A 
ATOM     17  C   UNL     1      -1.118  13.724  23.084  0.00  0.00    +0.000 A 
ENDBRANCH  10  12
ENDBRANCH   6   8
ENDBRANCH   1   2
BRANCH   1  18
ATOM     18  N   UNL     1       3.403   6.298  19.943  0.00  0.00    +0.000 N 
ATOM     19  H   UNL     1       4.172   6.793  20.423  0.00  0.00    +0.000 HD
BRANCH  18  22
ATOM     20  C   UNL     1       3.623   3.195  17.875  0.00  0.00    +0.000 A 
ATOM     21  C   UNL     1       3.321   4.054  18.929  0.00  0.00    +0.000 A 
ATOM     22  C   UNL     1       3.718   5.401  18.882  0.00  0.00    +0.000 A 
ATOM     23  N   UNL     1       4.400   5.853  17.795  0.00  0.00    +0.000 NA
ATOM     24  C   UNL     1       4.716   5.041  16.745  0.00  0.00    +0.000 A 
ATOM     25  C   UNL     1       4.331   3.691  16.772  0.00  0.00    +0.000 A 
BRANCH  24  26
ATOM     26  C   UNL     1       5.460   5.594  15.564  0.00  0.00    +0.000 C 
ATOM     27  F   UNL     1       6.810   5.703  15.847  0.00  0.00    +0.000 F 
ATOM     28  F   UNL     1       5.296   4.758  14.476  0.00  0.00    +0.000 F 
ATOM     29  F   UNL     1       4.968   6.848  15.252  0.00  0.00    +0.000 F 
ENDBRANCH  24  26
BRANCH  20  30
ATOM     30  C   UNL     1       3.165   1.761  17.945  0.00  0.00    +0.000 C 
BRANCH  30  31
ATOM     31  N   UNL     1       4.213   0.909  18.495  0.00  0.00    +0.000 NA
ATOM     32  H   UNL     1       4.501   1.310  19.419  0.00  0.00    +0.000 HD
ATOM     33  H   UNL     1       5.046   0.948  17.865  0.00  0.00    +0.000 HD
ENDBRANCH  30  31
ENDBRANCH  20  30
ENDBRANCH  18  22
ENDBRANCH   1  18
TORSDOF 8
ENDMDL
MODEL 3
REMARK VINA RESULT:      -8.4      2.179      2.942
REMARK  Name = 
REMARK  8 active torsions:
REMARK  status: ('A' for Active; 'I' for Inactive)
REMARK    1  A    between atoms: N_1  and  C_2
REMARK    2  A    between atoms: C_2  and  C_3
REMARK    3  A    between atoms: C_5  and  N_6
REMARK    4  A    between atoms: N_6  and  C_7
REMARK    5  A    between atoms: C_7  and  C_8
REMARK    6  A    between atoms: C_12  and  C_13
REMARK    7  A    between atoms: N_15  and  C_16
REMARK    8  A    between atoms: C_24  and  C_25
REMARK                            x       y       z     vdW  Elec       q    Type
REMARK                         _______ _______ _______ _____ _____    ______ ____
ROOT
ATOM      1  C   UNL     1       6.589   5.020  15.529  0.00  0.00    +0.000 C 
ENDROOT
BRANCH   1   2
ATOM      2  C   UNL     1       7.200   5.492  16.813  0.00  0.00    +0.000 A 
ATOM      3  C   UNL     1       7.437   4.602  17.864  0.00  0.00    +0.000 A 
ATOM      4  C   UNL     1       7.951   5.073  19.073  0.00  0.00    +0.000 A 
ATOM      5  C   UNL     1       8.232   6.434  19.241  0.00  0.00    +0.000 A 
ATOM      6  C   UNL     1       8.003   7.348  18.189  0.00  0.00    +0.000 A 
ATOM      7  C   UNL     1       7.484   6.851  16.978  0.00  0.00    +0.000 A 
BRANCH   6   8
ATOM      8  C   UNL     1       8.261   8.821  18.294  0.00  0.00    +0.000 C 
ATOM      9  O   UNL     1       7.605   9.557  17.575  0.00  0.00    +0.000 OA
ATOM     10  N   UNL     1       9.219   9.346  19.124  0.00  0.00    +0.000 N 
ATOM     11  H   UNL     1       9.819   8.699  19.651  0.00  0.00    +0.000 HD
BRANCH  10  12
ATOM     12  C   UNL     1       9.517  10.742  19.279  0.00  0.00    +0.000 A 
ATOM     13  C   UNL     1       9.446  11.432  20.516  0.00  0.00    +0.000 A 
ATOM     14  C   UNL     1       9.733  12.796  20.588  0.00  0.00    +0.000 A 
ATOM     15  C   UNL     1      10.095  13.501  19.440  0.00  0.00    +0.000 A 
ATOM     16  C   UNL     1      10.186  12.838  18.218  0.00  0.00    +0.000 A 
ATOM     17  C   UNL     1       9.908  11.470  18.137  0.00  0.00    +0.000 A 
ENDBRANCH  10  12
ENDBRANCH   6   8
ENDBRANCH   1   2
BRANCH   1  18
ATOM     18  N   UNL     1       5.147   5.169  15.513  0.00  0.00    +0.000 N 
ATOM     19  H   UNL     1       4.661   5.405  14.632  0.00  0.00    +0.000 HD
BRANCH  18  22
ATOM     20  C   UNL     1       3.026   5.989  18.477  0.00  0.00    +0.000 A 
ATOM     21  C   UNL     1       3.786   6.145  17.320  0.00  0.00    +0.000 A 
ATOM     22  C   UNL     1       4.380   5.030  16.705  0.00  0.00    +0.000 A 
ATOM     23  N   UNL     1       4.202   3.798  17.255  0.00  0.00    +0.000 NA
ATOM     24  C   UNL     1       3.466   3.607  18.387  0.00  0.00    +0.000 A 
ATOM     25  C   UNL     1       2.866   4.708  19.020  0.00  0.00    +0.000 A 
BRANCH  24  26
ATOM     26  C   UNL     1       3.291   2.223  18.946  0.00  0.00    +0.000 C 
ATOM     27  F   UNL     1       2.142   2.151  19.714  0.00  0.00    +0.000 F 
ATOM     28  F   UNL     1       3.197   1.311  17.912  0.00  0.00    +0.000 F 
ATOM     29  F   UNL     1       4.377   1.902  19.738  0.00  0.00    +0.000 F 
ENDBRANCH  24  26
BRANCH  20  30
ATOM     30  C   UNL     1       2.384   7.202  19.101  0.00  0.00    +0.000 C 
BRANCH  30  31
ATOM     31  N   UNL     1       2.484   8.354  18.213  0.00  0.00    +0.000 NA
ATOM     32  H   UNL     1       3.489   8.467  17.943  0.00  0.00    +0.000 HD
ATOM     33  H   UNL     1       2.204   9.213  18.740  0.00  0.00    +0.000 HD
ENDBRANCH  30  31
ENDBRANCH  20  30
ENDBRANCH  18  22
ENDBRANCH   1  18
TORSDOF 8
ENDMDL
MODEL 4
REMARK VINA RESULT:      -8.3      4.131      6.604
REMARK  Name = 
REMARK  8 active torsions:
REMARK  status: ('A' for Active; 'I' for Inactive)
REMARK    1  A    between atoms: N_1  and  C_2
REMARK    2  A    between atoms: C_2  and  C_3
REMARK    3  A    between atoms: C_5  and  N_6
REMARK    4  A    between atoms: N_6  and  C_7
REMARK    5  A    between atoms: C_7  and  C_8
REMARK    6  A    between atoms: C_12  and  C_13
REMARK    7  A    between atoms: N_15  and  C_16
REMARK    8  A    between atoms: C_24  and  C_25
REMARK                            x       y       z     vdW  Elec       q    Type
REMARK                         _______ _______ _______ _____ _____    ______ ____
ROOT
ATOM      1  C   UNL     1       2.380   4.140  17.371  0.00  0.00    +0.000 C 
ENDROOT
BRANCH   1   2
ATOM      2  C   UNL     1       2.285   5.180  18.446  0.00  0.00    +0.000 A 
ATOM      3  C   UNL     1       2.350   4.822  19.796  0.00  0.00    +0.000 A 
ATOM      4  C   UNL     1       2.200   5.798  20.781  0.00  0.00    +0.000 A 
ATOM      5  C   UNL     1       1.983   7.136  20.429  0.00  0.00    +0.000 A 
ATOM      6  C   UNL     1       1.918   7.516  19.070  0.00  0.00    +0.000 A 
ATOM      7  C   UNL     1       2.073   6.515  18.091  0.00  0.00    +0.000 A 
BRANCH   6   8
ATOM      8  C   UNL     1       1.673   8.921  18.609  0.00  0.00    +0.000 C 
ATOM      9  O   UNL     1       2.064   9.220  17.492  0.00  0.00    +0.000 OA
ATOM     10  N   UNL     1       1.076   9.866  19.404  0.00  0.00    +0.000 N 
ATOM     11  H   UNL     1       0.838   9.614  20.371  0.00  0.00    +0.000 HD
BRANCH  10  12
ATOM     12  C   UNL     1       0.805  11.225  19.028  0.00  0.00    +0.000 A 
ATOM     13  C   UNL     1       1.775  12.259  19.050  0.00  0.00    +0.000 A 
ATOM     14  C   UNL     1       1.435  13.563  18.688  0.00  0.00    +0.000 A 
ATOM     15  C   UNL     1       0.131  13.868  18.297  0.00  0.00    +0.000 A 
ATOM     16  C   UNL     1      -0.834  12.863  18.253  0.00  0.00    +0.000 A 
ATOM     17  C   UNL     1      -0.500  11.552  18.607  0.00  0.00    +0.000 A 
ENDBRANCH  10  12
ENDBRANCH   6   8
ENDBRANCH   1   2
BRANCH   1  18
ATOM     18  N   UNL     1       3.606   3.370  17.450  0.00  0.00    +0.000 N 
ATOM     19  H   UNL     1       3.587   2.402  17.812  0.00  0.00    +0.000 HD
BRANCH  18  22
ATOM     20  C   UNL     1       6.481   4.532  15.367  0.00  0.00    +0.000 A 
ATOM     21  C   UNL     1       5.264   3.958  15.724  0.00  0.00    +0.000 A 
ATOM     22  C   UNL     1       4.856   3.937  17.069  0.00  0.00    +0.000 A 
ATOM     23  N   UNL     1       5.666   4.485  18.015  0.00  0.00    +0.000 NA
ATOM     24  C   UNL     1       6.866   5.053  17.704  0.00  0.00    +0.000 A 
ATOM     25  C   UNL     1       7.295   5.083  16.367  0.00  0.00    +0.000 A 
BRANCH  24  26
ATOM     26  C   UNL     1       7.717   5.655  18.786  0.00  0.00    +0.000 C 
ATOM     27  F   UNL     1       8.790   4.831  19.075  0.00  0.00    +0.000 F 
ATOM     28  F   UNL     1       8.195   6.885  18.375  0.00  0.00    +0.000 F 
ATOM     29  F   UNL     1       6.961   5.819  19.932  0.00  0.00    +0.000 F 
ENDBRANCH  24  26
BRANCH  20  30
ATOM     30  C   UNL     1       6.881   4.558  13.915  0.00  0.00    +0.000 C 
BRANCH  30  31
ATOM     31  N   UNL     1       6.380   3.378  13.219  0.00  0.00    +0.000 NA
ATOM     32  H   UNL     1       6.998   3.205  12.392  0.00  0.00    +0.000 HD
ATOM     33  H   UNL     1       5.421   3.582  12.855  0.00  0.00    +0.000 HD
ENDBRANCH  30  31
ENDBRANCH  20  30
ENDBRANCH  18  22
ENDBRANCH   1  18
TORSDOF 8
ENDMDL
MODEL 5
REMARK VINA RESULT:      -8.2      2.152      2.842
REMARK  Name = 
REMARK  8 active torsions:
REMARK  status: ('A' for Active; 'I' for Inactive)
REMARK    1  A    between atoms: N_1  and  C_2
REMARK    2  A    between atoms: C_2  and  C_3
REMARK    3  A    between atoms: C_5  and  N_6
REMARK    4  A    between atoms: N_6  and  C_7
REMARK    5  A    between atoms: C_7  and  C_8
REMARK    6  A    between atoms: C_12  and  C_13
REMARK    7  A    between atoms: N_15  and  C_16
REMARK    8  A    between atoms: C_24  and  C_25
REMARK                            x       y       z     vdW  Elec       q    Type
REMARK                         _______ _______ _______ _____ _____    ______ ____
ROOT
ATOM      1  C   UNL     1       6.219   5.262  16.118  0.00  0.00    +0.000 C 
ENDROOT
BRANCH   1   2
ATOM      2  C   UNL     1       7.031   5.812  17.251  0.00  0.00    +0.000 A 
ATOM      3  C   UNL     1       7.395   5.002  18.331  0.00  0.00    +0.000 A 
ATOM      4  C   UNL     1       8.100   5.549  19.403  0.00  0.00    +0.000 A 
ATOM      5  C   UNL     1       8.447   6.905  19.407  0.00  0.00    +0.000 A 
ATOM      6  C   UNL     1       8.091   7.738  18.323  0.00  0.00    +0.000 A 
ATOM      7  C   UNL     1       7.381   7.165  17.250  0.00  0.00    +0.000 A 
BRANCH   6   8
ATOM      8  C   UNL     1       8.410   9.201  18.257  0.00  0.00    +0.000 C 
ATOM      9  O   UNL     1       7.765   9.880  17.474  0.00  0.00    +0.000 OA
ATOM     10  N   UNL     1       9.409   9.774  19.002  0.00  0.00    +0.000 N 
ATOM     11  H   UNL     1       9.997   9.165  19.585  0.00  0.00    +0.000 HD
BRANCH  10  12
ATOM     12  C   UNL     1       9.766  11.165  18.994  0.00  0.00    +0.000 A 
ATOM     13  C   UNL     1       9.377  12.086  19.999  0.00  0.00    +0.000 A 
ATOM     14  C   UNL     1       9.746  13.429  19.915  0.00  0.00    +0.000 A 
ATOM     15  C   UNL     1      10.505  13.886  18.838  0.00  0.00    +0.000 A 
ATOM     16  C   UNL     1      10.911  12.993  17.847  0.00  0.00    +0.000 A 
ATOM     17  C   UNL     1      10.552  11.644  17.926  0.00  0.00    +0.000 A 
ENDBRANCH  10  12
ENDBRANCH   6   8
ENDBRANCH   1   2
BRANCH   1  18
ATOM     18  N   UNL     1       4.869   5.790  16.096  0.00  0.00    +0.000 N 
ATOM     19  H   UNL     1       4.539   6.333  15.281  0.00  0.00    +0.000 HD
BRANCH  18  22
ATOM     20  C   UNL     1       2.632   6.502  19.002  0.00  0.00    +0.000 A 
ATOM     21  C   UNL     1       3.506   6.700  17.936  0.00  0.00    +0.000 A 
ATOM     22  C   UNL     1       3.988   5.605  17.200  0.00  0.00    +0.000 A 
ATOM     23  N   UNL     1       3.592   4.349  17.544  0.00  0.00    +0.000 NA
ATOM     24  C   UNL     1       2.740   4.116  18.584  0.00  0.00    +0.000 A 
ATOM     25  C   UNL     1       2.247   5.196  19.334  0.00  0.00    +0.000 A 
BRANCH  24  26
ATOM     26  C   UNL     1       2.323   2.711  18.914  0.00  0.00    +0.000 C 
ATOM     27  F   UNL     1       1.906   2.047  17.774  0.00  0.00    +0.000 F 
ATOM     28  F   UNL     1       3.389   2.026  19.467  0.00  0.00    +0.000 F 
ATOM     29  F   UNL     1       1.280   2.738  19.820  0.00  0.00    +0.000 F 
ENDBRANCH  24  26
BRANCH  20  30
ATOM     30  C   UNL     1       2.116   7.699  19.758  0.00  0.00    +0.000 C 
BRANCH  30  31
ATOM     31  N   UNL     1       1.588   7.301  21.058  0.00  0.00    +0.000 NA
ATOM     32  H   UNL     1       0.765   6.674  20.894  0.00  0.00    +0.000 HD
ATOM     33  H   UNL     1       1.238   8.151  21.556  0.00  0.00    +0.000 HD
ENDBRANCH  30  31
ENDBRANCH  20  30
ENDBRANCH  18  22
ENDBRANCH   1  18
TORSDOF 8
ENDMDL
MODEL 6
REMARK VINA RESULT:      -8.2      5.764      8.497
REMARK  Name = 
REMARK  8 active torsions:
REMARK  status: ('A' for Active; 'I' for Inactive)
REMARK    1  A    between atoms: N_1  and  C_2
REMARK    2  A    between atoms: C_2  and  C_3
REMARK    3  A    between atoms: C_5  and  N_6
REMARK    4  A    between atoms: N_6  and  C_7
REMARK    5  A    between atoms: C_7  and  C_8
REMARK    6  A    between atoms: C_12  and  C_13
REMARK    7  A    between atoms: N_15  and  C_16
REMARK    8  A    between atoms: C_24  and  C_25
REMARK                            x       y       z     vdW  Elec       q    Type
REMARK                         _______ _______ _______ _____ _____    ______ ____
ROOT
ATOM      1  C   UNL     1       1.933   6.699  20.268  0.00  0.00    +0.000 C 
ENDROOT
BRANCH   1   2
ATOM      2  C   UNL     1       1.482   8.099  19.984  0.00  0.00    +0.000 A 
ATOM      3  C   UNL     1       1.762   8.707  18.757  0.00  0.00    +0.000 A 
ATOM      4  C   UNL     1       1.386  10.032  18.534  0.00  0.00    +0.000 A 
ATOM      5  C   UNL     1       0.730  10.760  19.534  0.00  0.00    +0.000 A 
ATOM      6  C   UNL     1       0.435  10.162  20.779  0.00  0.00    +0.000 A 
ATOM      7  C   UNL     1       0.823   8.823  20.982  0.00  0.00    +0.000 A 
BRANCH   6   8
ATOM      8  C   UNL     1      -0.249  10.876  21.905  0.00  0.00    +0.000 C 
ATOM      9  O   UNL     1      -0.004  10.497  23.040  0.00  0.00    +0.000 OA
ATOM     10  N   UNL     1      -1.151  11.888  21.699  0.00  0.00    +0.000 N 
ATOM     11  H   UNL     1      -1.408  12.126  20.733  0.00  0.00    +0.000 HD
BRANCH  10  12
ATOM     12  C   UNL     1      -1.839  12.618  22.726  0.00  0.00    +0.000 A 
ATOM     13  C   UNL     1      -3.099  12.241  23.256  0.00  0.00    +0.000 A 
ATOM     14  C   UNL     1      -3.716  13.011  24.242  0.00  0.00    +0.000 A 
ATOM     15  C   UNL     1      -3.100  14.166  24.723  0.00  0.00    +0.000 A 
ATOM     16  C   UNL     1      -1.854  14.545  24.227  0.00  0.00    +0.000 A 
ATOM     17  C   UNL     1      -1.224  13.776  23.244  0.00  0.00    +0.000 A 
ENDBRANCH  10  12
ENDBRANCH   6   8
ENDBRANCH   1   2
BRANCH   1  18
ATOM     18  N   UNL     1       3.341   6.501  19.986  0.00  0.00    +0.000 N 
ATOM     19  H   UNL     1       4.050   7.087  20.456  0.00  0.00    +0.000 HD
BRANCH  18  22
ATOM     20  C   UNL     1       5.180   4.861  17.177  0.00  0.00    +0.000 A 
ATOM     21  C   UNL     1       4.759   5.829  18.086  0.00  0.00    +0.000 A 
ATOM     22  C   UNL     1       3.771   5.528  19.038  0.00  0.00    +0.000 A 
ATOM     23  N   UNL     1       3.232   4.278  19.060  0.00  0.00    +0.000 NA
ATOM     24  C   UNL     1       3.617   3.305  18.185  0.00  0.00    +0.000 A 
ATOM     25  C   UNL     1       4.601   3.586  17.224  0.00  0.00    +0.000 A 
BRANCH  24  26
ATOM     26  C   UNL     1       2.998   1.939  18.261  0.00  0.00    +0.000 C 
ATOM     27  F   UNL     1       2.265   1.801  19.426  0.00  0.00    +0.000 F 
ATOM     28  F   UNL     1       2.161   1.744  17.179  0.00  0.00    +0.000 F 
ATOM     29  F   UNL     1       3.992   0.978  18.245  0.00  0.00    +0.000 F 
ENDBRANCH  24  26
BRANCH  20  30
ATOM     30  C   UNL     1       6.256   5.208  16.182  0.00  0.00    +0.000 C 
BRANCH  30  31
ATOM     31  N   UNL     1       7.533   4.623  16.574  0.00  0.00    +0.000 NA
ATOM     32  H   UNL     1       8.296   5.246  16.219  0.00  0.00    +0.000 HD
ATOM     33  H   UNL     1       7.640   3.696  16.101  0.00  0.00    +0.000 HD
ENDBRANCH  30  31
ENDBRANCH  20  30
ENDBRANCH  18  22
ENDBRANCH   1  18
TORSDOF 8
ENDMDL
MODEL 7
REMARK VINA RESULT:      -8.1      5.552      8.172
REMARK  Name = 
REMARK  8 active torsions:
REMARK  status: ('A' for Active; 'I' for Inactive)
REMARK    1  A    between atoms: N_1  and  C_2
REMARK    2  A    between atoms: C_2  and  C_3
REMARK    3  A    between atoms: C_5  and  N_6
REMARK    4  A    between atoms: N_6  and  C_7
REMARK    5  A    between atoms: C_7  and  C_8
REMARK    6  A    between atoms: C_12  and  C_13
REMARK    7  A    between atoms: N_15  and  C_16
REMARK    8  A    between atoms: C_24  and  C_25
REMARK                            x       y       z     vdW  Elec       q    Type
REMARK                         _______ _______ _______ _____ _____    ______ ____
ROOT
ATOM      1  C   UNL     1       1.996   6.537  20.371  0.00  0.00    +0.000 C 
ENDROOT
BRANCH   1   2
ATOM      2  C   UNL     1       1.549   7.931  20.052  0.00  0.00    +0.000 A 
ATOM      3  C   UNL     1       1.828   8.506  18.809  0.00  0.00    +0.000 A 
ATOM      4  C   UNL     1       1.455   9.826  18.554  0.00  0.00    +0.000 A 
ATOM      5  C   UNL     1       0.804  10.582  19.536  0.00  0.00    +0.000 A 
ATOM      6  C   UNL     1       0.510  10.017  20.797  0.00  0.00    +0.000 A 
ATOM      7  C   UNL     1       0.894   8.682  21.032  0.00  0.00    +0.000 A 
BRANCH   6   8
ATOM      8  C   UNL     1      -0.169  10.761  21.905  0.00  0.00    +0.000 C 
ATOM      9  O   UNL     1       0.061  10.398  23.048  0.00  0.00    +0.000 OA
ATOM     10  N   UNL     1      -1.052  11.786  21.675  0.00  0.00    +0.000 N 
ATOM     11  H   UNL     1      -1.298  12.012  20.704  0.00  0.00    +0.000 HD
BRANCH  10  12
ATOM     12  C   UNL     1      -1.734  12.545  22.685  0.00  0.00    +0.000 A 
ATOM     13  C   UNL     1      -2.968  12.159  23.266  0.00  0.00    +0.000 A 
ATOM     14  C   UNL     1      -3.582  12.959  24.231  0.00  0.00    +0.000 A 
ATOM     15  C   UNL     1      -2.988  14.152  24.640  0.00  0.00    +0.000 A 
ATOM     16  C   UNL     1      -1.766  14.541  24.094  0.00  0.00    +0.000 A 
ATOM     17  C   UNL     1      -1.139  13.743  23.131  0.00  0.00    +0.000 A 
ENDBRANCH  10  12
ENDBRANCH   6   8
ENDBRANCH   1   2
BRANCH   1  18
ATOM     18  N   UNL     1       3.399   6.322  20.075  0.00  0.00    +0.000 N 
ATOM     19  H   UNL     1       4.119   6.905  20.532  0.00  0.00    +0.000 HD
BRANCH  18  22
ATOM     20  C   UNL     1       3.394   3.299  17.880  0.00  0.00    +0.000 A 
ATOM     21  C   UNL     1       2.985   4.243  18.819  0.00  0.00    +0.000 A 
ATOM     22  C   UNL     1       3.809   5.338  19.130  0.00  0.00    +0.000 A 
ATOM     23  N   UNL     1       5.010   5.462  18.502  0.00  0.00    +0.000 NA
ATOM     24  C   UNL     1       5.445   4.557  17.579  0.00  0.00    +0.000 A 
ATOM     25  C   UNL     1       4.638   3.454  17.255  0.00  0.00    +0.000 A 
BRANCH  24  26
ATOM     26  C   UNL     1       6.774   4.748  16.906  0.00  0.00    +0.000 C 
ATOM     27  F   UNL     1       6.826   4.035  15.721  0.00  0.00    +0.000 F 
ATOM     28  F   UNL     1       6.970   6.089  16.632  0.00  0.00    +0.000 F 
ATOM     29  F   UNL     1       7.783   4.302  17.739  0.00  0.00    +0.000 F 
ENDBRANCH  24  26
BRANCH  20  30
ATOM     30  C   UNL     1       2.479   2.147  17.553  0.00  0.00    +0.000 C 
BRANCH  30  31
ATOM     31  N   UNL     1       1.568   1.879  18.660  0.00  0.00    +0.000 NA
ATOM     32  H   UNL     1       2.021   1.171  19.285  0.00  0.00    +0.000 HD
ATOM     33  H   UNL     1       0.693   1.448  18.282  0.00  0.00    +0.000 HD
ENDBRANCH  30  31
ENDBRANCH  20  30
ENDBRANCH  18  22
ENDBRANCH   1  18
TORSDOF 8
ENDMDL
MODEL 8
REMARK VINA RESULT:      -8.1      5.055      7.881
REMARK  Name = 
REMARK  8 active torsions:
REMARK  status: ('A' for Active; 'I' for Inactive)
REMARK    1  A    between atoms: N_1  and  C_2
REMARK    2  A    between atoms: C_2  and  C_3
REMARK    3  A    between atoms: C_5  and  N_6
REMARK    4  A    between atoms: N_6  and  C_7
REMARK    5  A    between atoms: C_7  and  C_8
REMARK    6  A    between atoms: C_12  and  C_13
REMARK    7  A    between atoms: N_15  and  C_16
REMARK    8  A    between atoms: C_24  and  C_25
REMARK                            x       y       z     vdW  Elec       q    Type
REMARK                         _______ _______ _______ _____ _____    ______ ____
ROOT
ATOM      1  C   UNL     1       2.763   6.154  19.844  0.00  0.00    +0.000 C 
ENDROOT
BRANCH   1   2
ATOM      2  C   UNL     1       2.171   7.457  19.401  0.00  0.00    +0.000 A 
ATOM      3  C   UNL     1       2.207   7.840  18.057  0.00  0.00    +0.000 A 
ATOM      4  C   UNL     1       1.703   9.083  17.674  0.00  0.00    +0.000 A 
ATOM      5  C   UNL     1       1.161   9.953  18.628  0.00  0.00    +0.000 A 
ATOM      6  C   UNL     1       1.113   9.582  19.990  0.00  0.00    +0.000 A 
ATOM      7  C   UNL     1       1.626   8.322  20.354  0.00  0.00    +0.000 A 
BRANCH   6   8
ATOM      8  C   UNL     1       0.565  10.460  21.074  0.00  0.00    +0.000 C 
ATOM      9  O   UNL     1       0.962  10.261  22.211  0.00  0.00    +0.000 OA
ATOM     10  N   UNL     1      -0.377  11.428  20.835  0.00  0.00    +0.000 N 
ATOM     11  H   UNL     1      -0.761  11.515  19.886  0.00  0.00    +0.000 HD
BRANCH  10  12
ATOM     12  C   UNL     1      -0.941  12.308  21.820  0.00  0.00    +0.000 A 
ATOM     13  C   UNL     1      -0.355  13.538  22.210  0.00  0.00    +0.000 A 
ATOM     14  C   UNL     1      -0.952  14.333  23.189  0.00  0.00    +0.000 A 
ATOM     15  C   UNL     1      -2.138  13.927  23.800  0.00  0.00    +0.000 A 
ATOM     16  C   UNL     1      -2.740  12.729  23.419  0.00  0.00    +0.000 A 
ATOM     17  C   UNL     1      -2.153  11.929  22.434  0.00  0.00    +0.000 A 
ENDBRANCH  10  12
ENDBRANCH   6   8
ENDBRANCH   1   2
BRANCH   1  18
ATOM     18  N   UNL     1       3.094   5.287  18.729  0.00  0.00    +0.000 N 
ATOM     19  H   UNL     1       2.386   4.636  18.352  0.00  0.00    +0.000 HD
BRANCH  18  22
ATOM     20  C   UNL     1       6.797   5.615  18.358  0.00  0.00    +0.000 A 
ATOM     21  C   UNL     1       5.525   5.635  18.926  0.00  0.00    +0.000 A 
ATOM     22  C   UNL     1       4.400   5.288  18.160  0.00  0.00    +0.000 A 
ATOM     23  N   UNL     1       4.569   4.932  16.857  0.00  0.00    +0.000 NA
ATOM     24  C   UNL     1       5.798   4.902  16.266  0.00  0.00    +0.000 A 
ATOM     25  C   UNL     1       6.936   5.248  17.013  0.00  0.00    +0.000 A 
BRANCH  24  26
ATOM     26  C   UNL     1       5.931   4.490  14.828  0.00  0.00    +0.000 C 
ATOM     27  F   UNL     1       4.689   4.209  14.286  0.00  0.00    +0.000 F 
ATOM     28  F   UNL     1       6.517   5.510  14.102  0.00  0.00    +0.000 F 
ATOM     29  F   UNL     1       6.721   3.358  14.742  0.00  0.00    +0.000 F 
ENDBRANCH  24  26
BRANCH  20  30
ATOM     30  C   UNL     1       7.986   5.972  19.211  0.00  0.00    +0.000 C 
BRANCH  30  31
ATOM     31  N   UNL     1       7.914   5.304  20.505  0.00  0.00    +0.000 NA
ATOM     32  H   UNL     1       8.112   6.016  21.247  0.00  0.00    +0.000 HD
ATOM     33  H   UNL     1       8.670   4.582  20.556  0.00  0.00    +0.000 HD
ENDBRANCH  30  31
ENDBRANCH  20  30
ENDBRANCH  18  22
ENDBRANCH   1  18
TORSDOF 8
ENDMDL
MODEL 9
REMARK VINA RESULT:      -8.0      5.054      6.839
REMARK  Name = 
REMARK  8 active torsions:
REMARK  status: ('A' for Active; 'I' for Inactive)
REMARK    1  A    between atoms: N_1  and  C_2
REMARK    2  A    between atoms: C_2  and  C_3
REMARK    3  A    between atoms: C_5  and  N_6
REMARK    4  A    between atoms: N_6  and  C_7
REMARK    5  A    between atoms: C_7  and  C_8
REMARK    6  A    between atoms: C_12  and  C_13
REMARK    7  A    between atoms: N_15  and  C_16
REMARK    8  A    between atoms: C_24  and  C_25
REMARK                            x       y       z     vdW  Elec       q    Type
REMARK                         _______ _______ _______ _____ _____    ______ ____
ROOT
ATOM      1  C   UNL     1       1.161   7.455  21.045  0.00  0.00    +0.000 C 
ENDROOT
BRANCH   1   2
ATOM      2  C   UNL     1       0.689   8.836  21.386  0.00  0.00    +0.000 A 
ATOM      3  C   UNL     1      -0.114   9.061  22.509  0.00  0.00    +0.000 A 
ATOM      4  C   UNL     1      -0.591  10.345  22.776  0.00  0.00    +0.000 A 
ATOM      5  C   UNL     1      -0.273  11.411  21.926  0.00  0.00    +0.000 A 
ATOM      6  C   UNL     1       0.540  11.203  20.789  0.00  0.00    +0.000 A 
ATOM      7  C   UNL     1       1.012   9.900  20.539  0.00  0.00    +0.000 A 
BRANCH   6   8
ATOM      8  C   UNL     1       0.913  12.286  19.823  0.00  0.00    +0.000 C 
ATOM      9  O   UNL     1       0.372  12.271  18.729  0.00  0.00    +0.000 OA
ATOM     10  N   UNL     1       1.852  13.243  20.111  0.00  0.00    +0.000 N 
ATOM     11  H   UNL     1       2.358  13.180  21.004  0.00  0.00    +0.000 HD
BRANCH  10  12
ATOM     12  C   UNL     1       2.254  14.310  19.239  0.00  0.00    +0.000 A 
ATOM     13  C   UNL     1       3.364  14.236  18.360  0.00  0.00    +0.000 A 
ATOM     14  C   UNL     1       3.707  15.322  17.553  0.00  0.00    +0.000 A 
ATOM     15  C   UNL     1       2.959  16.498  17.600  0.00  0.00    +0.000 A 
ATOM     16  C   UNL     1       1.854  16.586  18.445  0.00  0.00    +0.000 A 
ATOM     17  C   UNL     1       1.499  15.501  19.252  0.00  0.00    +0.000 A 
ENDBRANCH  10  12
ENDBRANCH   6   8
ENDBRANCH   1   2
BRANCH   1  18
ATOM     18  N   UNL     1       2.352   7.464  20.219  0.00  0.00    +0.000 N 
ATOM     19  H   UNL     1       3.001   8.267  20.255  0.00  0.00    +0.000 HD
BRANCH  18  22
ATOM     20  C   UNL     1       2.188   4.157  18.488  0.00  0.00    +0.000 A 
ATOM     21  C   UNL     1       1.912   5.188  19.383  0.00  0.00    +0.000 A 
ATOM     22  C   UNL     1       2.632   6.392  19.322  0.00  0.00    +0.000 A 
ATOM     23  N   UNL     1       3.602   6.538  18.378  0.00  0.00    +0.000 NA
ATOM     24  C   UNL     1       3.901   5.550  17.486  0.00  0.00    +0.000 A 
ATOM     25  C   UNL     1       3.195   4.337  17.531  0.00  0.00    +0.000 A 
BRANCH  24  26
ATOM     26  C   UNL     1       4.972   5.767  16.455  0.00  0.00    +0.000 C 
ATOM     27  F   UNL     1       4.731   6.927  15.741  0.00  0.00    +0.000 F 
ATOM     28  F   UNL     1       6.203   5.870  17.075  0.00  0.00    +0.000 F 
ATOM     29  F   UNL     1       4.992   4.700  15.577  0.00  0.00    +0.000 F 
ENDBRANCH  24  26
BRANCH  20  30
ATOM     30  C   UNL     1       1.384   2.885  18.565  0.00  0.00    +0.000 C 
BRANCH  30  31
ATOM     31  N   UNL     1       2.206   1.731  18.220  0.00  0.00    +0.000 NA
ATOM     32  H   UNL     1       1.608   1.058  17.686  0.00  0.00    +0.000 HD
ATOM     33  H   UNL     1       2.506   1.253  19.100  0.00  0.00    +0.000 HD
ENDBRANCH  30  31
ENDBRANCH  20  30
ENDBRANCH  18  22
ENDBRANCH   1  18
TORSDOF 8
ENDMDL
