MODEL 1
REMARK VINA RESULT:      -8.0      0.000      0.000
REMARK  Name = 
REMARK  7 active torsions:
REMARK  status: ('A' for Active; 'I' for Inactive)
REMARK    1  A    between atoms: C_2  and  C_3
REMARK    2  A    between atoms: C_3  and  N_4
REMARK    3  A    between atoms: C_5  and  C_7
REMARK    4  A    between atoms: C_7  and  O_8
REMARK    5  A    between atoms: O_8  and  C_9
REMARK    6  A    between atoms: C_9  and  C_11
REMARK    7  A    between atoms: C_17  and  O_18
REMARK                            x       y       z     vdW  Elec       q    Type
REMARK                         _______ _______ _______ _____ _____    ______ ____
ROOT
ATOM      1  O   UNL     1       2.671   7.081  18.425  0.00  0.00    +0.000 OA
ENDROOT
BRANCH   1   2
ATOM      2  C   UNL     1       3.376   6.011  17.967  0.00  0.00    +0.000 C 
ATOM      3  O   UNL     1       4.246   6.090  17.109  0.00  0.00    +0.000 OA
BRANCH   2   4
ATOM      4  C   UNL     1       2.929   4.711  18.644  0.00  0.00    +0.000 C 
ATOM      5  C   UNL     1       2.172   5.024  19.959  0.00  0.00    +0.000 C 
ATOM      6  C   UNL     1       1.736   3.724  20.660  0.00  0.00    +0.000 C 
ATOM      7  C   UNL     1       0.815   2.925  19.721  0.00  0.00    +0.000 C 
ATOM      8  C   UNL     1       1.554   2.587  18.415  0.00  0.00    +0.000 C 
ATOM      9  C   UNL     1       2.800   1.749  18.743  0.00  0.00    +0.000 C 
ATOM     10  C   UNL     1       3.728   2.539  19.680  0.00  0.00    +0.000 C 
ATOM     11  C   UNL     1       2.977   2.877  20.979  0.00  0.00    +0.000 C 
ATOM     12  C   UNL     1       4.160   3.843  18.990  0.00  0.00    +0.000 C 
ATOM     13  C   UNL     1       1.989   3.895  17.724  0.00  0.00    +0.000 C 
BRANCH  10  14
ATOM     14  O   UNL     1       4.884   1.770  19.976  0.00  0.00    +0.000 OA
ATOM     15  H   UNL     1       5.385   2.232  20.670  0.00  0.00    +0.000 HD
ENDBRANCH  10  14
ENDBRANCH   2   4
ENDBRANCH   1   2
BRANCH   1  16
ATOM     16  C   UNL     1       2.783   8.253  17.614  0.00  0.00    +0.000 C 
BRANCH  16  18
ATOM     17  N   UNL     1       1.196   9.079  19.306  0.00  0.00    +0.000 N 
ATOM     18  C   UNL     1       1.943   9.385  18.186  0.00  0.00    +0.000 C 
ATOM     19  O   UNL     1       1.938  10.493  17.651  0.00  0.00    +0.000 OA
ATOM     20  H   UNL     1       1.091   8.098  19.558  0.00  0.00    +0.000 HD
BRANCH  17  21
ATOM     21  C   UNL     1       0.309  10.073  19.964  0.00  0.00    +0.000 C 
ATOM     22  C   UNL     1       1.107  11.374  20.239  0.00  0.00    +0.000 C 
ATOM     23  C   UNL     1       0.242  12.531  20.743  0.00  0.00    +0.000 C 
ATOM     24  C   UNL     1      -0.966  12.789  19.848  0.00  0.00    +0.000 C 
ATOM     25  C   UNL     1      -1.781  11.521  19.626  0.00  0.00    +0.000 C 
ATOM     26  C   UNL     1      -0.916  10.388  19.078  0.00  0.00    +0.000 C 
BRANCH  21  28
ATOM     27  N   UNL     1      -0.489   9.122  22.320  0.00  0.00    +0.000 NA
ATOM     28  C   UNL     1      -0.143   9.521  21.290  0.00  0.00    +0.000 C 
ENDBRANCH  21  28
ENDBRANCH  17  21
ENDBRANCH  16  18
ENDBRANCH   1  16
TORSDOF 7
ENDMDL
MODEL 2
REMARK VINA RESULT:      -8.0      0.854      1.459
REMARK  Name = 
REMARK  7 active torsions:
REMARK  status: ('A' for Active; 'I' for Inactive)
REMARK    1  A    between atoms: C_2  and  C_3
REMARK    2  A    between atoms: C_3  and  N_4
REMARK    3  A    between atoms: C_5  and  C_7
REMARK    4  A    between atoms: C_7  and  O_8
REMARK    5  A    between atoms: O_8  and  C_9
REMARK    6  A    between atoms: C_9  and  C_11
REMARK    7  A    between atoms: C_17  and  O_18
REMARK                            x       y       z     vdW  Elec       q    Type
REMARK                         _______ _______ _______ _____ _____    ______ ____
ROOT
ATOM      1  O   UNL     1       2.585   7.083  18.524  0.00  0.00    +0.000 OA
ENDROOT
BRANCH   1   2
ATOM      2  C   UNL     1       3.545   6.125  18.406  0.00  0.00    +0.000 C 
ATOM      3  O   UNL     1       4.654   6.334  17.931  0.00  0.00    +0.000 OA
BRANCH   2   4
ATOM      4  C   UNL     1       3.053   4.768  18.920  0.00  0.00    +0.000 C 
ATOM      5  C   UNL     1       2.226   4.954  20.217  0.00  0.00    +0.000 C 
ATOM      6  C   UNL     1       1.743   3.595  20.755  0.00  0.00    +0.000 C 
ATOM      7  C   UNL     1       0.872   2.907  19.691  0.00  0.00    +0.000 C 
ATOM      8  C   UNL     1       1.682   2.695  18.400  0.00  0.00    +0.000 C 
ATOM      9  C   UNL     1       2.902   1.814  18.709  0.00  0.00    +0.000 C 
ATOM     10  C   UNL     1       3.780   2.494  19.771  0.00  0.00    +0.000 C 
ATOM     11  C   UNL     1       2.960   2.707  21.054  0.00  0.00    +0.000 C 
ATOM     12  C   UNL     1       4.258   3.856  19.243  0.00  0.00    +0.000 C 
ATOM     13  C   UNL     1       2.162   4.061  17.871  0.00  0.00    +0.000 C 
BRANCH  10  14
ATOM     14  O   UNL     1       4.914   1.685  20.051  0.00  0.00    +0.000 OA
ATOM     15  H   UNL     1       4.814   0.847  19.567  0.00  0.00    +0.000 HD
ENDBRANCH  10  14
ENDBRANCH   2   4
ENDBRANCH   1   2
BRANCH   1  16
ATOM     16  C   UNL     1       2.832   8.265  17.759  0.00  0.00    +0.000 C 
BRANCH  16  18
ATOM     17  N   UNL     1       1.265   9.219  19.401  0.00  0.00    +0.000 N 
ATOM     18  C   UNL     1       1.898   9.388  18.186  0.00  0.00    +0.000 C 
ATOM     19  O   UNL     1       1.726  10.368  17.464  0.00  0.00    +0.000 OA
ATOM     20  H   UNL     1       1.296   8.298  19.833  0.00  0.00    +0.000 HD
BRANCH  17  21
ATOM     21  C   UNL     1       0.308  10.218  19.943  0.00  0.00    +0.000 C 
ATOM     22  C   UNL     1      -0.129   9.793  21.369  0.00  0.00    +0.000 C 
ATOM     23  C   UNL     1      -0.967  10.847  22.095  0.00  0.00    +0.000 C 
ATOM     24  C   UNL     1      -0.306  12.221  22.094  0.00  0.00    +0.000 C 
ATOM     25  C   UNL     1       0.070  12.662  20.685  0.00  0.00    +0.000 C 
ATOM     26  C   UNL     1       0.947  11.623  19.988  0.00  0.00    +0.000 C 
BRANCH  21  28
ATOM     27  N   UNL     1      -1.853  10.270  18.388  0.00  0.00    +0.000 NA
ATOM     28  C   UNL     1      -0.921  10.238  19.073  0.00  0.00    +0.000 C 
ENDBRANCH  21  28
ENDBRANCH  17  21
ENDBRANCH  16  18
ENDBRANCH   1  16
TORSDOF 7
ENDMDL
MODEL 3
REMARK VINA RESULT:      -8.0      1.289      1.702
REMARK  Name = 
REMARK  7 active torsions:
REMARK  status: ('A' for Active; 'I' for Inactive)
REMARK    1  A    between atoms: C_2  and  C_3
REMARK    2  A    between atoms: C_3  and  N_4
REMARK    3  A    between atoms: C_5  and  C_7
REMARK    4  A    between atoms: C_7  and  O_8
REMARK    5  A    between atoms: O_8  and  C_9
REMARK    6  A    between atoms: C_9  and  C_11
REMARK    7  A    between atoms: C_17  and  O_18
REMARK                            x       y       z     vdW  Elec       q    Type
REMARK                         _______ _______ _______ _____ _____    ______ ____
ROOT
ATOM      1  O   UNL     1       2.332   7.580  19.008  0.00  0.00    +0.000 OA
ENDROOT
BRANCH   1   2
ATOM      2  C   UNL     1       3.157   6.637  18.476  0.00  0.00    +0.000 C 
ATOM      3  O   UNL     1       4.076   6.897  17.709  0.00  0.00    +0.000 OA
BRANCH   2   4
ATOM      4  C   UNL     1       2.776   5.228  18.942  0.00  0.00    +0.000 C 
ATOM      5  C   UNL     1       2.015   5.297  20.290  0.00  0.00    +0.000 C 
ATOM      6  C   UNL     1       1.645   3.885  20.781  0.00  0.00    +0.000 C 
ATOM      7  C   UNL     1       0.755   3.199  19.729  0.00  0.00    +0.000 C 
ATOM      8  C   UNL     1       1.500   3.103  18.387  0.00  0.00    +0.000 C 
ATOM      9  C   UNL     1       2.786   2.284  18.580  0.00  0.00    +0.000 C 
ATOM     10  C   UNL     1       3.683   2.962  19.628  0.00  0.00    +0.000 C 
ATOM     11  C   UNL     1       2.926   3.059  20.964  0.00  0.00    +0.000 C 
ATOM     12  C   UNL     1       4.048   4.377  19.149  0.00  0.00    +0.000 C 
ATOM     13  C   UNL     1       1.868   4.522  17.907  0.00  0.00    +0.000 C 
BRANCH  10  14
ATOM     14  O   UNL     1       4.876   2.212  19.801  0.00  0.00    +0.000 OA
ATOM     15  H   UNL     1       4.919   1.923  20.729  0.00  0.00    +0.000 HD
ENDBRANCH  10  14
ENDBRANCH   2   4
ENDBRANCH   1   2
BRANCH   1  16
ATOM     16  C   UNL     1       1.789   8.495  18.053  0.00  0.00    +0.000 C 
BRANCH  16  18
ATOM     17  N   UNL     1       0.669   9.591  19.952  0.00  0.00    +0.000 N 
ATOM     18  C   UNL     1       1.305   9.764  18.740  0.00  0.00    +0.000 C 
ATOM     19  O   UNL     1       1.471  10.864  18.214  0.00  0.00    +0.000 OA
ATOM     20  H   UNL     1       0.386   8.649  20.215  0.00  0.00    +0.000 HD
BRANCH  17  21
ATOM     21  C   UNL     1       0.121  10.732  20.731  0.00  0.00    +0.000 C 
ATOM     22  C   UNL     1      -1.088  11.340  19.974  0.00  0.00    +0.000 C 
ATOM     23  C   UNL     1      -1.846  12.400  20.775  0.00  0.00    +0.000 C 
ATOM     24  C   UNL     1      -2.240  11.910  22.164  0.00  0.00    +0.000 C 
ATOM     25  C   UNL     1      -1.041  11.365  22.929  0.00  0.00    +0.000 C 
ATOM     26  C   UNL     1      -0.321  10.274  22.139  0.00  0.00    +0.000 C 
BRANCH  21  28
ATOM     27  N   UNL     1       1.988  12.616  20.957  0.00  0.00    +0.000 NA
ATOM     28  C   UNL     1       1.177  11.798  20.844  0.00  0.00    +0.000 C 
ENDBRANCH  21  28
ENDBRANCH  17  21
ENDBRANCH  16  18
ENDBRANCH   1  16
TORSDOF 7
ENDMDL
MODEL 4
REMARK VINA RESULT:      -8.0      1.169      1.859
REMARK  Name = 
REMARK  7 active torsions:
REMARK  status: ('A' for Active; 'I' for Inactive)
REMARK    1  A    between atoms: C_2  and  C_3
REMARK    2  A    between atoms: C_3  and  N_4
REMARK    3  A    between atoms: C_5  and  C_7
REMARK    4  A    between atoms: C_7  and  O_8
REMARK    5  A    between atoms: O_8  and  C_9
REMARK    6  A    between atoms: C_9  and  C_11
REMARK    7  A    between atoms: C_17  and  O_18
REMARK                            x       y       z     vdW  Elec       q    Type
REMARK                         _______ _______ _______ _____ _____    ______ ____
ROOT
ATOM      1  O   UNL     1       2.306   6.814  18.130  0.00  0.00    +0.000 OA
ENDROOT
BRANCH   1   2
ATOM      2  C   UNL     1       3.392   5.993  18.122  0.00  0.00    +0.000 C 
ATOM      3  O   UNL     1       4.507   6.351  17.762  0.00  0.00    +0.000 OA
BRANCH   2   4
ATOM      4  C   UNL     1       3.035   4.581  18.596  0.00  0.00    +0.000 C 
ATOM      5  C   UNL     1       1.960   4.646  19.710  0.00  0.00    +0.000 C 
ATOM      6  C   UNL     1       1.608   3.233  20.211  0.00  0.00    +0.000 C 
ATOM      7  C   UNL     1       1.072   2.397  19.035  0.00  0.00    +0.000 C 
ATOM      8  C   UNL     1       2.132   2.303  17.925  0.00  0.00    +0.000 C 
ATOM      9  C   UNL     1       3.398   1.639  18.489  0.00  0.00    +0.000 C 
ATOM     10  C   UNL     1       3.942   2.468  19.664  0.00  0.00    +0.000 C 
ATOM     11  C   UNL     1       2.872   2.560  20.765  0.00  0.00    +0.000 C 
ATOM     12  C   UNL     1       4.287   3.884  19.173  0.00  0.00    +0.000 C 
ATOM     13  C   UNL     1       2.480   3.723  17.434  0.00  0.00    +0.000 C 
BRANCH  10  14
ATOM     14  O   UNL     1       5.117   1.861  20.181  0.00  0.00    +0.000 OA
ATOM     15  H   UNL     1       5.413   2.380  20.948  0.00  0.00    +0.000 HD
ENDBRANCH  10  14
ENDBRANCH   2   4
ENDBRANCH   1   2
BRANCH   1  16
ATOM     16  C   UNL     1       2.355   7.848  19.116  0.00  0.00    +0.000 C 
BRANCH  16  18
ATOM     17  N   UNL     1       0.693   9.615  19.539  0.00  0.00    +0.000 N 
ATOM     18  C   UNL     1       1.596   9.079  18.643  0.00  0.00    +0.000 C 
ATOM     19  O   UNL     1       1.786   9.537  17.517  0.00  0.00    +0.000 OA
ATOM     20  H   UNL     1       0.443   9.061  20.356  0.00  0.00    +0.000 HD
BRANCH  17  21
ATOM     21  C   UNL     1      -0.139  10.802  19.213  0.00  0.00    +0.000 C 
ATOM     22  C   UNL     1      -1.071  10.468  18.019  0.00  0.00    +0.000 C 
ATOM     23  C   UNL     1      -2.104  11.556  17.721  0.00  0.00    +0.000 C 
ATOM     24  C   UNL     1      -2.897  11.962  18.958  0.00  0.00    +0.000 C 
ATOM     25  C   UNL     1      -1.980  12.345  20.113  0.00  0.00    +0.000 C 
ATOM     26  C   UNL     1      -0.985  11.232  20.432  0.00  0.00    +0.000 C 
BRANCH  21  28
ATOM     27  N   UNL     1       1.479  12.782  18.470  0.00  0.00    +0.000 NA
ATOM     28  C   UNL     1       0.764  11.930  18.790  0.00  0.00    +0.000 C 
ENDBRANCH  21  28
ENDBRANCH  17  21
ENDBRANCH  16  18
ENDBRANCH   1  16
TORSDOF 7
ENDMDL
MODEL 5
REMARK VINA RESULT:      -7.9      1.154      1.708
REMARK  Name = 
REMARK  7 active torsions:
REMARK  status: ('A' for Active; 'I' for Inactive)
REMARK    1  A    between atoms: C_2  and  C_3
REMARK    2  A    between atoms: C_3  and  N_4
REMARK    3  A    between atoms: C_5  and  C_7
REMARK    4  A    between atoms: C_7  and  O_8
REMARK    5  A    between atoms: O_8  and  C_9
REMARK    6  A    between atoms: C_9  and  C_11
REMARK    7  A    between atoms: C_17  and  O_18
REMARK                            x       y       z     vdW  Elec       q    Type
REMARK                         _______ _______ _______ _____ _____    ______ ____
ROOT
ATOM      1  O   UNL     1       2.245   6.843  18.144  0.00  0.00    +0.000 OA
ENDROOT
BRANCH   1   2
ATOM      2  C   UNL     1       3.340   6.035  18.145  0.00  0.00    +0.000 C 
ATOM      3  O   UNL     1       4.453   6.404  17.791  0.00  0.00    +0.000 OA
BRANCH   2   4
ATOM      4  C   UNL     1       2.996   4.620  18.621  0.00  0.00    +0.000 C 
ATOM      5  C   UNL     1       1.937   4.678  19.750  0.00  0.00    +0.000 C 
ATOM      6  C   UNL     1       1.597   3.263  20.253  0.00  0.00    +0.000 C 
ATOM      7  C   UNL     1       1.048   2.427  19.083  0.00  0.00    +0.000 C 
ATOM      8  C   UNL     1       2.093   2.340  17.958  0.00  0.00    +0.000 C 
ATOM      9  C   UNL     1       3.369   1.680  18.503  0.00  0.00    +0.000 C 
ATOM     10  C   UNL     1       3.927   2.509  19.671  0.00  0.00    +0.000 C 
ATOM     11  C   UNL     1       2.872   2.594  20.788  0.00  0.00    +0.000 C 
ATOM     12  C   UNL     1       4.259   3.927  19.178  0.00  0.00    +0.000 C 
ATOM     13  C   UNL     1       2.427   3.763  17.465  0.00  0.00    +0.000 C 
BRANCH  10  14
ATOM     14  O   UNL     1       5.111   1.905  20.170  0.00  0.00    +0.000 OA
ATOM     15  H   UNL     1       5.339   2.336  21.012  0.00  0.00    +0.000 HD
ENDBRANCH  10  14
ENDBRANCH   2   4
ENDBRANCH   1   2
BRANCH   1  16
ATOM     16  C   UNL     1       2.295   7.905  19.100  0.00  0.00    +0.000 C 
BRANCH  16  18
ATOM     17  N   UNL     1       0.618   9.670  19.468  0.00  0.00    +0.000 N 
ATOM     18  C   UNL     1       1.534   9.122  18.593  0.00  0.00    +0.000 C 
ATOM     19  O   UNL     1       1.734   9.559  17.461  0.00  0.00    +0.000 OA
ATOM     20  H   UNL     1       0.361   9.132  20.293  0.00  0.00    +0.000 HD
BRANCH  17  21
ATOM     21  C   UNL     1      -0.217  10.846  19.108  0.00  0.00    +0.000 C 
ATOM     22  C   UNL     1      -1.075  11.262  20.332  0.00  0.00    +0.000 C 
ATOM     23  C   UNL     1      -1.832  12.577  20.133  0.00  0.00    +0.000 C 
ATOM     24  C   UNL     1      -0.923  13.710  19.671  0.00  0.00    +0.000 C 
ATOM     25  C   UNL     1      -0.123  13.319  18.434  0.00  0.00    +0.000 C 
ATOM     26  C   UNL     1       0.666  12.031  18.661  0.00  0.00    +0.000 C 
BRANCH  21  28
ATOM     27  N   UNL     1      -1.863  10.167  17.128  0.00  0.00    +0.000 NA
ATOM     28  C   UNL     1      -1.157  10.457  17.999  0.00  0.00    +0.000 C 
ENDBRANCH  21  28
ENDBRANCH  17  21
ENDBRANCH  16  18
ENDBRANCH   1  16
TORSDOF 7
ENDMDL
MODEL 6
REMARK VINA RESULT:      -7.9      5.667      7.130
REMARK  Name = 
REMARK  7 active torsions:
REMARK  status: ('A' for Active; 'I' for Inactive)
REMARK    1  A    between atoms: C_2  and  C_3
REMARK    2  A    between atoms: C_3  and  N_4
REMARK    3  A    between atoms: C_5  and  C_7
REMARK    4  A    between atoms: C_7  and  O_8
REMARK    5  A    between atoms: O_8  and  C_9
REMARK    6  A    between atoms: C_9  and  C_11
REMARK    7  A    between atoms: C_17  and  O_18
REMARK                            x       y       z     vdW  Elec       q    Type
REMARK                         _______ _______ _______ _____ _____    ______ ____
ROOT
ATOM      1  O   UNL     1       7.646   6.975  17.728  0.00  0.00    +0.000 OA
ENDROOT
BRANCH   1   2
ATOM      2  C   UNL     1       6.994   6.121  16.894  0.00  0.00    +0.000 C 
ATOM      3  O   UNL     1       7.368   5.869  15.755  0.00  0.00    +0.000 OA
BRANCH   2   4
ATOM      4  C   UNL     1       5.738   5.541  17.551  0.00  0.00    +0.000 C 
ATOM      5  C   UNL     1       5.871   5.585  19.094  0.00  0.00    +0.000 C 
ATOM      6  C   UNL     1       4.624   4.986  19.768  0.00  0.00    +0.000 C 
ATOM      7  C   UNL     1       3.381   5.788  19.342  0.00  0.00    +0.000 C 
ATOM      8  C   UNL     1       3.219   5.740  17.813  0.00  0.00    +0.000 C 
ATOM      9  C   UNL     1       3.060   4.278  17.367  0.00  0.00    +0.000 C 
ATOM     10  C   UNL     1       4.297   3.468  17.787  0.00  0.00    +0.000 C 
ATOM     11  C   UNL     1       4.454   3.528  19.316  0.00  0.00    +0.000 C 
ATOM     12  C   UNL     1       5.549   4.068  17.126  0.00  0.00    +0.000 C 
ATOM     13  C   UNL     1       4.475   6.340  17.150  0.00  0.00    +0.000 C 
BRANCH  10  14
ATOM     14  O   UNL     1       4.156   2.118  17.368  0.00  0.00    +0.000 OA
ATOM     15  H   UNL     1       3.810   1.604  18.117  0.00  0.00    +0.000 HD
ENDBRANCH  10  14
ENDBRANCH   2   4
ENDBRANCH   1   2
BRANCH   1  16
ATOM     16  C   UNL     1       7.421   8.359  17.450  0.00  0.00    +0.000 C 
BRANCH  16  18
ATOM     17  N   UNL     1       8.491  10.548  17.809  0.00  0.00    +0.000 N 
ATOM     18  C   UNL     1       8.411   9.229  18.211  0.00  0.00    +0.000 C 
ATOM     19  O   UNL     1       9.096   8.755  19.115  0.00  0.00    +0.000 OA
ATOM     20  H   UNL     1       8.053  10.808  16.928  0.00  0.00    +0.000 HD
BRANCH  17  21
ATOM     21  C   UNL     1       9.426  11.514  18.441  0.00  0.00    +0.000 C 
ATOM     22  C   UNL     1       9.552  11.197  19.954  0.00  0.00    +0.000 C 
ATOM     23  C   UNL     1      10.635  12.011  20.665  0.00  0.00    +0.000 C 
ATOM     24  C   UNL     1      11.984  11.931  19.959  0.00  0.00    +0.000 C 
ATOM     25  C   UNL     1      11.869  12.298  18.485  0.00  0.00    +0.000 C 
ATOM     26  C   UNL     1      10.819  11.446  17.775  0.00  0.00    +0.000 C 
BRANCH  21  28
ATOM     27  N   UNL     1       8.447  13.978  18.199  0.00  0.00    +0.000 NA
ATOM     28  C   UNL     1       8.859  12.902  18.308  0.00  0.00    +0.000 C 
ENDBRANCH  21  28
ENDBRANCH  17  21
ENDBRANCH  16  18
ENDBRANCH   1  16
TORSDOF 7
ENDMDL
MODEL 7
REMARK VINA RESULT:      -7.9      1.399      2.030
REMARK  Name = 
REMARK  7 active torsions:
REMARK  status: ('A' for Active; 'I' for Inactive)
REMARK    1  A    between atoms: C_2  and  C_3
REMARK    2  A    between atoms: C_3  and  N_4
REMARK    3  A    between atoms: C_5  and  C_7
REMARK    4  A    between atoms: C_7  and  O_8
REMARK    5  A    between atoms: O_8  and  C_9
REMARK    6  A    between atoms: C_9  and  C_11
REMARK    7  A    between atoms: C_17  and  O_18
REMARK                            x       y       z     vdW  Elec       q    Type
REMARK                         _______ _______ _______ _____ _____    ______ ____
ROOT
ATOM      1  O   UNL     1       2.096   7.074  17.958  0.00  0.00    +0.000 OA
ENDROOT
BRANCH   1   2
ATOM      2  C   UNL     1       3.191   6.292  18.161  0.00  0.00    +0.000 C 
ATOM      3  O   UNL     1       4.334   6.645  17.898  0.00  0.00    +0.000 OA
BRANCH   2   4
ATOM      4  C   UNL     1       2.807   4.924  18.736  0.00  0.00    +0.000 C 
ATOM      5  C   UNL     1       2.028   5.101  20.064  0.00  0.00    +0.000 C 
ATOM      6  C   UNL     1       1.655   3.733  20.663  0.00  0.00    +0.000 C 
ATOM      7  C   UNL     1       0.780   2.960  19.660  0.00  0.00    +0.000 C 
ATOM      8  C   UNL     1       1.543   2.757  18.339  0.00  0.00    +0.000 C 
ATOM      9  C   UNL     1       2.828   1.961  18.616  0.00  0.00    +0.000 C 
ATOM     10  C   UNL     1       3.709   2.725  19.617  0.00  0.00    +0.000 C 
ATOM     11  C   UNL     1       2.935   2.928  20.930  0.00  0.00    +0.000 C 
ATOM     12  C   UNL     1       4.078   4.097  19.028  0.00  0.00    +0.000 C 
ATOM     13  C   UNL     1       1.914   4.133  17.751  0.00  0.00    +0.000 C 
BRANCH  10  14
ATOM     14  O   UNL     1       4.902   1.995  19.866  0.00  0.00    +0.000 OA
ATOM     15  H   UNL     1       5.178   1.573  19.034  0.00  0.00    +0.000 HD
ENDBRANCH  10  14
ENDBRANCH   2   4
ENDBRANCH   1   2
BRANCH   1  16
ATOM     16  C   UNL     1       2.388   8.462  17.776  0.00  0.00    +0.000 C 
BRANCH  16  18
ATOM     17  N   UNL     1       1.332  10.619  18.319  0.00  0.00    +0.000 N 
ATOM     18  C   UNL     1       1.551   9.316  18.718  0.00  0.00    +0.000 C 
ATOM     19  O   UNL     1       1.121   8.849  19.771  0.00  0.00    +0.000 OA
ATOM     20  H   UNL     1       1.890  10.985  17.550  0.00  0.00    +0.000 HD
BRANCH  17  21
ATOM     21  C   UNL     1       0.553  11.580  19.142  0.00  0.00    +0.000 C 
ATOM     22  C   UNL     1      -0.961  11.392  18.861  0.00  0.00    +0.000 C 
ATOM     23  C   UNL     1      -1.865  12.200  19.793  0.00  0.00    +0.000 C 
ATOM     24  C   UNL     1      -1.534  11.977  21.265  0.00  0.00    +0.000 C 
ATOM     25  C   UNL     1      -0.057  12.218  21.551  0.00  0.00    +0.000 C 
ATOM     26  C   UNL     1       0.835  11.370  20.646  0.00  0.00    +0.000 C 
BRANCH  21  28
ATOM     27  N   UNL     1       1.205  14.068  18.453  0.00  0.00    +0.000 NA
ATOM     28  C   UNL     1       0.925  12.982  18.739  0.00  0.00    +0.000 C 
ENDBRANCH  21  28
ENDBRANCH  17  21
ENDBRANCH  16  18
ENDBRANCH   1  16
TORSDOF 7
ENDMDL
MODEL 8
REMARK VINA RESULT:      -7.8      5.698      7.370
REMARK  Name = 
REMARK  7 active torsions:
REMARK  status: ('A' for Active; 'I' for Inactive)
REMARK    1  A    between atoms: C_2  and  C_3
REMARK    2  A    between atoms: C_3  and  N_4
REMARK    3  A    between atoms: C_5  and  C_7
REMARK    4  A    between atoms: C_7  and  O_8
REMARK    5  A    between atoms: O_8  and  C_9
REMARK    6  A    between atoms: C_9  and  C_11
REMARK    7  A    between atoms: C_17  and  O_18
REMARK                            x       y       z     vdW  Elec       q    Type
REMARK                         _______ _______ _______ _____ _____    ______ ____
ROOT
ATOM      1  O   UNL     1       7.559   7.116  17.874  0.00  0.00    +0.000 OA
ENDROOT
BRANCH   1   2
ATOM      2  C   UNL     1       6.990   6.231  17.012  0.00  0.00    +0.000 C 
ATOM      3  O   UNL     1       7.412   6.020  15.882  0.00  0.00    +0.000 OA
BRANCH   2   4
ATOM      4  C   UNL     1       5.758   5.558  17.626  0.00  0.00    +0.000 C 
ATOM      5  C   UNL     1       5.426   4.251  16.864  0.00  0.00    +0.000 C 
ATOM      6  C   UNL     1       4.176   3.576  17.458  0.00  0.00    +0.000 C 
ATOM      7  C   UNL     1       4.432   3.249  18.940  0.00  0.00    +0.000 C 
ATOM      8  C   UNL     1       4.745   4.538  19.720  0.00  0.00    +0.000 C 
ATOM      9  C   UNL     1       3.551   5.499  19.607  0.00  0.00    +0.000 C 
ATOM     10  C   UNL     1       3.289   5.832  18.129  0.00  0.00    +0.000 C 
ATOM     11  C   UNL     1       2.983   4.537  17.359  0.00  0.00    +0.000 C 
ATOM     12  C   UNL     1       4.536   6.499  17.527  0.00  0.00    +0.000 C 
ATOM     13  C   UNL     1       5.995   5.207  19.114  0.00  0.00    +0.000 C 
BRANCH  10  14
ATOM     14  O   UNL     1       2.192   6.728  18.024  0.00  0.00    +0.000 OA
ATOM     15  H   UNL     1       1.415   6.222  17.728  0.00  0.00    +0.000 HD
ENDBRANCH  10  14
ENDBRANCH   2   4
ENDBRANCH   1   2
BRANCH   1  16
ATOM     16  C   UNL     1       7.443   8.485  17.478  0.00  0.00    +0.000 C 
BRANCH  16  18
ATOM     17  N   UNL     1       8.523  10.669  17.830  0.00  0.00    +0.000 N 
ATOM     18  C   UNL     1       8.448   9.349  18.226  0.00  0.00    +0.000 C 
ATOM     19  O   UNL     1       9.148   8.868  19.115  0.00  0.00    +0.000 OA
ATOM     20  H   UNL     1       8.070  10.935  16.958  0.00  0.00    +0.000 HD
BRANCH  17  21
ATOM     21  C   UNL     1       9.472  11.631  18.450  0.00  0.00    +0.000 C 
ATOM     22  C   UNL     1       9.586  11.336  19.968  0.00  0.00    +0.000 C 
ATOM     23  C   UNL     1      10.679  12.144  20.671  0.00  0.00    +0.000 C 
ATOM     24  C   UNL     1      12.029  12.031  19.972  0.00  0.00    +0.000 C 
ATOM     25  C   UNL     1      11.926  12.376  18.492  0.00  0.00    +0.000 C 
ATOM     26  C   UNL     1      10.865  11.529  17.791  0.00  0.00    +0.000 C 
BRANCH  21  28
ATOM     27  N   UNL     1       8.514  14.096  18.145  0.00  0.00    +0.000 NA
ATOM     28  C   UNL     1       8.927  13.025  18.292  0.00  0.00    +0.000 C 
ENDBRANCH  21  28
ENDBRANCH  17  21
ENDBRANCH  16  18
ENDBRANCH   1  16
TORSDOF 7
ENDMDL
MODEL 9
REMARK VINA RESULT:      -7.8      1.766      2.564
REMARK  Name = 
REMARK  7 active torsions:
REMARK  status: ('A' for Active; 'I' for Inactive)
REMARK    1  A    between atoms: C_2  and  C_3
REMARK    2  A    between atoms: C_3  and  N_4
REMARK    3  A    between atoms: C_5  and  C_7
REMARK    4  A    between atoms: C_7  and  O_8
REMARK    5  A    between atoms: O_8  and  C_9
REMARK    6  A    between atoms: C_9  and  C_11
REMARK    7  A    between atoms: C_17  and  O_18
REMARK                            x       y       z     vdW  Elec       q    Type
REMARK                         _______ _______ _______ _____ _____    ______ ____
ROOT
ATOM      1  O   UNL     1       1.446   6.969  20.778  0.00  0.00    +0.000 OA
ENDROOT
BRANCH   1   2
ATOM      2  C   UNL     1       2.168   6.737  19.648  0.00  0.00    +0.000 C 
ATOM      3  O   UNL     1       2.624   7.627  18.941  0.00  0.00    +0.000 OA
BRANCH   2   4
ATOM      4  C   UNL     1       2.315   5.237  19.372  0.00  0.00    +0.000 C 
ATOM      5  C   UNL     1       1.405   4.425  20.328  0.00  0.00    +0.000 C 
ATOM      6  C   UNL     1       1.559   2.914  20.075  0.00  0.00    +0.000 C 
ATOM      7  C   UNL     1       1.175   2.600  18.618  0.00  0.00    +0.000 C 
ATOM      8  C   UNL     1       2.081   3.383  17.652  0.00  0.00    +0.000 C 
ATOM      9  C   UNL     1       3.544   2.979  17.892  0.00  0.00    +0.000 C 
ATOM     10  C   UNL     1       3.938   3.290  19.345  0.00  0.00    +0.000 C 
ATOM     11  C   UNL     1       3.023   2.508  20.303  0.00  0.00    +0.000 C 
ATOM     12  C   UNL     1       3.777   4.796  19.607  0.00  0.00    +0.000 C 
ATOM     13  C   UNL     1       1.921   4.893  17.916  0.00  0.00    +0.000 C 
BRANCH  10  14
ATOM     14  O   UNL     1       5.293   2.926  19.567  0.00  0.00    +0.000 OA
ATOM     15  H   UNL     1       5.643   3.484  20.282  0.00  0.00    +0.000 HD
ENDBRANCH  10  14
ENDBRANCH   2   4
ENDBRANCH   1   2
BRANCH   1  16
ATOM     16  C   UNL     1       1.590   8.289  21.309  0.00  0.00    +0.000 C 
BRANCH  16  18
ATOM     17  N   UNL     1       0.827  10.159  19.902  0.00  0.00    +0.000 N 
ATOM     18  C   UNL     1       0.468   9.192  20.818  0.00  0.00    +0.000 C 
ATOM     19  O   UNL     1      -0.678   9.054  21.243  0.00  0.00    +0.000 OA
ATOM     20  H   UNL     1       1.819  10.344  19.763  0.00  0.00    +0.000 HD
BRANCH  17  21
ATOM     21  C   UNL     1      -0.152  11.130  19.347  0.00  0.00    +0.000 C 
ATOM     22  C   UNL     1      -0.958  10.455  18.206  0.00  0.00    +0.000 C 
ATOM     23  C   UNL     1      -2.123  11.302  17.691  0.00  0.00    +0.000 C 
ATOM     24  C   UNL     1      -3.034  11.786  18.814  0.00  0.00    +0.000 C 
ATOM     25  C   UNL     1      -2.248  12.499  19.907  0.00  0.00    +0.000 C 
ATOM     26  C   UNL     1      -1.118  11.625  20.447  0.00  0.00    +0.000 C 
BRANCH  21  28
ATOM     27  N   UNL     1       1.152  13.207  18.311  0.00  0.00    +0.000 NA
ATOM     28  C   UNL     1       0.595  12.295  18.756  0.00  0.00    +0.000 C 
ENDBRANCH  21  28
ENDBRANCH  17  21
ENDBRANCH  16  18
ENDBRANCH   1  16
TORSDOF 7
ENDMDL
