MODEL 1
REMARK VINA RESULT:      -7.6      0.000      0.000
REMARK  Name = 
REMARK  4 active torsions:
REMARK  status: ('A' for Active; 'I' for Inactive)
REMARK    1  A    between atoms: C_2  and  C_3
REMARK    2  A    between atoms: C_3  and  C_4
REMARK    3  A    between atoms: N_20  and  C_21
REMARK    4  A    between atoms: C_21  and  C_22
REMARK                            x       y       z     vdW  Elec       q    Type
REMARK                         _______ _______ _______ _____ _____    ______ ____
ROOT
ATOM      1  C   UNL     1      -0.450  11.096  19.512  0.00  0.00    +0.000 C 
ATOM      2  C   UNL     1      -0.638  12.076  20.691  0.00  0.00    +0.000 C 
ATOM      3  C   UNL     1      -1.952  11.858  21.400  0.00  0.00    +0.000 C 
ATOM      4  C   UNL     1      -2.851  12.831  21.614  0.00  0.00    +0.000 C 
ATOM      5  C   UNL     1      -4.125  12.656  22.391  0.00  0.00    +0.000 C 
ATOM      6  C   UNL     1      -5.342  13.327  21.739  0.00  0.00    +0.000 C 
ATOM      7  C   UNL     1      -6.032  12.451  20.685  0.00  0.00    +0.000 C 
ATOM      8  C   UNL     1      -5.619  12.798  19.257  0.00  0.00    +0.000 C 
ATOM      9  C   UNL     1      -5.483  11.581  18.371  0.00  0.00    +0.000 C 
ATOM     10  O   UNL     1      -5.723  10.425  18.687  0.00  0.00    +0.000 OA
ATOM     11  O   UNL     1      -4.987  11.978  17.172  0.00  0.00    +0.000 OA
ATOM     12  C   UNL     1      -4.226  11.001  16.443  0.00  0.00    +0.000 C 
ATOM     13  C   UNL     1      -2.765  11.446  16.515  0.00  0.00    +0.000 C 
ATOM     14  N   UNL     1      -2.151  11.030  17.766  0.00  0.00    +0.000 N 
ATOM     15  C   UNL     1      -1.095  11.739  18.284  0.00  0.00    +0.000 C 
ATOM     16  O   UNL     1      -0.693  12.807  17.829  0.00  0.00    +0.000 OA
ATOM     17  H   UNL     1      -2.156  10.037  17.963  0.00  0.00    +0.000 HD
ENDROOT
BRANCH   1  18
ATOM     18  C   UNL     1       1.031  10.801  19.228  0.00  0.00    +0.000 C 
BRANCH  18  20
ATOM     19  O   UNL     1       0.448   9.262  17.441  0.00  0.00    +0.000 OA
ATOM     20  C   UNL     1       1.206   9.545  18.366  0.00  0.00    +0.000 C 
ATOM     21  N   UNL     1       2.297   8.773  18.677  0.00  0.00    +0.000 N 
ATOM     22  H   UNL     1       2.652   8.806  19.624  0.00  0.00    +0.000 HD
BRANCH  21  23
ATOM     23  C   UNL     1       2.607   7.583  17.902  0.00  0.00    +0.000 C 
BRANCH  23  24
ATOM     24  C   UNL     1       2.273   6.317  18.659  0.00  0.00    +0.000 A 
ATOM     25  C   UNL     1       2.148   5.080  18.001  0.00  0.00    +0.000 A 
ATOM     26  C   UNL     1       1.879   3.913  18.726  0.00  0.00    +0.000 A 
ATOM     27  C   UNL     1       1.731   3.975  20.112  0.00  0.00    +0.000 A 
ATOM     28 CL   UNL     1       1.397   2.543  21.004  0.00  0.00    +0.000 Cl
ATOM     29  C   UNL     1       1.855   5.190  20.777  0.00  0.00    +0.000 A 
ATOM     30  C   UNL     1       2.132   6.353  20.051  0.00  0.00    +0.000 A 
ENDBRANCH  23  24
ENDBRANCH  21  23
ENDBRANCH  18  20
ENDBRANCH   1  18
TORSDOF 4
ENDMDL
MODEL 2
REMARK VINA RESULT:      -7.6      2.016      2.446
REMARK  Name = 
REMARK  4 active torsions:
REMARK  status: ('A' for Active; 'I' for Inactive)
REMARK    1  A    between atoms: C_2  and  C_3
REMARK    2  A    between atoms: C_3  and  C_4
REMARK    3  A    between atoms: N_20  and  C_21
REMARK    4  A    between atoms: C_21  and  C_22
REMARK                            x       y       z     vdW  Elec       q    Type
REMARK                         _______ _______ _______ _____ _____    ______ ____
ROOT
ATOM      1  C   UNL     1      -0.421  10.724  19.685  0.00  0.00    +0.000 C 
ATOM      2  C   UNL     1      -0.354  11.678  20.898  0.00  0.00    +0.000 C 
ATOM      3  C   UNL     1      -1.591  11.585  21.756  0.00  0.00    +0.000 C 
ATOM      4  C   UNL     1      -2.341  12.645  22.097  0.00  0.00    +0.000 C 
ATOM      5  C   UNL     1      -3.526  12.588  23.018  0.00  0.00    +0.000 C 
ATOM      6  C   UNL     1      -4.725  13.413  22.532  0.00  0.00    +0.000 C 
ATOM      7  C   UNL     1      -5.631  12.657  21.551  0.00  0.00    +0.000 C 
ATOM      8  C   UNL     1      -5.352  13.003  20.090  0.00  0.00    +0.000 C 
ATOM      9  C   UNL     1      -5.463  11.810  19.171  0.00  0.00    +0.000 C 
ATOM     10  O   UNL     1      -5.796  10.677  19.490  0.00  0.00    +0.000 OA
ATOM     11  O   UNL     1      -5.069  12.188  17.928  0.00  0.00    +0.000 OA
ATOM     12  C   UNL     1      -4.517  11.158  17.093  0.00  0.00    +0.000 C 
ATOM     13  C   UNL     1      -3.016  11.433  16.997  0.00  0.00    +0.000 C 
ATOM     14  N   UNL     1      -2.311  10.908  18.156  0.00  0.00    +0.000 N 
ATOM     15  C   UNL     1      -1.126  11.477  18.557  0.00  0.00    +0.000 C 
ATOM     16  O   UNL     1      -0.660  12.508  18.079  0.00  0.00    +0.000 OA
ATOM     17  H   UNL     1      -2.407   9.916  18.332  0.00  0.00    +0.000 HD
ENDROOT
BRANCH   1  18
ATOM     18  C   UNL     1       0.973  10.275  19.218  0.00  0.00    +0.000 C 
BRANCH  18  20
ATOM     19  O   UNL     1       0.883   8.431  20.798  0.00  0.00    +0.000 OA
ATOM     20  C   UNL     1       1.324   8.876  19.741  0.00  0.00    +0.000 C 
ATOM     21  N   UNL     1       2.137   8.135  18.921  0.00  0.00    +0.000 N 
ATOM     22  H   UNL     1       2.763   8.628  18.297  0.00  0.00    +0.000 HD
BRANCH  21  23
ATOM     23  C   UNL     1       2.502   6.773  19.274  0.00  0.00    +0.000 C 
BRANCH  23  24
ATOM     24  C   UNL     1       3.337   6.118  18.197  0.00  0.00    +0.000 A 
ATOM     25  C   UNL     1       4.224   6.866  17.401  0.00  0.00    +0.000 A 
ATOM     26  C   UNL     1       5.018   6.234  16.437  0.00  0.00    +0.000 A 
ATOM     27  C   UNL     1       4.930   4.854  16.260  0.00  0.00    +0.000 A 
ATOM     28 CL   UNL     1       5.902   4.077  15.073  0.00  0.00    +0.000 Cl
ATOM     29  C   UNL     1       4.060   4.101  17.042  0.00  0.00    +0.000 A 
ATOM     30  C   UNL     1       3.274   4.733  18.010  0.00  0.00    +0.000 A 
ENDBRANCH  23  24
ENDBRANCH  21  23
ENDBRANCH  18  20
ENDBRANCH   1  18
TORSDOF 4
ENDMDL
MODEL 3
REMARK VINA RESULT:      -7.5      4.686      9.571
REMARK  Name = 
REMARK  4 active torsions:
REMARK  status: ('A' for Active; 'I' for Inactive)
REMARK    1  A    between atoms: C_2  and  C_3
REMARK    2  A    between atoms: C_3  and  C_4
REMARK    3  A    between atoms: N_20  and  C_21
REMARK    4  A    between atoms: C_21  and  C_22
REMARK                            x       y       z     vdW  Elec       q    Type
REMARK                         _______ _______ _______ _____ _____    ______ ____
ROOT
ATOM      1  C   UNL     1       2.010   7.765  20.048  0.00  0.00    +0.000 C 
ATOM      2  C   UNL     1       0.897   6.744  20.373  0.00  0.00    +0.000 C 
ATOM      3  C   UNL     1       1.461   5.433  20.862  0.00  0.00    +0.000 C 
ATOM      4  C   UNL     1       1.159   4.244  20.317  0.00  0.00    +0.000 C 
ATOM      5  C   UNL     1       1.641   2.920  20.840  0.00  0.00    +0.000 C 
ATOM      6  C   UNL     1       2.103   1.955  19.741  0.00  0.00    +0.000 C 
ATOM      7  C   UNL     1       3.565   2.159  19.321  0.00  0.00    +0.000 C 
ATOM      8  C   UNL     1       3.710   2.991  18.049  0.00  0.00    +0.000 C 
ATOM      9  C   UNL     1       4.894   3.929  18.090  0.00  0.00    +0.000 C 
ATOM     10  O   UNL     1       5.718   4.016  18.988  0.00  0.00    +0.000 OA
ATOM     11  O   UNL     1       4.858   4.712  16.982  0.00  0.00    +0.000 OA
ATOM     12  C   UNL     1       5.462   6.011  17.101  0.00  0.00    +0.000 C 
ATOM     13  C   UNL     1       4.316   7.023  17.117  0.00  0.00    +0.000 C 
ATOM     14  N   UNL     1       3.739   7.141  18.447  0.00  0.00    +0.000 N 
ATOM     15  C   UNL     1       2.430   7.530  18.598  0.00  0.00    +0.000 C 
ATOM     16  O   UNL     1       1.641   7.669  17.667  0.00  0.00    +0.000 OA
ATOM     17  H   UNL     1       4.370   7.413  19.190  0.00  0.00    +0.000 HD
ENDROOT
BRANCH   1  18
ATOM     18  C   UNL     1       1.539   9.217  20.225  0.00  0.00    +0.000 C 
BRANCH  18  20
ATOM     19  O   UNL     1       1.724   9.328  22.645  0.00  0.00    +0.000 OA
ATOM     20  C   UNL     1       1.024   9.479  21.646  0.00  0.00    +0.000 C 
ATOM     21  N   UNL     1      -0.268   9.935  21.722  0.00  0.00    +0.000 N 
ATOM     22  H   UNL     1      -0.906   9.690  20.976  0.00  0.00    +0.000 HD
BRANCH  21  23
ATOM     23  C   UNL     1      -0.859  10.272  23.007  0.00  0.00    +0.000 C 
BRANCH  23  24
ATOM     24  C   UNL     1      -1.426  11.674  23.013  0.00  0.00    +0.000 A 
ATOM     25  C   UNL     1      -0.687  12.766  22.520  0.00  0.00    +0.000 A 
ATOM     26  C   UNL     1      -1.246  14.049  22.497  0.00  0.00    +0.000 A 
ATOM     27  C   UNL     1      -2.543  14.251  22.967  0.00  0.00    +0.000 A 
ATOM     28 CL   UNL     1      -3.229  15.828  22.943  0.00  0.00    +0.000 Cl
ATOM     29  C   UNL     1      -3.286  13.180  23.455  0.00  0.00    +0.000 A 
ATOM     30  C   UNL     1      -2.730  11.898  23.469  0.00  0.00    +0.000 A 
ENDBRANCH  23  24
ENDBRANCH  21  23
ENDBRANCH  18  20
ENDBRANCH   1  18
TORSDOF 4
ENDMDL
MODEL 4
REMARK VINA RESULT:      -7.5      1.459      1.782
REMARK  Name = 
REMARK  4 active torsions:
REMARK  status: ('A' for Active; 'I' for Inactive)
REMARK    1  A    between atoms: C_2  and  C_3
REMARK    2  A    between atoms: C_3  and  C_4
REMARK    3  A    between atoms: N_20  and  C_21
REMARK    4  A    between atoms: C_21  and  C_22
REMARK                            x       y       z     vdW  Elec       q    Type
REMARK                         _______ _______ _______ _____ _____    ______ ____
ROOT
ATOM      1  C   UNL     1      -0.880  11.427  20.133  0.00  0.00    +0.000 C 
ATOM      2  C   UNL     1      -1.275  12.547  21.121  0.00  0.00    +0.000 C 
ATOM      3  C   UNL     1      -2.691  12.389  21.615  0.00  0.00    +0.000 C 
ATOM      4  C   UNL     1      -3.618  13.356  21.538  0.00  0.00    +0.000 C 
ATOM      5  C   UNL     1      -5.008  13.251  22.100  0.00  0.00    +0.000 C 
ATOM      6  C   UNL     1      -6.094  13.796  21.164  0.00  0.00    +0.000 C 
ATOM      7  C   UNL     1      -6.586  12.771  20.134  0.00  0.00    +0.000 C 
ATOM      8  C   UNL     1      -5.932  12.938  18.765  0.00  0.00    +0.000 C 
ATOM      9  C   UNL     1      -5.639  11.620  18.087  0.00  0.00    +0.000 C 
ATOM     10  O   UNL     1      -5.925  10.509  18.510  0.00  0.00    +0.000 OA
ATOM     11  O   UNL     1      -4.942  11.869  16.949  0.00  0.00    +0.000 OA
ATOM     12  C   UNL     1      -4.061  10.826  16.501  0.00  0.00    +0.000 C 
ATOM     13  C   UNL     1      -2.637  11.316  16.763  0.00  0.00    +0.000 C 
ATOM     14  N   UNL     1      -2.249  11.085  18.145  0.00  0.00    +0.000 N 
ATOM     15  C   UNL     1      -1.303  11.884  18.738  0.00  0.00    +0.000 C 
ATOM     16  O   UNL     1      -0.832  12.894  18.221  0.00  0.00    +0.000 OA
ATOM     17  H   UNL     1      -2.285  10.126  18.470  0.00  0.00    +0.000 HD
ENDROOT
BRANCH   1  18
ATOM     18  C   UNL     1       0.629  11.137  20.152  0.00  0.00    +0.000 C 
BRANCH  18  20
ATOM     19  O   UNL     1       0.922   9.967  22.260  0.00  0.00    +0.000 OA
ATOM     20  C   UNL     1       0.966   9.928  21.033  0.00  0.00    +0.000 C 
ATOM     21  N   UNL     1       1.283   8.780  20.351  0.00  0.00    +0.000 N 
ATOM     22  H   UNL     1       1.672   8.869  19.421  0.00  0.00    +0.000 HD
BRANCH  21  23
ATOM     23  C   UNL     1       1.570   7.549  21.067  0.00  0.00    +0.000 C 
BRANCH  23  24
ATOM     24  C   UNL     1       1.907   6.416  20.124  0.00  0.00    +0.000 A 
ATOM     25  C   UNL     1       2.482   6.659  18.862  0.00  0.00    +0.000 A 
ATOM     26  C   UNL     1       2.824   5.594  18.021  0.00  0.00    +0.000 A 
ATOM     27  C   UNL     1       2.592   4.282  18.431  0.00  0.00    +0.000 A 
ATOM     28 CL   UNL     1       3.007   2.972  17.396  0.00  0.00    +0.000 Cl
ATOM     29  C   UNL     1       2.027   4.026  19.677  0.00  0.00    +0.000 A 
ATOM     30  C   UNL     1       1.694   5.091  20.519  0.00  0.00    +0.000 A 
ENDBRANCH  23  24
ENDBRANCH  21  23
ENDBRANCH  18  20
ENDBRANCH   1  18
TORSDOF 4
ENDMDL
MODEL 5
REMARK VINA RESULT:      -7.5      1.223      1.676
REMARK  Name = 
REMARK  4 active torsions:
REMARK  status: ('A' for Active; 'I' for Inactive)
REMARK    1  A    between atoms: C_2  and  C_3
REMARK    2  A    between atoms: C_3  and  C_4
REMARK    3  A    between atoms: N_20  and  C_21
REMARK    4  A    between atoms: C_21  and  C_22
REMARK                            x       y       z     vdW  Elec       q    Type
REMARK                         _______ _______ _______ _____ _____    ______ ____
ROOT
ATOM      1  C   UNL     1      -0.901  10.653  19.232  0.00  0.00    +0.000 C 
ATOM      2  C   UNL     1      -0.437  11.637  20.329  0.00  0.00    +0.000 C 
ATOM      3  C   UNL     1      -1.409  11.694  21.481  0.00  0.00    +0.000 C 
ATOM      4  C   UNL     1      -1.949  12.833  21.941  0.00  0.00    +0.000 C 
ATOM      5  C   UNL     1      -2.852  12.924  23.140  0.00  0.00    +0.000 C 
ATOM      6  C   UNL     1      -4.062  13.844  22.932  0.00  0.00    +0.000 C 
ATOM      7  C   UNL     1      -5.255  13.146  22.265  0.00  0.00    +0.000 C 
ATOM      8  C   UNL     1      -5.341  13.413  20.765  0.00  0.00    +0.000 C 
ATOM      9  C   UNL     1      -5.791  12.206  19.976  0.00  0.00    +0.000 C 
ATOM     10  O   UNL     1      -6.123  11.123  20.436  0.00  0.00    +0.000 OA
ATOM     11  O   UNL     1      -5.706  12.502  18.654  0.00  0.00    +0.000 OA
ATOM     12  C   UNL     1      -5.482  11.394  17.767  0.00  0.00    +0.000 C 
ATOM     13  C   UNL     1      -4.042  11.519  17.270  0.00  0.00    +0.000 C 
ATOM     14  N   UNL     1      -3.104  10.968  18.236  0.00  0.00    +0.000 N 
ATOM     15  C   UNL     1      -1.812  11.431  18.283  0.00  0.00    +0.000 C 
ATOM     16  O   UNL     1      -1.402  12.395  17.641  0.00  0.00    +0.000 OA
ATOM     17  H   UNL     1      -3.235   9.996  18.488  0.00  0.00    +0.000 HD
ENDROOT
BRANCH   1  18
ATOM     18  C   UNL     1       0.277  10.054  18.448  0.00  0.00    +0.000 C 
BRANCH  18  20
ATOM     19  O   UNL     1       0.919   8.960  20.520  0.00  0.00    +0.000 OA
ATOM     20  C   UNL     1       1.111   9.103  19.315  0.00  0.00    +0.000 C 
ATOM     21  N   UNL     1       2.068   8.388  18.639  0.00  0.00    +0.000 N 
ATOM     22  H   UNL     1       2.449   8.783  17.788  0.00  0.00    +0.000 HD
BRANCH  21  23
ATOM     23  C   UNL     1       2.892   7.412  19.334  0.00  0.00    +0.000 C 
BRANCH  23  24
ATOM     24  C   UNL     1       2.321   6.016  19.224  0.00  0.00    +0.000 A 
ATOM     25  C   UNL     1       1.757   5.365  20.337  0.00  0.00    +0.000 A 
ATOM     26  C   UNL     1       1.197   4.089  20.204  0.00  0.00    +0.000 A 
ATOM     27  C   UNL     1       1.199   3.455  18.962  0.00  0.00    +0.000 A 
ATOM     28 CL   UNL     1       0.515   1.885  18.799  0.00  0.00    +0.000 Cl
ATOM     29  C   UNL     1       1.750   4.088  17.853  0.00  0.00    +0.000 A 
ATOM     30  C   UNL     1       2.301   5.365  17.985  0.00  0.00    +0.000 A 
ENDBRANCH  23  24
ENDBRANCH  21  23
ENDBRANCH  18  20
ENDBRANCH   1  18
TORSDOF 4
ENDMDL
MODEL 6
REMARK VINA RESULT:      -7.5      9.023     11.525
REMARK  Name = 
REMARK  4 active torsions:
REMARK  status: ('A' for Active; 'I' for Inactive)
REMARK    1  A    between atoms: C_2  and  C_3
REMARK    2  A    between atoms: C_3  and  C_4
REMARK    3  A    between atoms: N_20  and  C_21
REMARK    4  A    between atoms: C_21  and  C_22
REMARK                            x       y       z     vdW  Elec       q    Type
REMARK                         _______ _______ _______ _____ _____    ______ ____
ROOT
ATOM      1  C   UNL     1       9.582  11.515  19.776  0.00  0.00    +0.000 C 
ATOM      2  C   UNL     1       9.616  11.928  21.265  0.00  0.00    +0.000 C 
ATOM      3  C   UNL     1       9.068  13.318  21.476  0.00  0.00    +0.000 C 
ATOM      4  C   UNL     1       9.736  14.291  22.114  0.00  0.00    +0.000 C 
ATOM      5  C   UNL     1       9.178  15.654  22.410  0.00  0.00    +0.000 C 
ATOM      6  C   UNL     1      10.168  16.797  22.149  0.00  0.00    +0.000 C 
ATOM      7  C   UNL     1      10.181  17.275  20.691  0.00  0.00    +0.000 C 
ATOM      8  C   UNL     1      11.324  16.676  19.875  0.00  0.00    +0.000 C 
ATOM      9  C   UNL     1      10.925  16.345  18.456  0.00  0.00    +0.000 C 
ATOM     10  O   UNL     1       9.838  16.564  17.939  0.00  0.00    +0.000 OA
ATOM     11  O   UNL     1      11.959  15.700  17.860  0.00  0.00    +0.000 OA
ATOM     12  C   UNL     1      11.617  14.787  16.804  0.00  0.00    +0.000 C 
ATOM     13  C   UNL     1      11.845  13.380  17.355  0.00  0.00    +0.000 C 
ATOM     14  N   UNL     1      10.708  12.934  18.144  0.00  0.00    +0.000 N 
ATOM     15  C   UNL     1      10.883  12.006  19.142  0.00  0.00    +0.000 C 
ATOM     16  O   UNL     1      11.979  11.602  19.522  0.00  0.00    +0.000 OA
ATOM     17  H   UNL     1       9.812  12.913  17.673  0.00  0.00    +0.000 HD
ENDROOT
BRANCH   1  18
ATOM     18  C   UNL     1       9.456   9.995  19.595  0.00  0.00    +0.000 C 
BRANCH  18  20
ATOM     19  O   UNL     1       8.163  10.476  17.596  0.00  0.00    +0.000 OA
ATOM     20  C   UNL     1       8.573   9.636  18.394  0.00  0.00    +0.000 C 
ATOM     21  N   UNL     1       8.304   8.298  18.248  0.00  0.00    +0.000 N 
ATOM     22  H   UNL     1       8.316   7.715  19.075  0.00  0.00    +0.000 HD
BRANCH  21  23
ATOM     23  C   UNL     1       7.521   7.820  17.120  0.00  0.00    +0.000 C 
BRANCH  23  24
ATOM     24  C   UNL     1       6.572   6.714  17.524  0.00  0.00    +0.000 A 
ATOM     25  C   UNL     1       5.370   6.489  16.828  0.00  0.00    +0.000 A 
ATOM     26  C   UNL     1       4.525   5.434  17.192  0.00  0.00    +0.000 A 
ATOM     27  C   UNL     1       4.874   4.600  18.254  0.00  0.00    +0.000 A 
ATOM     28 CL   UNL     1       3.834   3.305  18.705  0.00  0.00    +0.000 Cl
ATOM     29  C   UNL     1       6.061   4.808  18.949  0.00  0.00    +0.000 A 
ATOM     30  C   UNL     1       6.907   5.857  18.578  0.00  0.00    +0.000 A 
ENDBRANCH  23  24
ENDBRANCH  21  23
ENDBRANCH  18  20
ENDBRANCH   1  18
TORSDOF 4
ENDMDL
MODEL 7
REMARK VINA RESULT:      -7.4      1.709      2.108
REMARK  Name = 
REMARK  4 active torsions:
REMARK  status: ('A' for Active; 'I' for Inactive)
REMARK    1  A    between atoms: C_2  and  C_3
REMARK    2  A    between atoms: C_3  and  C_4
REMARK    3  A    between atoms: N_20  and  C_21
REMARK    4  A    between atoms: C_21  and  C_22
REMARK                            x       y       z     vdW  Elec       q    Type
REMARK                         _______ _______ _______ _____ _____    ______ ____
ROOT
ATOM      1  C   UNL     1      -0.899  11.641  20.433  0.00  0.00    +0.000 C 
ATOM      2  C   UNL     1      -1.440  12.720  21.396  0.00  0.00    +0.000 C 
ATOM      3  C   UNL     1      -2.868  12.450  21.801  0.00  0.00    +0.000 C 
ATOM      4  C   UNL     1      -3.860  13.343  21.668  0.00  0.00    +0.000 C 
ATOM      5  C   UNL     1      -5.270  13.126  22.142  0.00  0.00    +0.000 C 
ATOM      6  C   UNL     1      -6.335  13.593  21.141  0.00  0.00    +0.000 C 
ATOM      7  C   UNL     1      -6.681  12.540  20.079  0.00  0.00    +0.000 C 
ATOM      8  C   UNL     1      -5.958  12.767  18.754  0.00  0.00    +0.000 C 
ATOM      9  C   UNL     1      -5.521  11.480  18.094  0.00  0.00    +0.000 C 
ATOM     10  O   UNL     1      -5.747  10.347  18.495  0.00  0.00    +0.000 OA
ATOM     11  O   UNL     1      -4.777  11.790  17.002  0.00  0.00    +0.000 OA
ATOM     12  C   UNL     1      -3.792  10.821  16.607  0.00  0.00    +0.000 C 
ATOM     13  C   UNL     1      -2.429  11.419  16.959  0.00  0.00    +0.000 C 
ATOM     14  N   UNL     1      -2.111  11.208  18.362  0.00  0.00    +0.000 N 
ATOM     15  C   UNL     1      -1.268  12.074  19.015  0.00  0.00    +0.000 C 
ATOM     16  O   UNL     1      -0.846  13.121  18.530  0.00  0.00    +0.000 OA
ATOM     17  H   UNL     1      -2.092  10.248  18.682  0.00  0.00    +0.000 HD
ENDROOT
BRANCH   1  18
ATOM     18  C   UNL     1       0.624  11.469  20.545  0.00  0.00    +0.000 C 
BRANCH  18  20
ATOM     19  O   UNL     1       1.278  10.102  22.444  0.00  0.00    +0.000 OA
ATOM     20  C   UNL     1       0.999  10.159  21.248  0.00  0.00    +0.000 C 
ATOM     21  N   UNL     1       0.961   9.040  20.454  0.00  0.00    +0.000 N 
ATOM     22  H   UNL     1       1.108   9.155  19.460  0.00  0.00    +0.000 HD
BRANCH  21  23
ATOM     23  C   UNL     1       1.244   7.727  21.012  0.00  0.00    +0.000 C 
BRANCH  23  24
ATOM     24  C   UNL     1       1.987   6.849  20.030  0.00  0.00    +0.000 A 
ATOM     25  C   UNL     1       2.130   5.466  20.246  0.00  0.00    +0.000 A 
ATOM     26  C   UNL     1       2.786   4.664  19.305  0.00  0.00    +0.000 A 
ATOM     27  C   UNL     1       3.306   5.238  18.145  0.00  0.00    +0.000 A 
ATOM     28 CL   UNL     1       4.116   4.255  16.989  0.00  0.00    +0.000 Cl
ATOM     29  C   UNL     1       3.169   6.604  17.916  0.00  0.00    +0.000 A 
ATOM     30  C   UNL     1       2.506   7.401  18.853  0.00  0.00    +0.000 A 
ENDBRANCH  23  24
ENDBRANCH  21  23
ENDBRANCH  18  20
ENDBRANCH   1  18
TORSDOF 4
ENDMDL
MODEL 8
REMARK VINA RESULT:      -7.4      1.958      2.510
REMARK  Name = 
REMARK  4 active torsions:
REMARK  status: ('A' for Active; 'I' for Inactive)
REMARK    1  A    between atoms: C_2  and  C_3
REMARK    2  A    between atoms: C_3  and  C_4
REMARK    3  A    between atoms: N_20  and  C_21
REMARK    4  A    between atoms: C_21  and  C_22
REMARK                            x       y       z     vdW  Elec       q    Type
REMARK                         _______ _______ _______ _____ _____    ______ ____
ROOT
ATOM      1  C   UNL     1      -1.162  11.802  20.837  0.00  0.00    +0.000 C 
ATOM      2  C   UNL     1      -1.842  12.878  21.711  0.00  0.00    +0.000 C 
ATOM      3  C   UNL     1      -3.290  12.550  21.982  0.00  0.00    +0.000 C 
ATOM      4  C   UNL     1      -4.303  13.393  21.728  0.00  0.00    +0.000 C 
ATOM      5  C   UNL     1      -5.741  13.122  22.068  0.00  0.00    +0.000 C 
ATOM      6  C   UNL     1      -6.722  13.514  20.955  0.00  0.00    +0.000 C 
ATOM      7  C   UNL     1      -6.915  12.421  19.895  0.00  0.00    +0.000 C 
ATOM      8  C   UNL     1      -6.075  12.649  18.641  0.00  0.00    +0.000 C 
ATOM      9  C   UNL     1      -5.519  11.368  18.063  0.00  0.00    +0.000 C 
ATOM     10  O   UNL     1      -5.733  10.236  18.472  0.00  0.00    +0.000 OA
ATOM     11  O   UNL     1      -4.685  11.687  17.041  0.00  0.00    +0.000 OA
ATOM     12  C   UNL     1      -3.624  10.756  16.772  0.00  0.00    +0.000 C 
ATOM     13  C   UNL     1      -2.330  11.424  17.238  0.00  0.00    +0.000 C 
ATOM     14  N   UNL     1      -2.143  11.263  18.671  0.00  0.00    +0.000 N 
ATOM     15  C   UNL     1      -1.408  12.183  19.378  0.00  0.00    +0.000 C 
ATOM     16  O   UNL     1      -0.987  13.236  18.907  0.00  0.00    +0.000 OA
ATOM     17  H   UNL     1      -2.113  10.313  19.018  0.00  0.00    +0.000 HD
ENDROOT
BRANCH   1  18
ATOM     18  C   UNL     1       0.349  11.704  21.102  0.00  0.00    +0.000 C 
BRANCH  18  20
ATOM     19  O   UNL     1       0.916   9.964  22.699  0.00  0.00    +0.000 OA
ATOM     20  C   UNL     1       0.762  10.289  21.524  0.00  0.00    +0.000 C 
ATOM     21  N   UNL     1       0.910   9.394  20.495  0.00  0.00    +0.000 N 
ATOM     22  H   UNL     1       1.151   9.753  19.580  0.00  0.00    +0.000 HD
BRANCH  21  23
ATOM     23  C   UNL     1       1.248   8.005  20.764  0.00  0.00    +0.000 C 
BRANCH  23  24
ATOM     24  C   UNL     1       2.113   7.417  19.672  0.00  0.00    +0.000 A 
ATOM     25  C   UNL     1       2.385   8.128  18.488  0.00  0.00    +0.000 A 
ATOM     26  C   UNL     1       3.221   7.582  17.508  0.00  0.00    +0.000 A 
ATOM     27  C   UNL     1       3.788   6.323  17.701  0.00  0.00    +0.000 A 
ATOM     28 CL   UNL     1       4.813   5.649  16.495  0.00  0.00    +0.000 Cl
ATOM     29  C   UNL     1       3.531   5.609  18.867  0.00  0.00    +0.000 A 
ATOM     30  C   UNL     1       2.702   6.160  19.849  0.00  0.00    +0.000 A 
ENDBRANCH  23  24
ENDBRANCH  21  23
ENDBRANCH  18  20
ENDBRANCH   1  18
TORSDOF 4
ENDMDL
MODEL 9
REMARK VINA RESULT:      -7.3      3.705      8.813
REMARK  Name = 
REMARK  4 active torsions:
REMARK  status: ('A' for Active; 'I' for Inactive)
REMARK    1  A    between atoms: C_2  and  C_3
REMARK    2  A    between atoms: C_3  and  C_4
REMARK    3  A    between atoms: N_20  and  C_21
REMARK    4  A    between atoms: C_21  and  C_22
REMARK                            x       y       z     vdW  Elec       q    Type
REMARK                         _______ _______ _______ _____ _____    ______ ____
ROOT
ATOM      1  C   UNL     1       2.126   7.597  20.324  0.00  0.00    +0.000 C 
ATOM      2  C   UNL     1       0.938   6.643  20.581  0.00  0.00    +0.000 C 
ATOM      3  C   UNL     1       1.393   5.218  20.777  0.00  0.00    +0.000 C 
ATOM      4  C   UNL     1       0.916   4.182  20.070  0.00  0.00    +0.000 C 
ATOM      5  C   UNL     1       1.292   2.746  20.306  0.00  0.00    +0.000 C 
ATOM      6  C   UNL     1       1.549   1.957  19.015  0.00  0.00    +0.000 C 
ATOM      7  C   UNL     1       2.984   2.097  18.487  0.00  0.00    +0.000 C 
ATOM      8  C   UNL     1       3.111   3.128  17.369  0.00  0.00    +0.000 C 
ATOM      9  C   UNL     1       4.390   3.928  17.448  0.00  0.00    +0.000 C 
ATOM     10  O   UNL     1       5.293   3.772  18.258  0.00  0.00    +0.000 OA
ATOM     11  O   UNL     1       4.348   4.899  16.501  0.00  0.00    +0.000 OA
ATOM     12  C   UNL     1       5.099   6.092  16.778  0.00  0.00    +0.000 C 
ATOM     13  C   UNL     1       4.078   7.187  17.087  0.00  0.00    +0.000 C 
ATOM     14  N   UNL     1       3.633   7.115  18.469  0.00  0.00    +0.000 N 
ATOM     15  C   UNL     1       2.392   7.591  18.820  0.00  0.00    +0.000 C 
ATOM     16  O   UNL     1       1.547   7.970  18.013  0.00  0.00    +0.000 OA
ATOM     17  H   UNL     1       4.351   7.188  19.179  0.00  0.00    +0.000 HD
ENDROOT
BRANCH   1  18
ATOM     18  C   UNL     1       1.835   9.031  20.796  0.00  0.00    +0.000 C 
BRANCH  18  20
ATOM     19  O   UNL     1      -0.449   8.824  21.598  0.00  0.00    +0.000 OA
ATOM     20  C   UNL     1       0.332   9.335  20.798  0.00  0.00    +0.000 C 
ATOM     21  N   UNL     1      -0.078  10.255  19.866  0.00  0.00    +0.000 N 
ATOM     22  H   UNL     1       0.470  10.356  19.021  0.00  0.00    +0.000 HD
BRANCH  21  23
ATOM     23  C   UNL     1      -1.469  10.671  19.799  0.00  0.00    +0.000 C 
BRANCH  23  24
ATOM     24  C   UNL     1      -2.018  10.570  18.393  0.00  0.00    +0.000 A 
ATOM     25  C   UNL     1      -1.425   9.728  17.433  0.00  0.00    +0.000 A 
ATOM     26  C   UNL     1      -1.973   9.618  16.150  0.00  0.00    +0.000 A 
ATOM     27  C   UNL     1      -3.113  10.349  15.816  0.00  0.00    +0.000 A 
ATOM     28 CL   UNL     1      -3.784  10.218  14.238  0.00  0.00    +0.000 Cl
ATOM     29  C   UNL     1      -3.711  11.184  16.755  0.00  0.00    +0.000 A 
ATOM     30  C   UNL     1      -3.167  11.285  18.038  0.00  0.00    +0.000 A 
ENDBRANCH  23  24
ENDBRANCH  21  23
ENDBRANCH  18  20
ENDBRANCH   1  18
TORSDOF 4
ENDMDL
