MODEL 1
REMARK VINA RESULT:      -7.1      0.000      0.000
REMARK  Name = 
REMARK  5 active torsions:
REMARK  status: ('A' for Active; 'I' for Inactive)
REMARK    1  A    between atoms: C_1  and  C_2
REMARK    2  A    between atoms: C_2  and  C_4
REMARK    3  A    between atoms: C_5  and  C_6
REMARK    4  A    between atoms: C_6  and  S_7
REMARK    5  A    between atoms: S_7  and  C_8
REMARK                            x       y       z     vdW  Elec       q    Type
REMARK                         _______ _______ _______ _____ _____    ______ ____
ROOT
ATOM      1  C   UNL     1       3.798   4.294  18.846  0.00  0.00    +0.000 A 
ATOM      2  C   UNL     1       4.236   4.975  17.697  0.00  0.00    +0.000 A 
ATOM      3  N   UNL     1       3.841   6.253  17.432  0.00  0.00    +0.000 NA
ATOM      4  C   UNL     1       3.036   6.905  18.282  0.00  0.00    +0.000 A 
ATOM      5  C   UNL     1       2.683   8.226  18.027  0.00  0.00    +0.000 A 
ATOM      6  C   UNL     1       1.864   8.948  18.902  0.00  0.00    +0.000 A 
ATOM      7  C   UNL     1       1.376   8.345  20.053  0.00  0.00    +0.000 A 
ATOM      8  C   UNL     1       1.718   7.028  20.325  0.00  0.00    +0.000 A 
ATOM      9  C   UNL     1       2.554   6.301  19.443  0.00  0.00    +0.000 A 
ATOM     10  N   UNL     1       2.949   4.975  19.721  0.00  0.00    +0.000 N 
ATOM     11  O   UNL     1       2.520   4.457  20.808  0.00  0.00    +0.000 OA
ENDROOT
BRANCH   1  13
ATOM     12  C   UNL     1       3.544   1.672  18.690  0.00  0.00    +0.000 C 
ATOM     13  C   UNL     1       4.237   2.914  19.206  0.00  0.00    +0.000 C 
ATOM     14  O   UNL     1       5.171   2.784  19.996  0.00  0.00    +0.000 OA
ENDBRANCH   1  13
BRANCH   2  15
ATOM     15  C   UNL     1       5.267   4.485  16.718  0.00  0.00    +0.000 C 
BRANCH  15  16
ATOM     16  S   UNL     1       6.832   5.307  16.950  0.00  0.00    +0.000 S 
ATOM     17  C   UNL     1       7.006   5.571  18.703  0.00  0.00    +0.000 C 
ATOM     18  O   UNL     1       7.864   4.349  16.583  0.00  0.00    +0.000 OA
ATOM     19  O   UNL     1       6.791   6.615  16.325  0.00  0.00    +0.000 OA
ENDBRANCH  15  16
ENDBRANCH   2  15
TORSDOF 3
ENDMDL
MODEL 2
REMARK VINA RESULT:      -7.0      2.533      3.841
REMARK  Name = 
REMARK  5 active torsions:
REMARK  status: ('A' for Active; 'I' for Inactive)
REMARK    1  A    between atoms: C_1  and  C_2
REMARK    2  A    between atoms: C_2  and  C_4
REMARK    3  A    between atoms: C_5  and  C_6
REMARK    4  A    between atoms: C_6  and  S_7
REMARK    5  A    between atoms: S_7  and  C_8
REMARK                            x       y       z     vdW  Elec       q    Type
REMARK                         _______ _______ _______ _____ _____    ______ ____
ROOT
ATOM      1  C   UNL     1       6.059   5.040  18.153  0.00  0.00    +0.000 A 
ATOM      2  C   UNL     1       5.957   4.173  17.051  0.00  0.00    +0.000 A 
ATOM      3  N   UNL     1       4.804   3.498  16.780  0.00  0.00    +0.000 NA
ATOM      4  C   UNL     1       3.721   3.664  17.552  0.00  0.00    +0.000 A 
ATOM      5  C   UNL     1       2.536   3.011  17.234  0.00  0.00    +0.000 A 
ATOM      6  C   UNL     1       1.378   3.177  18.002  0.00  0.00    +0.000 A 
ATOM      7  C   UNL     1       1.397   4.005  19.116  0.00  0.00    +0.000 A 
ATOM      8  C   UNL     1       2.571   4.666  19.449  0.00  0.00    +0.000 A 
ATOM      9  C   UNL     1       3.739   4.504  18.666  0.00  0.00    +0.000 A 
ATOM     10  N   UNL     1       4.931   5.199  18.961  0.00  0.00    +0.000 N 
ATOM     11  O   UNL     1       4.910   5.987  19.967  0.00  0.00    +0.000 OA
ENDROOT
BRANCH   1  13
ATOM     12  C   UNL     1       7.602   7.148  17.782  0.00  0.00    +0.000 C 
ATOM     13  C   UNL     1       7.281   5.837  18.467  0.00  0.00    +0.000 C 
ATOM     14  O   UNL     1       8.084   5.383  19.280  0.00  0.00    +0.000 OA
ENDBRANCH   1  13
BRANCH   2  15
ATOM     15  C   UNL     1       6.991   3.983  15.976  0.00  0.00    +0.000 C 
BRANCH  15  16
ATOM     16  S   UNL     1       6.641   4.987  14.545  0.00  0.00    +0.000 S 
ATOM     17  C   UNL     1       5.941   3.894  13.325  0.00  0.00    +0.000 C 
ATOM     18  O   UNL     1       5.575   5.899  14.926  0.00  0.00    +0.000 OA
ATOM     19  O   UNL     1       7.883   5.498  13.995  0.00  0.00    +0.000 OA
ENDBRANCH  15  16
ENDBRANCH   2  15
TORSDOF 3
ENDMDL
MODEL 3
REMARK VINA RESULT:      -6.9      3.024      5.000
REMARK  Name = 
REMARK  5 active torsions:
REMARK  status: ('A' for Active; 'I' for Inactive)
REMARK    1  A    between atoms: C_1  and  C_2
REMARK    2  A    between atoms: C_2  and  C_4
REMARK    3  A    between atoms: C_5  and  C_6
REMARK    4  A    between atoms: C_6  and  S_7
REMARK    5  A    between atoms: S_7  and  C_8
REMARK                            x       y       z     vdW  Elec       q    Type
REMARK                         _______ _______ _______ _____ _____    ______ ____
ROOT
ATOM      1  C   UNL     1       3.943   4.276  17.868  0.00  0.00    +0.000 A 
ATOM      2  C   UNL     1       4.543   3.651  18.974  0.00  0.00    +0.000 A 
ATOM      3  N   UNL     1       5.738   4.078  19.473  0.00  0.00    +0.000 NA
ATOM      4  C   UNL     1       6.365   5.130  18.928  0.00  0.00    +0.000 A 
ATOM      5  C   UNL     1       7.557   5.588  19.478  0.00  0.00    +0.000 A 
ATOM      6  C   UNL     1       8.228   6.698  18.952  0.00  0.00    +0.000 A 
ATOM      7  C   UNL     1       7.711   7.365  17.851  0.00  0.00    +0.000 A 
ATOM      8  C   UNL     1       6.522   6.922  17.288  0.00  0.00    +0.000 A 
ATOM      9  C   UNL     1       5.839   5.805  17.826  0.00  0.00    +0.000 A 
ATOM     10  N   UNL     1       4.607   5.363  17.297  0.00  0.00    +0.000 N 
ATOM     11  O   UNL     1       4.131   6.020  16.309  0.00  0.00    +0.000 OA
ENDROOT
BRANCH   1  13
ATOM     12  C   UNL     1       1.356   4.685  17.543  0.00  0.00    +0.000 C 
ATOM     13  C   UNL     1       2.616   3.878  17.313  0.00  0.00    +0.000 C 
ATOM     14  O   UNL     1       2.535   2.823  16.686  0.00  0.00    +0.000 OA
ENDBRANCH   1  13
BRANCH   2  15
ATOM     15  C   UNL     1       3.925   2.576  19.826  0.00  0.00    +0.000 C 
BRANCH  15  16
ATOM     16  S   UNL     1       2.661   3.233  20.896  0.00  0.00    +0.000 S 
ATOM     17  C   UNL     1       1.102   2.697  20.219  0.00  0.00    +0.000 C 
ATOM     18  O   UNL     1       2.799   2.552  22.174  0.00  0.00    +0.000 OA
ATOM     19  O   UNL     1       2.676   4.682  20.832  0.00  0.00    +0.000 OA
ENDBRANCH  15  16
ENDBRANCH   2  15
TORSDOF 3
ENDMDL
MODEL 4
REMARK VINA RESULT:      -6.8      2.755      3.817
REMARK  Name = 
REMARK  5 active torsions:
REMARK  status: ('A' for Active; 'I' for Inactive)
REMARK    1  A    between atoms: C_1  and  C_2
REMARK    2  A    between atoms: C_2  and  C_4
REMARK    3  A    between atoms: C_5  and  C_6
REMARK    4  A    between atoms: C_6  and  S_7
REMARK    5  A    between atoms: S_7  and  C_8
REMARK                            x       y       z     vdW  Elec       q    Type
REMARK                         _______ _______ _______ _____ _____    ______ ____
ROOT
ATOM      1  C   UNL     1       5.785   4.893  17.876  0.00  0.00    +0.000 A 
ATOM      2  C   UNL     1       4.966   4.993  16.738  0.00  0.00    +0.000 A 
ATOM      3  N   UNL     1       3.650   4.636  16.774  0.00  0.00    +0.000 NA
ATOM      4  C   UNL     1       3.096   4.198  17.913  0.00  0.00    +0.000 A 
ATOM      5  C   UNL     1       1.741   3.886  17.949  0.00  0.00    +0.000 A 
ATOM      6  C   UNL     1       1.120   3.448  19.124  0.00  0.00    +0.000 A 
ATOM      7  C   UNL     1       1.861   3.308  20.289  0.00  0.00    +0.000 A 
ATOM      8  C   UNL     1       3.215   3.614  20.272  0.00  0.00    +0.000 A 
ATOM      9  C   UNL     1       3.839   4.065  19.085  0.00  0.00    +0.000 A 
ATOM     10  N   UNL     1       5.204   4.423  19.056  0.00  0.00    +0.000 N 
ATOM     11  O   UNL     1       5.854   4.325  20.152  0.00  0.00    +0.000 OA
ENDROOT
BRANCH   1  13
ATOM     12  C   UNL     1       7.646   6.743  18.154  0.00  0.00    +0.000 C 
ATOM     13  C   UNL     1       7.216   5.314  17.903  0.00  0.00    +0.000 C 
ATOM     14  O   UNL     1       8.080   4.472  17.661  0.00  0.00    +0.000 OA
ENDBRANCH   1  13
BRANCH   2  15
ATOM     15  C   UNL     1       5.349   5.617  15.424  0.00  0.00    +0.000 C 
BRANCH  15  16
ATOM     16  S   UNL     1       6.273   4.483  14.405  0.00  0.00    +0.000 S 
ATOM     17  C   UNL     1       5.232   4.100  13.011  0.00  0.00    +0.000 C 
ATOM     18  O   UNL     1       7.402   5.228  13.871  0.00  0.00    +0.000 OA
ATOM     19  O   UNL     1       6.486   3.244  15.129  0.00  0.00    +0.000 OA
ENDBRANCH  15  16
ENDBRANCH   2  15
TORSDOF 3
ENDMDL
MODEL 5
REMARK VINA RESULT:      -6.8      1.003      1.271
REMARK  Name = 
REMARK  5 active torsions:
REMARK  status: ('A' for Active; 'I' for Inactive)
REMARK    1  A    between atoms: C_1  and  C_2
REMARK    2  A    between atoms: C_2  and  C_4
REMARK    3  A    between atoms: C_5  and  C_6
REMARK    4  A    between atoms: C_6  and  S_7
REMARK    5  A    between atoms: S_7  and  C_8
REMARK                            x       y       z     vdW  Elec       q    Type
REMARK                         _______ _______ _______ _____ _____    ______ ____
ROOT
ATOM      1  C   UNL     1       3.478   4.447  18.916  0.00  0.00    +0.000 A 
ATOM      2  C   UNL     1       3.704   5.151  17.721  0.00  0.00    +0.000 A 
ATOM      3  N   UNL     1       3.249   6.425  17.548  0.00  0.00    +0.000 NA
ATOM      4  C   UNL     1       2.587   7.050  18.532  0.00  0.00    +0.000 A 
ATOM      5  C   UNL     1       2.174   8.366  18.362  0.00  0.00    +0.000 A 
ATOM      6  C   UNL     1       1.502   9.060  19.374  0.00  0.00    +0.000 A 
ATOM      7  C   UNL     1       1.226   8.433  20.581  0.00  0.00    +0.000 A 
ATOM      8  C   UNL     1       1.631   7.119  20.769  0.00  0.00    +0.000 A 
ATOM      9  C   UNL     1       2.319   6.420  19.747  0.00  0.00    +0.000 A 
ATOM     10  N   UNL     1       2.778   5.099  19.932  0.00  0.00    +0.000 N 
ATOM     11  O   UNL     1       2.548   4.558  21.068  0.00  0.00    +0.000 OA
ENDROOT
BRANCH   1  13
ATOM     12  C   UNL     1       3.251   1.822  18.752  0.00  0.00    +0.000 C 
ATOM     13  C   UNL     1       3.996   3.070  19.174  0.00  0.00    +0.000 C 
ATOM     14  O   UNL     1       5.047   2.948  19.801  0.00  0.00    +0.000 OA
ENDBRANCH   1  13
BRANCH   2  15
ATOM     15  C   UNL     1       4.564   4.696  16.574  0.00  0.00    +0.000 C 
BRANCH  15  16
ATOM     16  S   UNL     1       6.199   5.401  16.660  0.00  0.00    +0.000 S 
ATOM     17  C   UNL     1       7.134   4.664  15.335  0.00  0.00    +0.000 C 
ATOM     18  O   UNL     1       6.064   6.809  16.322  0.00  0.00    +0.000 OA
ATOM     19  O   UNL     1       6.835   5.001  17.901  0.00  0.00    +0.000 OA
ENDBRANCH  15  16
ENDBRANCH   2  15
TORSDOF 3
ENDMDL
MODEL 6
REMARK VINA RESULT:      -6.7      2.738      3.735
REMARK  Name = 
REMARK  5 active torsions:
REMARK  status: ('A' for Active; 'I' for Inactive)
REMARK    1  A    between atoms: C_1  and  C_2
REMARK    2  A    between atoms: C_2  and  C_4
REMARK    3  A    between atoms: C_5  and  C_6
REMARK    4  A    between atoms: C_6  and  S_7
REMARK    5  A    between atoms: S_7  and  C_8
REMARK                            x       y       z     vdW  Elec       q    Type
REMARK                         _______ _______ _______ _____ _____    ______ ____
ROOT
ATOM      1  C   UNL     1       5.726   4.880  17.880  0.00  0.00    +0.000 A 
ATOM      2  C   UNL     1       4.876   4.952  16.762  0.00  0.00    +0.000 A 
ATOM      3  N   UNL     1       3.559   4.610  16.846  0.00  0.00    +0.000 NA
ATOM      4  C   UNL     1       3.032   4.213  18.013  0.00  0.00    +0.000 A 
ATOM      5  C   UNL     1       1.677   3.916  18.097  0.00  0.00    +0.000 A 
ATOM      6  C   UNL     1       1.085   3.522  19.302  0.00  0.00    +0.000 A 
ATOM      7  C   UNL     1       1.857   3.412  20.450  0.00  0.00    +0.000 A 
ATOM      8  C   UNL     1       3.212   3.704  20.386  0.00  0.00    +0.000 A 
ATOM      9  C   UNL     1       3.808   4.111  19.168  0.00  0.00    +0.000 A 
ATOM     10  N   UNL     1       5.174   4.454  19.089  0.00  0.00    +0.000 N 
ATOM     11  O   UNL     1       5.854   4.384  20.170  0.00  0.00    +0.000 OA
ENDROOT
BRANCH   1  13
ATOM     12  C   UNL     1       7.614   6.712  18.094  0.00  0.00    +0.000 C 
ATOM     13  C   UNL     1       7.161   5.288  17.853  0.00  0.00    +0.000 C 
ATOM     14  O   UNL     1       8.007   4.439  17.574  0.00  0.00    +0.000 OA
ENDBRANCH   1  13
BRANCH   2  15
ATOM     15  C   UNL     1       5.228   5.530  15.419  0.00  0.00    +0.000 C 
BRANCH  15  16
ATOM     16  S   UNL     1       5.920   4.295  14.335  0.00  0.00    +0.000 S 
ATOM     17  C   UNL     1       7.447   4.970  13.715  0.00  0.00    +0.000 C 
ATOM     18  O   UNL     1       6.290   3.166  15.173  0.00  0.00    +0.000 OA
ATOM     19  O   UNL     1       5.044   4.106  13.194  0.00  0.00    +0.000 OA
ENDBRANCH  15  16
ENDBRANCH   2  15
TORSDOF 3
ENDMDL
MODEL 7
REMARK VINA RESULT:      -6.6      2.557      3.784
REMARK  Name = 
REMARK  5 active torsions:
REMARK  status: ('A' for Active; 'I' for Inactive)
REMARK    1  A    between atoms: C_1  and  C_2
REMARK    2  A    between atoms: C_2  and  C_4
REMARK    3  A    between atoms: C_5  and  C_6
REMARK    4  A    between atoms: C_6  and  S_7
REMARK    5  A    between atoms: S_7  and  C_8
REMARK                            x       y       z     vdW  Elec       q    Type
REMARK                         _______ _______ _______ _____ _____    ______ ____
ROOT
ATOM      1  C   UNL     1       5.935   4.767  18.016  0.00  0.00    +0.000 A 
ATOM      2  C   UNL     1       5.645   3.949  16.911  0.00  0.00    +0.000 A 
ATOM      3  N   UNL     1       4.428   3.353  16.766  0.00  0.00    +0.000 NA
ATOM      4  C   UNL     1       3.460   3.555  17.671  0.00  0.00    +0.000 A 
ATOM      5  C   UNL     1       2.206   2.983  17.485  0.00  0.00    +0.000 A 
ATOM      6  C   UNL     1       1.164   3.190  18.395  0.00  0.00    +0.000 A 
ATOM      7  C   UNL     1       1.370   3.974  19.522  0.00  0.00    +0.000 A 
ATOM      8  C   UNL     1       2.616   4.552  19.724  0.00  0.00    +0.000 A 
ATOM      9  C   UNL     1       3.667   4.350  18.798  0.00  0.00    +0.000 A 
ATOM     10  N   UNL     1       4.927   4.962  18.962  0.00  0.00    +0.000 N 
ATOM     11  O   UNL     1       5.080   5.713  19.986  0.00  0.00    +0.000 OA
ENDROOT
BRANCH   1  13
ATOM     12  C   UNL     1       7.491   6.868  17.656  0.00  0.00    +0.000 C 
ATOM     13  C   UNL     1       7.234   5.479  18.199  0.00  0.00    +0.000 C 
ATOM     14  O   UNL     1       8.150   4.890  18.770  0.00  0.00    +0.000 OA
ENDBRANCH   1  13
BRANCH   2  15
ATOM     15  C   UNL     1       6.527   3.738  15.710  0.00  0.00    +0.000 C 
BRANCH  15  16
ATOM     16  S   UNL     1       6.052   4.794  14.356  0.00  0.00    +0.000 S 
ATOM     17  C   UNL     1       7.544   5.147  13.448  0.00  0.00    +0.000 C 
ATOM     18  O   UNL     1       5.224   3.991  13.470  0.00  0.00    +0.000 OA
ATOM     19  O   UNL     1       5.562   6.057  14.874  0.00  0.00    +0.000 OA
ENDBRANCH  15  16
ENDBRANCH   2  15
TORSDOF 3
ENDMDL
MODEL 8
REMARK VINA RESULT:      -6.6      2.182      3.243
REMARK  Name = 
REMARK  5 active torsions:
REMARK  status: ('A' for Active; 'I' for Inactive)
REMARK    1  A    between atoms: C_1  and  C_2
REMARK    2  A    between atoms: C_2  and  C_4
REMARK    3  A    between atoms: C_5  and  C_6
REMARK    4  A    between atoms: C_6  and  S_7
REMARK    5  A    between atoms: S_7  and  C_8
REMARK                            x       y       z     vdW  Elec       q    Type
REMARK                         _______ _______ _______ _____ _____    ______ ____
ROOT
ATOM      1  C   UNL     1       4.572   4.627  16.858  0.00  0.00    +0.000 A 
ATOM      2  C   UNL     1       4.504   5.964  17.288  0.00  0.00    +0.000 A 
ATOM      3  N   UNL     1       3.690   6.342  18.314  0.00  0.00    +0.000 NA
ATOM      4  C   UNL     1       2.943   5.434  18.959  0.00  0.00    +0.000 A 
ATOM      5  C   UNL     1       2.156   5.824  20.037  0.00  0.00    +0.000 A 
ATOM      6  C   UNL     1       1.381   4.903  20.750  0.00  0.00    +0.000 A 
ATOM      7  C   UNL     1       1.380   3.564  20.382  0.00  0.00    +0.000 A 
ATOM      8  C   UNL     1       2.160   3.157  19.309  0.00  0.00    +0.000 A 
ATOM      9  C   UNL     1       2.950   4.088  18.593  0.00  0.00    +0.000 A 
ATOM     10  N   UNL     1       3.782   3.689  17.526  0.00  0.00    +0.000 N 
ATOM     11  O   UNL     1       3.795   2.444  17.234  0.00  0.00    +0.000 OA
ENDROOT
BRANCH   1  13
ATOM     12  C   UNL     1       5.188   4.369  14.305  0.00  0.00    +0.000 C 
ATOM     13  C   UNL     1       5.481   4.153  15.773  0.00  0.00    +0.000 C 
ATOM     14  O   UNL     1       6.485   3.515  16.088  0.00  0.00    +0.000 OA
ENDBRANCH   1  13
BRANCH   2  15
ATOM     15  C   UNL     1       5.380   7.091  16.814  0.00  0.00    +0.000 C 
BRANCH  15  16
ATOM     16  S   UNL     1       7.073   6.863  17.323  0.00  0.00    +0.000 S 
ATOM     17  C   UNL     1       7.695   8.481  17.737  0.00  0.00    +0.000 C 
ATOM     18  O   UNL     1       7.037   6.116  18.570  0.00  0.00    +0.000 OA
ATOM     19  O   UNL     1       7.856   6.382  16.201  0.00  0.00    +0.000 OA
ENDBRANCH  15  16
ENDBRANCH   2  15
TORSDOF 3
ENDMDL
MODEL 9
REMARK VINA RESULT:      -6.6      2.581      3.746
REMARK  Name = 
REMARK  5 active torsions:
REMARK  status: ('A' for Active; 'I' for Inactive)
REMARK    1  A    between atoms: C_1  and  C_2
REMARK    2  A    between atoms: C_2  and  C_4
REMARK    3  A    between atoms: C_5  and  C_6
REMARK    4  A    between atoms: C_6  and  S_7
REMARK    5  A    between atoms: S_7  and  C_8
REMARK                            x       y       z     vdW  Elec       q    Type
REMARK                         _______ _______ _______ _____ _____    ______ ____
ROOT
ATOM      1  C   UNL     1       6.022   4.919  18.198  0.00  0.00    +0.000 A 
ATOM      2  C   UNL     1       5.879   4.059  17.095  0.00  0.00    +0.000 A 
ATOM      3  N   UNL     1       4.712   3.397  16.855  0.00  0.00    +0.000 NA
ATOM      4  C   UNL     1       3.654   3.569  17.660  0.00  0.00    +0.000 A 
ATOM      5  C   UNL     1       2.454   2.927  17.375  0.00  0.00    +0.000 A 
ATOM      6  C   UNL     1       1.321   3.101  18.178  0.00  0.00    +0.000 A 
ATOM      7  C   UNL     1       1.381   3.922  19.295  0.00  0.00    +0.000 A 
ATOM      8  C   UNL     1       2.571   4.571  19.595  0.00  0.00    +0.000 A 
ATOM      9  C   UNL     1       3.714   4.402  18.778  0.00  0.00    +0.000 A 
ATOM     10  N   UNL     1       4.920   5.084  19.040  0.00  0.00    +0.000 N 
ATOM     11  O   UNL     1       4.937   5.867  20.050  0.00  0.00    +0.000 OA
ENDROOT
BRANCH   1  13
ATOM     12  C   UNL     1       7.551   7.038  17.826  0.00  0.00    +0.000 C 
ATOM     13  C   UNL     1       7.260   5.704  18.479  0.00  0.00    +0.000 C 
ATOM     14  O   UNL     1       8.101   5.220  19.234  0.00  0.00    +0.000 OA
ENDBRANCH   1  13
BRANCH   2  15
ATOM     15  C   UNL     1       6.879   3.866  15.988  0.00  0.00    +0.000 C 
BRANCH  15  16
ATOM     16  S   UNL     1       6.458   4.828  14.548  0.00  0.00    +0.000 S 
ATOM     17  C   UNL     1       5.328   6.090  15.101  0.00  0.00    +0.000 C 
ATOM     18  O   UNL     1       7.669   5.523  14.142  0.00  0.00    +0.000 OA
ATOM     19  O   UNL     1       5.737   3.996  13.604  0.00  0.00    +0.000 OA
ENDBRANCH  15  16
ENDBRANCH   2  15
TORSDOF 3
ENDMDL
