MODEL 1
REMARK VINA RESULT:      -8.1      0.000      0.000
REMARK  Name = 
REMARK  5 active torsions:
REMARK  status: ('A' for Active; 'I' for Inactive)
REMARK    1  A    between atoms: C_1  and  C_2
REMARK    2  A    between atoms: C_2  and  N_3
REMARK    3  A    between atoms: C_4  and  C_5
REMARK    4  A    between atoms: C_6  and  C_7
REMARK    5  A    between atoms: C_10  and  C_11
REMARK                            x       y       z     vdW  Elec       q    Type
REMARK                         _______ _______ _______ _____ _____    ______ ____
ROOT
ATOM      1  N   UNL     1      -1.018  11.861  20.703  0.00  0.00    +0.000 N 
ATOM      2  C   UNL     1      -1.007  11.468  22.027  0.00  0.00    +0.000 A 
ATOM      3  C   UNL     1      -1.686  12.214  23.129  0.00  0.00    +0.000 C 
ATOM      4  C   UNL     1      -0.255  10.302  22.112  0.00  0.00    +0.000 A 
ATOM      5  C   UNL     1       0.052   9.531  23.349  0.00  0.00    +0.000 C 
ATOM      6  C   UNL     1       0.177   9.959  20.793  0.00  0.00    +0.000 A 
ATOM      7  C   UNL     1       0.993   8.919  20.265  0.00  0.00    +0.000 A 
ATOM      8  C   UNL     1       1.250   8.869  18.889  0.00  0.00    +0.000 A 
ATOM      9  C   UNL     1       0.684   9.843  18.053  0.00  0.00    +0.000 A 
ATOM     10  C   UNL     1      -0.114  10.879  18.549  0.00  0.00    +0.000 A 
ATOM     11  C   UNL     1      -0.340  10.928  19.930  0.00  0.00    +0.000 A 
ENDROOT
BRANCH   8  12
ATOM     12  C   UNL     1       2.274   7.971  18.263  0.00  0.00    +0.000 C 
ATOM     13  O   UNL     1       2.850   8.403  17.257  0.00  0.00    +0.000 OA
ATOM     14  N   UNL     1       2.706   6.793  18.883  0.00  0.00    +0.000 N 
ATOM     15  C   UNL     1       4.080   6.421  18.523  0.00  0.00    +0.000 C 
ATOM     16  C   UNL     1       4.589   5.273  19.371  0.00  0.00    +0.000 C 
ATOM     17  C   UNL     1       3.751   4.099  18.956  0.00  0.00    +0.000 A 
ATOM     18  C   UNL     1       4.338   2.916  18.502  0.00  0.00    +0.000 A 
ATOM     19  C   UNL     1       3.535   1.895  18.011  0.00  0.00    +0.000 A 
ATOM     20  C   UNL     1       2.146   2.039  18.027  0.00  0.00    +0.000 A 
ATOM     21  C   UNL     1       1.552   3.228  18.480  0.00  0.00    +0.000 A 
ATOM     22  C   UNL     1       2.352   4.296  18.900  0.00  0.00    +0.000 A 
ATOM     23  C   UNL     1       1.791   5.680  19.251  0.00  0.00    +0.000 C 
ENDBRANCH   8  12
BRANCH   1  25
ATOM     24  C   UNL     1      -0.556  14.222  20.105  0.00  0.00    +0.000 C 
ATOM     25  C   UNL     1      -1.578  13.098  20.184  0.00  0.00    +0.000 C 
ENDBRANCH   1  25
TORSDOF 2
ENDMDL
MODEL 2
REMARK VINA RESULT:      -7.9      2.061      2.847
REMARK  Name = 
REMARK  5 active torsions:
REMARK  status: ('A' for Active; 'I' for Inactive)
REMARK    1  A    between atoms: C_1  and  C_2
REMARK    2  A    between atoms: C_2  and  N_3
REMARK    3  A    between atoms: C_4  and  C_5
REMARK    4  A    between atoms: C_6  and  C_7
REMARK    5  A    between atoms: C_10  and  C_11
REMARK                            x       y       z     vdW  Elec       q    Type
REMARK                         _______ _______ _______ _____ _____    ______ ____
ROOT
ATOM      1  N   UNL     1       0.296  11.537  20.320  0.00  0.00    +0.000 N 
ATOM      2  C   UNL     1      -0.171  11.464  21.618  0.00  0.00    +0.000 A 
ATOM      3  C   UNL     1      -0.806  12.602  22.346  0.00  0.00    +0.000 C 
ATOM      4  C   UNL     1       0.078  10.177  22.081  0.00  0.00    +0.000 A 
ATOM      5  C   UNL     1      -0.230   9.646  23.438  0.00  0.00    +0.000 C 
ATOM      6  C   UNL     1       0.688   9.437  21.020  0.00  0.00    +0.000 A 
ATOM      7  C   UNL     1       1.196   8.112  20.912  0.00  0.00    +0.000 A 
ATOM      8  C   UNL     1       1.763   7.683  19.705  0.00  0.00    +0.000 A 
ATOM      9  C   UNL     1       1.807   8.569  18.618  0.00  0.00    +0.000 A 
ATOM     10  C   UNL     1       1.322   9.878  18.702  0.00  0.00    +0.000 A 
ATOM     11  C   UNL     1       0.781  10.298  19.924  0.00  0.00    +0.000 A 
ENDROOT
BRANCH   8  12
ATOM     12  C   UNL     1       2.535   6.406  19.553  0.00  0.00    +0.000 C 
ATOM     13  O   UNL     1       2.606   5.678  20.549  0.00  0.00    +0.000 OA
ATOM     14  N   UNL     1       2.987   5.958  18.306  0.00  0.00    +0.000 N 
ATOM     15  C   UNL     1       3.104   4.496  18.225  0.00  0.00    +0.000 C 
ATOM     16  C   UNL     1       3.382   4.036  16.809  0.00  0.00    +0.000 C 
ATOM     17  C   UNL     1       4.761   4.549  16.512  0.00  0.00    +0.000 A 
ATOM     18  C   UNL     1       5.778   3.687  16.095  0.00  0.00    +0.000 A 
ATOM     19  C   UNL     1       7.071   4.172  15.947  0.00  0.00    +0.000 A 
ATOM     20  C   UNL     1       7.331   5.527  16.163  0.00  0.00    +0.000 A 
ATOM     21  C   UNL     1       6.312   6.396  16.585  0.00  0.00    +0.000 A 
ATOM     22  C   UNL     1       5.022   5.904  16.819  0.00  0.00    +0.000 A 
ATOM     23  C   UNL     1       3.900   6.747  17.436  0.00  0.00    +0.000 C 
ENDBRANCH   8  12
BRANCH   1  25
ATOM     24  C   UNL     1      -0.816  12.851  18.537  0.00  0.00    +0.000 C 
ATOM     25  C   UNL     1       0.355  12.736  19.500  0.00  0.00    +0.000 C 
ENDBRANCH   1  25
TORSDOF 2
ENDMDL
MODEL 3
REMARK VINA RESULT:      -7.9      1.637      8.175
REMARK  Name = 
REMARK  5 active torsions:
REMARK  status: ('A' for Active; 'I' for Inactive)
REMARK    1  A    between atoms: C_1  and  C_2
REMARK    2  A    between atoms: C_2  and  N_3
REMARK    3  A    between atoms: C_4  and  C_5
REMARK    4  A    between atoms: C_6  and  C_7
REMARK    5  A    between atoms: C_10  and  C_11
REMARK                            x       y       z     vdW  Elec       q    Type
REMARK                         _______ _______ _______ _____ _____    ______ ____
ROOT
ATOM      1  N   UNL     1       4.278   4.219  17.453  0.00  0.00    +0.000 N 
ATOM      2  C   UNL     1       3.346   3.378  18.032  0.00  0.00    +0.000 A 
ATOM      3  C   UNL     1       3.465   1.891  18.065  0.00  0.00    +0.000 C 
ATOM      4  C   UNL     1       2.321   4.172  18.534  0.00  0.00    +0.000 A 
ATOM      5  C   UNL     1       1.086   3.700  19.220  0.00  0.00    +0.000 C 
ATOM      6  C   UNL     1       2.657   5.539  18.280  0.00  0.00    +0.000 A 
ATOM      7  C   UNL     1       1.993   6.774  18.519  0.00  0.00    +0.000 A 
ATOM      8  C   UNL     1       2.597   7.975  18.125  0.00  0.00    +0.000 A 
ATOM      9  C   UNL     1       3.858   7.935  17.511  0.00  0.00    +0.000 A 
ATOM     10  C   UNL     1       4.527   6.733  17.258  0.00  0.00    +0.000 A 
ATOM     11  C   UNL     1       3.896   5.541  17.637  0.00  0.00    +0.000 A 
ENDROOT
BRANCH   8  12
ATOM     12  C   UNL     1       1.894   9.299  18.110  0.00  0.00    +0.000 C 
ATOM     13  O   UNL     1       2.361  10.168  17.364  0.00  0.00    +0.000 OA
ATOM     14  N   UNL     1       0.662   9.492  18.748  0.00  0.00    +0.000 N 
ATOM     15  C   UNL     1      -0.157  10.536  18.119  0.00  0.00    +0.000 C 
ATOM     16  C   UNL     1      -1.558  10.568  18.693  0.00  0.00    +0.000 C 
ATOM     17  C   UNL     1      -1.372  11.026  20.110  0.00  0.00    +0.000 A 
ATOM     18  C   UNL     1      -2.052  12.142  20.603  0.00  0.00    +0.000 A 
ATOM     19  C   UNL     1      -1.766  12.612  21.879  0.00  0.00    +0.000 A 
ATOM     20  C   UNL     1      -0.842  11.932  22.676  0.00  0.00    +0.000 A 
ATOM     21  C   UNL     1      -0.155  10.811  22.182  0.00  0.00    +0.000 A 
ATOM     22  C   UNL     1      -0.373  10.376  20.870  0.00  0.00    +0.000 A 
ATOM     23  C   UNL     1       0.453   9.269  20.203  0.00  0.00    +0.000 C 
ENDBRANCH   8  12
BRANCH   1  25
ATOM     24  C   UNL     1       5.387   4.234  15.237  0.00  0.00    +0.000 C 
ATOM     25  C   UNL     1       5.447   3.804  16.694  0.00  0.00    +0.000 C 
ENDBRANCH   1  25
TORSDOF 2
ENDMDL
MODEL 4
REMARK VINA RESULT:      -7.7      1.153      1.245
REMARK  Name = 
REMARK  5 active torsions:
REMARK  status: ('A' for Active; 'I' for Inactive)
REMARK    1  A    between atoms: C_1  and  C_2
REMARK    2  A    between atoms: C_2  and  N_3
REMARK    3  A    between atoms: C_4  and  C_5
REMARK    4  A    between atoms: C_6  and  C_7
REMARK    5  A    between atoms: C_10  and  C_11
REMARK                            x       y       z     vdW  Elec       q    Type
REMARK                         _______ _______ _______ _____ _____    ______ ____
ROOT
ATOM      1  N   UNL     1       0.277  12.895  20.843  0.00  0.00    +0.000 N 
ATOM      2  C   UNL     1      -0.321  12.399  21.986  0.00  0.00    +0.000 A 
ATOM      3  C   UNL     1      -0.930  13.251  23.051  0.00  0.00    +0.000 C 
ATOM      4  C   UNL     1      -0.224  11.013  21.942  0.00  0.00    +0.000 A 
ATOM      5  C   UNL     1      -0.707  10.055  22.976  0.00  0.00    +0.000 C 
ATOM      6  C   UNL     1       0.425  10.655  20.719  0.00  0.00    +0.000 A 
ATOM      7  C   UNL     1       0.832   9.416  20.149  0.00  0.00    +0.000 A 
ATOM      8  C   UNL     1       1.479   9.403  18.907  0.00  0.00    +0.000 A 
ATOM      9  C   UNL     1       1.702  10.617  18.241  0.00  0.00    +0.000 A 
ATOM     10  C   UNL     1       1.319  11.848  18.784  0.00  0.00    +0.000 A 
ATOM     11  C   UNL     1       0.696  11.844  20.039  0.00  0.00    +0.000 A 
ENDROOT
BRANCH   8  12
ATOM     12  C   UNL     1       2.156   8.196  18.330  0.00  0.00    +0.000 C 
ATOM     13  O   UNL     1       2.450   8.245  17.130  0.00  0.00    +0.000 OA
ATOM     14  N   UNL     1       2.611   7.145  19.135  0.00  0.00    +0.000 N 
ATOM     15  C   UNL     1       3.760   6.433  18.561  0.00  0.00    +0.000 C 
ATOM     16  C   UNL     1       4.360   5.453  19.548  0.00  0.00    +0.000 C 
ATOM     17  C   UNL     1       3.303   4.401  19.722  0.00  0.00    +0.000 A 
ATOM     18  C   UNL     1       3.584   3.052  19.499  0.00  0.00    +0.000 A 
ATOM     19  C   UNL     1       2.556   2.119  19.549  0.00  0.00    +0.000 A 
ATOM     20  C   UNL     1       1.263   2.532  19.876  0.00  0.00    +0.000 A 
ATOM     21  C   UNL     1       0.976   3.889  20.098  0.00  0.00    +0.000 A 
ATOM     22  C   UNL     1       1.986   4.849  19.969  0.00  0.00    +0.000 A 
ATOM     23  C   UNL     1       1.723   6.359  20.032  0.00  0.00    +0.000 C 
ENDBRANCH   8  12
BRANCH   1  25
ATOM     24  C   UNL     1      -0.566  14.904  19.662  0.00  0.00    +0.000 C 
ATOM     25  C   UNL     1       0.515  14.297  20.544  0.00  0.00    +0.000 C 
ENDBRANCH   1  25
TORSDOF 2
ENDMDL
MODEL 5
REMARK VINA RESULT:      -7.7      2.019      8.106
REMARK  Name = 
REMARK  5 active torsions:
REMARK  status: ('A' for Active; 'I' for Inactive)
REMARK    1  A    between atoms: C_1  and  C_2
REMARK    2  A    between atoms: C_2  and  N_3
REMARK    3  A    between atoms: C_4  and  C_5
REMARK    4  A    between atoms: C_6  and  C_7
REMARK    5  A    between atoms: C_10  and  C_11
REMARK                            x       y       z     vdW  Elec       q    Type
REMARK                         _______ _______ _______ _____ _____    ______ ____
ROOT
ATOM      1  N   UNL     1       3.511   3.996  18.013  0.00  0.00    +0.000 N 
ATOM      2  C   UNL     1       3.196   2.940  18.846  0.00  0.00    +0.000 A 
ATOM      3  C   UNL     1       3.514   1.512  18.546  0.00  0.00    +0.000 C 
ATOM      4  C   UNL     1       2.541   3.463  19.955  0.00  0.00    +0.000 A 
ATOM      5  C   UNL     1       1.992   2.693  21.106  0.00  0.00    +0.000 C 
ATOM      6  C   UNL     1       2.484   4.884  19.805  0.00  0.00    +0.000 A 
ATOM      7  C   UNL     1       1.913   5.931  20.580  0.00  0.00    +0.000 A 
ATOM      8  C   UNL     1       2.017   7.257  20.139  0.00  0.00    +0.000 A 
ATOM      9  C   UNL     1       2.698   7.527  18.943  0.00  0.00    +0.000 A 
ATOM     10  C   UNL     1       3.261   6.514  18.160  0.00  0.00    +0.000 A 
ATOM     11  C   UNL     1       3.126   5.192  18.604  0.00  0.00    +0.000 A 
ENDROOT
BRANCH   8  12
ATOM     12  C   UNL     1       1.258   8.400  20.743  0.00  0.00    +0.000 C 
ATOM     13  O   UNL     1       1.120   8.388  21.972  0.00  0.00    +0.000 OA
ATOM     14  N   UNL     1       0.890   9.524  19.993  0.00  0.00    +0.000 N 
ATOM     15  C   UNL     1       0.779  10.745  20.801  0.00  0.00    +0.000 C 
ATOM     16  C   UNL     1       0.596  11.974  19.933  0.00  0.00    +0.000 C 
ATOM     17  C   UNL     1      -0.760  11.797  19.314  0.00  0.00    +0.000 A 
ATOM     18  C   UNL     1      -1.747  12.777  19.445  0.00  0.00    +0.000 A 
ATOM     19  C   UNL     1      -3.027  12.530  18.966  0.00  0.00    +0.000 A 
ATOM     20  C   UNL     1      -3.301  11.328  18.311  0.00  0.00    +0.000 A 
ATOM     21  C   UNL     1      -2.312  10.339  18.180  0.00  0.00    +0.000 A 
ATOM     22  C   UNL     1      -1.042  10.540  18.731  0.00  0.00    +0.000 A 
ATOM     23  C   UNL     1       0.037   9.451  18.777  0.00  0.00    +0.000 C 
ENDBRANCH   8  12
BRANCH   1  25
ATOM     24  C   UNL     1       5.573   4.210  16.654  0.00  0.00    +0.000 C 
ATOM     25  C   UNL     1       4.086   3.892  16.681  0.00  0.00    +0.000 C 
ENDBRANCH   1  25
TORSDOF 2
ENDMDL
MODEL 6
REMARK VINA RESULT:      -7.7      1.970      8.430
REMARK  Name = 
REMARK  5 active torsions:
REMARK  status: ('A' for Active; 'I' for Inactive)
REMARK    1  A    between atoms: C_1  and  C_2
REMARK    2  A    between atoms: C_2  and  N_3
REMARK    3  A    between atoms: C_4  and  C_5
REMARK    4  A    between atoms: C_6  and  C_7
REMARK    5  A    between atoms: C_10  and  C_11
REMARK                            x       y       z     vdW  Elec       q    Type
REMARK                         _______ _______ _______ _____ _____    ______ ____
ROOT
ATOM      1  N   UNL     1       4.088   4.059  18.362  0.00  0.00    +0.000 N 
ATOM      2  C   UNL     1       4.701   4.650  17.274  0.00  0.00    +0.000 A 
ATOM      3  C   UNL     1       5.624   3.936  16.342  0.00  0.00    +0.000 C 
ATOM      4  C   UNL     1       4.309   5.983  17.244  0.00  0.00    +0.000 A 
ATOM      5  C   UNL     1       4.742   7.015  16.261  0.00  0.00    +0.000 C 
ATOM      6  C   UNL     1       3.405   6.201  18.331  0.00  0.00    +0.000 A 
ATOM      7  C   UNL     1       2.722   7.347  18.825  0.00  0.00    +0.000 A 
ATOM      8  C   UNL     1       1.897   7.231  19.952  0.00  0.00    +0.000 A 
ATOM      9  C   UNL     1       1.752   5.977  20.565  0.00  0.00    +0.000 A 
ATOM     10  C   UNL     1       2.419   4.838  20.103  0.00  0.00    +0.000 A 
ATOM     11  C   UNL     1       3.259   4.979  18.990  0.00  0.00    +0.000 A 
ENDROOT
BRANCH   8  12
ATOM     12  C   UNL     1       1.326   8.402  20.693  0.00  0.00    +0.000 C 
ATOM     13  O   UNL     1       1.319   8.328  21.928  0.00  0.00    +0.000 OA
ATOM     14  N   UNL     1       0.996   9.599  20.047  0.00  0.00    +0.000 N 
ATOM     15  C   UNL     1       1.095  10.774  20.922  0.00  0.00    +0.000 C 
ATOM     16  C   UNL     1       0.946  12.065  20.143  0.00  0.00    +0.000 C 
ATOM     17  C   UNL     1      -0.479  12.056  19.671  0.00  0.00    +0.000 A 
ATOM     18  C   UNL     1      -1.342  13.115  19.960  0.00  0.00    +0.000 A 
ATOM     19  C   UNL     1      -2.685  13.021  19.616  0.00  0.00    +0.000 A 
ATOM     20  C   UNL     1      -3.147  11.891  18.935  0.00  0.00    +0.000 A 
ATOM     21  C   UNL     1      -2.282  10.823  18.646  0.00  0.00    +0.000 A 
ATOM     22  C   UNL     1      -0.946  10.869  19.061  0.00  0.00    +0.000 A 
ATOM     23  C   UNL     1       0.016   9.682  18.931  0.00  0.00    +0.000 C 
ENDBRANCH   8  12
BRANCH   1  25
ATOM     24  C   UNL     1       3.321   1.704  18.290  0.00  0.00    +0.000 C 
ATOM     25  C   UNL     1       4.321   2.707  18.843  0.00  0.00    +0.000 C 
ENDBRANCH   1  25
TORSDOF 2
ENDMDL
MODEL 7
REMARK VINA RESULT:      -7.6      0.977      2.161
REMARK  Name = 
REMARK  5 active torsions:
REMARK  status: ('A' for Active; 'I' for Inactive)
REMARK    1  A    between atoms: C_1  and  C_2
REMARK    2  A    between atoms: C_2  and  N_3
REMARK    3  A    between atoms: C_4  and  C_5
REMARK    4  A    between atoms: C_6  and  C_7
REMARK    5  A    between atoms: C_10  and  C_11
REMARK                            x       y       z     vdW  Elec       q    Type
REMARK                         _______ _______ _______ _____ _____    ______ ____
ROOT
ATOM      1  N   UNL     1      -1.175  11.409  21.292  0.00  0.00    +0.000 N 
ATOM      2  C   UNL     1      -1.937  11.974  20.287  0.00  0.00    +0.000 A 
ATOM      3  C   UNL     1      -3.062  12.927  20.522  0.00  0.00    +0.000 C 
ATOM      4  C   UNL     1      -1.467  11.478  19.076  0.00  0.00    +0.000 A 
ATOM      5  C   UNL     1      -2.002  11.787  17.721  0.00  0.00    +0.000 C 
ATOM      6  C   UNL     1      -0.365  10.608  19.353  0.00  0.00    +0.000 A 
ATOM      7  C   UNL     1       0.474   9.796  18.541  0.00  0.00    +0.000 A 
ATOM      8  C   UNL     1       1.481   9.026  19.136  0.00  0.00    +0.000 A 
ATOM      9  C   UNL     1       1.652   9.082  20.528  0.00  0.00    +0.000 A 
ATOM     10  C   UNL     1       0.834   9.866  21.348  0.00  0.00    +0.000 A 
ATOM     11  C   UNL     1      -0.184  10.611  20.738  0.00  0.00    +0.000 A 
ENDROOT
BRANCH   8  12
ATOM     12  C   UNL     1       2.258   7.966  18.415  0.00  0.00    +0.000 C 
ATOM     13  O   UNL     1       2.610   8.225  17.258  0.00  0.00    +0.000 OA
ATOM     14  N   UNL     1       2.736   6.823  19.068  0.00  0.00    +0.000 N 
ATOM     15  C   UNL     1       3.953   6.275  18.457  0.00  0.00    +0.000 C 
ATOM     16  C   UNL     1       4.561   5.180  19.309  0.00  0.00    +0.000 C 
ATOM     17  C   UNL     1       3.563   4.060  19.249  0.00  0.00    +0.000 A 
ATOM     18  C   UNL     1       3.937   2.781  18.830  0.00  0.00    +0.000 A 
ATOM     19  C   UNL     1       2.966   1.800  18.669  0.00  0.00    +0.000 A 
ATOM     20  C   UNL     1       1.635   2.087  18.980  0.00  0.00    +0.000 A 
ATOM     21  C   UNL     1       1.255   3.373  19.399  0.00  0.00    +0.000 A 
ATOM     22  C   UNL     1       2.210   4.393  19.486  0.00  0.00    +0.000 A 
ATOM     23  C   UNL     1       1.853   5.856  19.773  0.00  0.00    +0.000 C 
ENDBRANCH   8  12
BRANCH   1  25
ATOM     24  C   UNL     1      -1.235  12.981  23.207  0.00  0.00    +0.000 C 
ATOM     25  C   UNL     1      -1.407  11.550  22.720  0.00  0.00    +0.000 C 
ENDBRANCH   1  25
TORSDOF 2
ENDMDL
MODEL 8
REMARK VINA RESULT:      -7.4      1.175      2.468
REMARK  Name = 
REMARK  5 active torsions:
REMARK  status: ('A' for Active; 'I' for Inactive)
REMARK    1  A    between atoms: C_1  and  C_2
REMARK    2  A    between atoms: C_2  and  N_3
REMARK    3  A    between atoms: C_4  and  C_5
REMARK    4  A    between atoms: C_6  and  C_7
REMARK    5  A    between atoms: C_10  and  C_11
REMARK                            x       y       z     vdW  Elec       q    Type
REMARK                         _______ _______ _______ _____ _____    ______ ____
ROOT
ATOM      1  N   UNL     1      -0.673  12.400  21.771  0.00  0.00    +0.000 N 
ATOM      2  C   UNL     1      -0.754  13.431  20.855  0.00  0.00    +0.000 A 
ATOM      3  C   UNL     1      -1.410  14.744  21.127  0.00  0.00    +0.000 C 
ATOM      4  C   UNL     1      -0.142  12.999  19.684  0.00  0.00    +0.000 A 
ATOM      5  C   UNL     1      -0.014  13.767  18.414  0.00  0.00    +0.000 C 
ATOM      6  C   UNL     1       0.354  11.677  19.906  0.00  0.00    +0.000 A 
ATOM      7  C   UNL     1       1.019  10.725  19.083  0.00  0.00    +0.000 A 
ATOM      8  C   UNL     1       1.366   9.475  19.610  0.00  0.00    +0.000 A 
ATOM      9  C   UNL     1       1.061   9.189  20.949  0.00  0.00    +0.000 A 
ATOM     10  C   UNL     1       0.401  10.104  21.775  0.00  0.00    +0.000 A 
ATOM     11  C   UNL     1       0.039  11.341  21.225  0.00  0.00    +0.000 A 
ENDROOT
BRANCH   8  12
ATOM     12  C   UNL     1       1.848   8.323  18.779  0.00  0.00    +0.000 C 
ATOM     13  O   UNL     1       1.839   8.481  17.553  0.00  0.00    +0.000 OA
ATOM     14  N   UNL     1       2.460   7.201  19.351  0.00  0.00    +0.000 N 
ATOM     15  C   UNL     1       3.413   6.541  18.449  0.00  0.00    +0.000 C 
ATOM     16  C   UNL     1       4.212   5.473  19.167  0.00  0.00    +0.000 C 
ATOM     17  C   UNL     1       3.204   4.413  19.504  0.00  0.00    +0.000 A 
ATOM     18  C   UNL     1       3.386   3.089  19.100  0.00  0.00    +0.000 A 
ATOM     19  C   UNL     1       2.378   2.159  19.322  0.00  0.00    +0.000 A 
ATOM     20  C   UNL     1       1.217   2.544  19.994  0.00  0.00    +0.000 A 
ATOM     21  C   UNL     1       1.029   3.876  20.399  0.00  0.00    +0.000 A 
ATOM     22  C   UNL     1       2.000   4.841  20.109  0.00  0.00    +0.000 A 
ATOM     23  C   UNL     1       1.801   6.340  20.368  0.00  0.00    +0.000 C 
ENDBRANCH   8  12
BRANCH   1  25
ATOM     24  C   UNL     1      -2.794  12.105  23.019  0.00  0.00    +0.000 C 
ATOM     25  C   UNL     1      -1.299  12.372  23.083  0.00  0.00    +0.000 C 
ENDBRANCH   1  25
TORSDOF 2
ENDMDL
MODEL 9
REMARK VINA RESULT:      -7.4      1.853      3.296
REMARK  Name = 
REMARK  5 active torsions:
REMARK  status: ('A' for Active; 'I' for Inactive)
REMARK    1  A    between atoms: C_1  and  C_2
REMARK    2  A    between atoms: C_2  and  N_3
REMARK    3  A    between atoms: C_4  and  C_5
REMARK    4  A    between atoms: C_6  and  C_7
REMARK    5  A    between atoms: C_10  and  C_11
REMARK                            x       y       z     vdW  Elec       q    Type
REMARK                         _______ _______ _______ _____ _____    ______ ____
ROOT
ATOM      1  N   UNL     1      -1.087  11.277  21.219  0.00  0.00    +0.000 N 
ATOM      2  C   UNL     1      -1.621  11.552  19.975  0.00  0.00    +0.000 A 
ATOM      3  C   UNL     1      -2.622  12.629  19.712  0.00  0.00    +0.000 C 
ATOM      4  C   UNL     1      -1.070  10.650  19.073  0.00  0.00    +0.000 A 
ATOM      5  C   UNL     1      -1.373  10.551  17.618  0.00  0.00    +0.000 C 
ATOM      6  C   UNL     1      -0.148   9.821  19.786  0.00  0.00    +0.000 A 
ATOM      7  C   UNL     1       0.668   8.716  19.416  0.00  0.00    +0.000 A 
ATOM      8  C   UNL     1       1.469   8.091  20.380  0.00  0.00    +0.000 A 
ATOM      9  C   UNL     1       1.461   8.579  21.696  0.00  0.00    +0.000 A 
ATOM     10  C   UNL     1       0.661   9.659  22.085  0.00  0.00    +0.000 A 
ATOM     11  C   UNL     1      -0.153  10.255  21.113  0.00  0.00    +0.000 A 
ENDROOT
BRANCH   8  12
ATOM     12  C   UNL     1       2.178   6.788  20.162  0.00  0.00    +0.000 C 
ATOM     13  O   UNL     1       2.247   6.024  21.132  0.00  0.00    +0.000 OA
ATOM     14  N   UNL     1       2.570   6.362  18.887  0.00  0.00    +0.000 N 
ATOM     15  C   UNL     1       2.618   4.900  18.756  0.00  0.00    +0.000 C 
ATOM     16  C   UNL     1       2.832   4.475  17.318  0.00  0.00    +0.000 C 
ATOM     17  C   UNL     1       4.223   4.937  16.993  0.00  0.00    +0.000 A 
ATOM     18  C   UNL     1       5.186   4.046  16.515  0.00  0.00    +0.000 A 
ATOM     19  C   UNL     1       6.495   4.478  16.341  0.00  0.00    +0.000 A 
ATOM     20  C   UNL     1       6.822   5.812  16.592  0.00  0.00    +0.000 A 
ATOM     21  C   UNL     1       5.856   6.711  17.075  0.00  0.00    +0.000 A 
ATOM     22  C   UNL     1       4.554   6.268  17.334  0.00  0.00    +0.000 A 
ATOM     23  C   UNL     1       3.490   7.139  18.014  0.00  0.00    +0.000 C 
ENDBRANCH   8  12
BRANCH   1  25
ATOM     24  C   UNL     1      -0.761  13.206  22.740  0.00  0.00    +0.000 C 
ATOM     25  C   UNL     1      -1.483  11.894  22.474  0.00  0.00    +0.000 C 
ENDBRANCH   1  25
TORSDOF 2
ENDMDL
