MODEL 1
REMARK VINA RESULT:      -5.9      0.000      0.000
REMARK  Name = 
REMARK  25 active torsions:
REMARK  status: ('A' for Active; 'I' for Inactive)
REMARK    1  A    between atoms: C_1  and  C_2
REMARK    2  A    between atoms: C_2  and  C_3
REMARK    3  A    between atoms: C_3  and  C_4
REMARK    4  A    between atoms: C_4  and  C_5
REMARK    5  A    between atoms: C_5  and  C_6
REMARK    6  A    between atoms: C_6  and  C_7
REMARK    7  A    between atoms: C_7  and  C_8
REMARK    8  A    between atoms: C_8  and  C_9
REMARK    9  A    between atoms: C_10  and  C_11
REMARK   10  A    between atoms: C_11  and  C_12
REMARK   11  A    between atoms: C_12  and  C_13
REMARK   12  A    between atoms: C_13  and  C_14
REMARK   13  A    between atoms: C_14  and  C_15
REMARK   14  A    between atoms: C_15  and  C_16
REMARK   15  A    between atoms: C_16  and  C_17
REMARK   16  A    between atoms: C_17  and  C_18
REMARK   17  A    between atoms: C_18  and  O_20
REMARK   18  A    between atoms: O_20  and  C_21
REMARK   19  A    between atoms: C_21  and  C_22
REMARK   20  A    between atoms: C_22  and  C_23
REMARK   21  A    between atoms: C_23  and  O_24
REMARK   22  A    between atoms: C_27  and  C_28
REMARK   23  A    between atoms: C_28  and  C_29
REMARK   24  A    between atoms: C_29  and  C_30
REMARK   25  A    between atoms: C_29  and  C_31
REMARK                            x       y       z     vdW  Elec       q    Type
REMARK                         _______ _______ _______ _____ _____    ______ ____
ROOT
ATOM      1  C   UNL     1       3.089   7.785  17.738  0.00  0.00    +0.000 C 
ATOM      2  O   UNL     1       4.152   7.596  17.101  0.00  0.00    +0.000 OA
ENDROOT
BRANCH   1   3
ATOM      3  O   UNL     1       2.649   9.010  18.084  0.00  0.00    +0.000 OA
BRANCH   3   4
ATOM      4  C   UNL     1       1.231   9.237  17.983  0.00  0.00    +0.000 C 
BRANCH   4   5
ATOM      5  C   UNL     1       0.713  10.259  19.024  0.00  0.00    +0.000 C 
ATOM      6  C   UNL     1      -0.748  10.749  18.976  0.00  0.00    +0.000 C 
ATOM      7  C   UNL     1      -0.583  12.216  19.192  0.00  0.00    +0.000 C 
ATOM      8  C   UNL     1      -1.365  13.085  19.853  0.00  0.00    +0.000 C 
ATOM      9  C   UNL     1       0.799  12.599  18.857  0.00  0.00    +0.000 C 
ATOM     10  O   UNL     1       1.220  13.733  18.648  0.00  0.00    +0.000 OA
ATOM     11  O   UNL     1       1.533  11.458  18.900  0.00  0.00    +0.000 OA
BRANCH   8  12
ATOM     12  C   UNL     1      -2.704  12.730  20.421  0.00  0.00    +0.000 C 
BRANCH  12  13
ATOM     13  C   UNL     1      -2.755  12.808  21.954  0.00  0.00    +0.000 C 
ATOM     14  C   UNL     1      -1.782  11.818  22.593  0.00  0.00    +0.000 C 
ATOM     15  C   UNL     1      -2.417  14.229  22.407  0.00  0.00    +0.000 C 
ENDBRANCH  12  13
ENDBRANCH   8  12
BRANCH   5  16
ATOM     16  C   UNL     1       0.888   9.576  20.394  0.00  0.00    +0.000 C 
BRANCH  16  17
ATOM     17  O   UNL     1      -0.325   9.066  20.926  0.00  0.00    +0.000 OA
ATOM     18  H   UNL     1      -0.826   9.794  21.327  0.00  0.00    +0.000 HD
ENDBRANCH  16  17
ENDBRANCH   5  16
ENDBRANCH   4   5
ENDBRANCH   3   4
ENDBRANCH   1   3
BRANCH   1  19
ATOM     19  C   UNL     1       2.205   6.656  18.221  0.00  0.00    +0.000 C 
BRANCH  19  20
ATOM     20  C   UNL     1       2.849   5.939  19.399  0.00  0.00    +0.000 C 
BRANCH  20  21
ATOM     21  C   UNL     1       1.852   5.588  20.495  0.00  0.00    +0.000 C 
BRANCH  21  22
ATOM     22  C   UNL     1       2.428   4.546  21.444  0.00  0.00    +0.000 C 
BRANCH  22  23
ATOM     23  C   UNL     1       1.972   3.160  21.046  0.00  0.00    +0.000 C 
BRANCH  23  24
ATOM     24  C   UNL     1       0.732   3.237  20.162  0.00  0.00    +0.000 C 
BRANCH  24  25
ATOM     25  C   UNL     1       0.844   2.237  19.027  0.00  0.00    +0.000 C 
BRANCH  25  27
ATOM     26  C   UNL     1       2.788   3.117  17.176  0.00  0.00    +0.000 C 
ATOM     27  C   UNL     1       1.890   2.711  18.030  0.00  0.00    +0.000 C 
BRANCH  26  28
ATOM     28  C   UNL     1       3.833   3.589  16.179  0.00  0.00    +0.000 C 
BRANCH  28  29
ATOM     29  C   UNL     1       5.006   4.191  16.925  0.00  0.00    +0.000 C 
BRANCH  29  30
ATOM     30  C   UNL     1       5.857   5.009  15.970  0.00  0.00    +0.000 C 
BRANCH  30  31
ATOM     31  C   UNL     1       6.711   4.092  15.114  0.00  0.00    +0.000 C 
BRANCH  31  32
ATOM     32  C   UNL     1       6.972   4.734  13.763  0.00  0.00    +0.000 C 
BRANCH  32  33
ATOM     33  C   UNL     1       6.557   3.790  12.646  0.00  0.00    +0.000 C 
BRANCH  33  35
ATOM     34  C   UNL     1       4.399   3.409  11.457  0.00  0.00    +0.000 C 
ATOM     35  C   UNL     1       5.096   3.392  12.803  0.00  0.00    +0.000 C 
ENDBRANCH  33  35
ENDBRANCH  32  33
ENDBRANCH  31  32
ENDBRANCH  30  31
ENDBRANCH  29  30
ENDBRANCH  28  29
ENDBRANCH  26  28
ENDBRANCH  25  27
ENDBRANCH  24  25
ENDBRANCH  23  24
ENDBRANCH  22  23
ENDBRANCH  21  22
ENDBRANCH  20  21
ENDBRANCH  19  20
ENDBRANCH   1  19
TORSDOF 22
ENDMDL
MODEL 2
REMARK VINA RESULT:      -5.9      6.085      9.777
REMARK  Name = 
REMARK  25 active torsions:
REMARK  status: ('A' for Active; 'I' for Inactive)
REMARK    1  A    between atoms: C_1  and  C_2
REMARK    2  A    between atoms: C_2  and  C_3
REMARK    3  A    between atoms: C_3  and  C_4
REMARK    4  A    between atoms: C_4  and  C_5
REMARK    5  A    between atoms: C_5  and  C_6
REMARK    6  A    between atoms: C_6  and  C_7
REMARK    7  A    between atoms: C_7  and  C_8
REMARK    8  A    between atoms: C_8  and  C_9
REMARK    9  A    between atoms: C_10  and  C_11
REMARK   10  A    between atoms: C_11  and  C_12
REMARK   11  A    between atoms: C_12  and  C_13
REMARK   12  A    between atoms: C_13  and  C_14
REMARK   13  A    between atoms: C_14  and  C_15
REMARK   14  A    between atoms: C_15  and  C_16
REMARK   15  A    between atoms: C_16  and  C_17
REMARK   16  A    between atoms: C_17  and  C_18
REMARK   17  A    between atoms: C_18  and  O_20
REMARK   18  A    between atoms: O_20  and  C_21
REMARK   19  A    between atoms: C_21  and  C_22
REMARK   20  A    between atoms: C_22  and  C_23
REMARK   21  A    between atoms: C_23  and  O_24
REMARK   22  A    between atoms: C_27  and  C_28
REMARK   23  A    between atoms: C_28  and  C_29
REMARK   24  A    between atoms: C_29  and  C_30
REMARK   25  A    between atoms: C_29  and  C_31
REMARK                            x       y       z     vdW  Elec       q    Type
REMARK                         _______ _______ _______ _____ _____    ______ ____
ROOT
ATOM      1  C   UNL     1       7.286   5.447  16.813  0.00  0.00    +0.000 C 
ATOM      2  O   UNL     1       7.535   5.747  15.622  0.00  0.00    +0.000 OA
ENDROOT
BRANCH   1   3
ATOM      3  O   UNL     1       6.593   4.347  17.164  0.00  0.00    +0.000 OA
BRANCH   3   4
ATOM      4  C   UNL     1       5.843   4.421  18.390  0.00  0.00    +0.000 C 
BRANCH   4   5
ATOM      5  C   UNL     1       4.407   4.962  18.182  0.00  0.00    +0.000 C 
ATOM      6  C   UNL     1       4.155   6.476  18.051  0.00  0.00    +0.000 C 
ATOM      7  C   UNL     1       2.957   6.661  18.921  0.00  0.00    +0.000 C 
ATOM      8  C   UNL     1       1.909   7.489  18.784  0.00  0.00    +0.000 C 
ATOM      9  C   UNL     1       2.864   5.529  19.858  0.00  0.00    +0.000 C 
ATOM     10  O   UNL     1       2.192   5.473  20.883  0.00  0.00    +0.000 OA
ATOM     11  O   UNL     1       3.612   4.529  19.324  0.00  0.00    +0.000 OA
BRANCH   8  12
ATOM     12  C   UNL     1       1.816   8.540  17.721  0.00  0.00    +0.000 C 
BRANCH  12  13
ATOM     13  C   UNL     1       1.173   9.846  18.212  0.00  0.00    +0.000 C 
ATOM     14  C   UNL     1       0.633   9.698  19.633  0.00  0.00    +0.000 C 
ATOM     15  C   UNL     1       2.204  10.974  18.166  0.00  0.00    +0.000 C 
ENDBRANCH  12  13
ENDBRANCH   8  12
BRANCH   5  16
ATOM     16  C   UNL     1       3.918   4.333  16.863  0.00  0.00    +0.000 C 
BRANCH  16  17
ATOM     17  O   UNL     1       3.027   3.245  17.056  0.00  0.00    +0.000 OA
ATOM     18  H   UNL     1       3.355   2.478  16.560  0.00  0.00    +0.000 HD
ENDBRANCH  16  17
ENDBRANCH   5  16
ENDBRANCH   4   5
ENDBRANCH   3   4
ENDBRANCH   1   3
BRANCH   1  19
ATOM     19  C   UNL     1       7.704   6.308  17.985  0.00  0.00    +0.000 C 
BRANCH  19  20
ATOM     20  C   UNL     1       7.802   7.769  17.568  0.00  0.00    +0.000 C 
BRANCH  20  21
ATOM     21  C   UNL     1       8.304   8.671  18.687  0.00  0.00    +0.000 C 
BRANCH  21  22
ATOM     22  C   UNL     1       8.860   9.974  18.129  0.00  0.00    +0.000 C 
BRANCH  22  23
ATOM     23  C   UNL     1       9.259  10.903  19.255  0.00  0.00    +0.000 C 
BRANCH  23  24
ATOM     24  C   UNL     1      10.713  11.338  19.101  0.00  0.00    +0.000 C 
BRANCH  24  25
ATOM     25  C   UNL     1      11.006  11.653  17.647  0.00  0.00    +0.000 C 
BRANCH  25  27
ATOM     26  C   UNL     1      11.519  14.415  17.358  0.00  0.00    +0.000 C 
ATOM     27  C   UNL     1      11.282  13.140  17.492  0.00  0.00    +0.000 C 
BRANCH  26  28
ATOM     28  C   UNL     1      11.794  15.902  17.202  0.00  0.00    +0.000 C 
BRANCH  28  29
ATOM     29  C   UNL     1      10.526  16.608  16.770  0.00  0.00    +0.000 C 
BRANCH  29  30
ATOM     30  C   UNL     1      10.119  17.625  17.821  0.00  0.00    +0.000 C 
BRANCH  30  31
ATOM     31  C   UNL     1       9.263  16.963  18.885  0.00  0.00    +0.000 C 
BRANCH  31  32
ATOM     32  C   UNL     1       7.825  16.861  18.407  0.00  0.00    +0.000 C 
BRANCH  32  33
ATOM     33  C   UNL     1       7.124  15.705  19.100  0.00  0.00    +0.000 C 
BRANCH  33  35
ATOM     34  C   UNL     1       7.468  13.800  17.529  0.00  0.00    +0.000 C 
ATOM     35  C   UNL     1       6.462  14.794  18.076  0.00  0.00    +0.000 C 
ENDBRANCH  33  35
ENDBRANCH  32  33
ENDBRANCH  31  32
ENDBRANCH  30  31
ENDBRANCH  29  30
ENDBRANCH  28  29
ENDBRANCH  26  28
ENDBRANCH  25  27
ENDBRANCH  24  25
ENDBRANCH  23  24
ENDBRANCH  22  23
ENDBRANCH  21  22
ENDBRANCH  20  21
ENDBRANCH  19  20
ENDBRANCH   1  19
TORSDOF 22
ENDMDL
MODEL 3
REMARK VINA RESULT:      -5.7      2.530     10.640
REMARK  Name = 
REMARK  25 active torsions:
REMARK  status: ('A' for Active; 'I' for Inactive)
REMARK    1  A    between atoms: C_1  and  C_2
REMARK    2  A    between atoms: C_2  and  C_3
REMARK    3  A    between atoms: C_3  and  C_4
REMARK    4  A    between atoms: C_4  and  C_5
REMARK    5  A    between atoms: C_5  and  C_6
REMARK    6  A    between atoms: C_6  and  C_7
REMARK    7  A    between atoms: C_7  and  C_8
REMARK    8  A    between atoms: C_8  and  C_9
REMARK    9  A    between atoms: C_10  and  C_11
REMARK   10  A    between atoms: C_11  and  C_12
REMARK   11  A    between atoms: C_12  and  C_13
REMARK   12  A    between atoms: C_13  and  C_14
REMARK   13  A    between atoms: C_14  and  C_15
REMARK   14  A    between atoms: C_15  and  C_16
REMARK   15  A    between atoms: C_16  and  C_17
REMARK   16  A    between atoms: C_17  and  C_18
REMARK   17  A    between atoms: C_18  and  O_20
REMARK   18  A    between atoms: O_20  and  C_21
REMARK   19  A    between atoms: C_21  and  C_22
REMARK   20  A    between atoms: C_22  and  C_23
REMARK   21  A    between atoms: C_23  and  O_24
REMARK   22  A    between atoms: C_27  and  C_28
REMARK   23  A    between atoms: C_28  and  C_29
REMARK   24  A    between atoms: C_29  and  C_30
REMARK   25  A    between atoms: C_29  and  C_31
REMARK                            x       y       z     vdW  Elec       q    Type
REMARK                         _______ _______ _______ _____ _____    ______ ____
ROOT
ATOM      1  C   UNL     1       2.382   6.472  19.307  0.00  0.00    +0.000 C 
ATOM      2  O   UNL     1       2.145   7.210  18.323  0.00  0.00    +0.000 OA
ENDROOT
BRANCH   1   3
ATOM      3  O   UNL     1       3.182   5.391  19.239  0.00  0.00    +0.000 OA
BRANCH   3   4
ATOM      4  C   UNL     1       4.598   5.628  19.351  0.00  0.00    +0.000 C 
BRANCH   4   5
ATOM      5  C   UNL     1       5.303   5.703  17.975  0.00  0.00    +0.000 C 
ATOM      6  C   UNL     1       4.873   4.771  16.825  0.00  0.00    +0.000 C 
ATOM      7  C   UNL     1       6.190   4.325  16.286  0.00  0.00    +0.000 C 
ATOM      8  C   UNL     1       6.562   4.063  15.023  0.00  0.00    +0.000 C 
ATOM      9  C   UNL     1       7.224   4.524  17.316  0.00  0.00    +0.000 C 
ATOM     10  O   UNL     1       8.346   4.029  17.339  0.00  0.00    +0.000 OA
ATOM     11  O   UNL     1       6.717   5.424  18.197  0.00  0.00    +0.000 OA
BRANCH   8  12
ATOM     12  C   UNL     1       5.613   4.047  13.865  0.00  0.00    +0.000 C 
BRANCH  12  13
ATOM     13  C   UNL     1       6.200   3.392  12.605  0.00  0.00    +0.000 C 
ATOM     14  C   UNL     1       5.099   2.958  11.640  0.00  0.00    +0.000 C 
ATOM     15  C   UNL     1       7.140   4.376  11.907  0.00  0.00    +0.000 C 
ENDBRANCH  12  13
ENDBRANCH   8  12
BRANCH   5  16
ATOM     16  C   UNL     1       5.068   7.139  17.469  0.00  0.00    +0.000 C 
BRANCH  16  17
ATOM     17  O   UNL     1       4.590   7.193  16.133  0.00  0.00    +0.000 OA
ATOM     18  H   UNL     1       3.712   7.606  16.129  0.00  0.00    +0.000 HD
ENDBRANCH  16  17
ENDBRANCH   5  16
ENDBRANCH   4   5
ENDBRANCH   3   4
ENDBRANCH   1   3
BRANCH   1  19
ATOM     19  C   UNL     1       1.766   6.692  20.671  0.00  0.00    +0.000 C 
BRANCH  19  20
ATOM     20  C   UNL     1       1.422   8.161  20.872  0.00  0.00    +0.000 C 
BRANCH  20  21
ATOM     21  C   UNL     1       0.319   8.376  21.900  0.00  0.00    +0.000 C 
BRANCH  21  22
ATOM     22  C   UNL     1       0.211   9.845  22.285  0.00  0.00    +0.000 C 
BRANCH  22  23
ATOM     23  C   UNL     1      -0.072  10.691  21.063  0.00  0.00    +0.000 C 
BRANCH  23  24
ATOM     24  C   UNL     1      -0.503  12.097  21.472  0.00  0.00    +0.000 C 
BRANCH  24  25
ATOM     25  C   UNL     1      -0.991  12.861  20.256  0.00  0.00    +0.000 C 
BRANCH  25  27
ATOM     26  C   UNL     1      -1.536  11.053  18.156  0.00  0.00    +0.000 C 
ATOM     27  C   UNL     1      -1.285  11.888  19.125  0.00  0.00    +0.000 C 
BRANCH  26  28
ATOM     28  C   UNL     1      -1.831  10.079  17.026  0.00  0.00    +0.000 C 
BRANCH  28  29
ATOM     29  C   UNL     1      -3.320   9.812  16.965  0.00  0.00    +0.000 C 
BRANCH  29  30
ATOM     30  C   UNL     1      -3.990  10.836  16.066  0.00  0.00    +0.000 C 
BRANCH  30  31
ATOM     31  C   UNL     1      -4.862  11.764  16.892  0.00  0.00    +0.000 C 
BRANCH  31  32
ATOM     32  C   UNL     1      -5.286  11.074  18.177  0.00  0.00    +0.000 C 
BRANCH  32  33
ATOM     33  C   UNL     1      -5.107  12.012  19.359  0.00  0.00    +0.000 C 
BRANCH  33  35
ATOM     34  C   UNL     1      -7.455  11.558  20.063  0.00  0.00    +0.000 C 
ATOM     35  C   UNL     1      -6.440  12.638  19.745  0.00  0.00    +0.000 C 
ENDBRANCH  33  35
ENDBRANCH  32  33
ENDBRANCH  31  32
ENDBRANCH  30  31
ENDBRANCH  29  30
ENDBRANCH  28  29
ENDBRANCH  26  28
ENDBRANCH  25  27
ENDBRANCH  24  25
ENDBRANCH  23  24
ENDBRANCH  22  23
ENDBRANCH  21  22
ENDBRANCH  20  21
ENDBRANCH  19  20
ENDBRANCH   1  19
TORSDOF 22
ENDMDL
MODEL 4
REMARK VINA RESULT:      -5.6      6.320      8.390
REMARK  Name = 
REMARK  25 active torsions:
REMARK  status: ('A' for Active; 'I' for Inactive)
REMARK    1  A    between atoms: C_1  and  C_2
REMARK    2  A    between atoms: C_2  and  C_3
REMARK    3  A    between atoms: C_3  and  C_4
REMARK    4  A    between atoms: C_4  and  C_5
REMARK    5  A    between atoms: C_5  and  C_6
REMARK    6  A    between atoms: C_6  and  C_7
REMARK    7  A    between atoms: C_7  and  C_8
REMARK    8  A    between atoms: C_8  and  C_9
REMARK    9  A    between atoms: C_10  and  C_11
REMARK   10  A    between atoms: C_11  and  C_12
REMARK   11  A    between atoms: C_12  and  C_13
REMARK   12  A    between atoms: C_13  and  C_14
REMARK   13  A    between atoms: C_14  and  C_15
REMARK   14  A    between atoms: C_15  and  C_16
REMARK   15  A    between atoms: C_16  and  C_17
REMARK   16  A    between atoms: C_17  and  C_18
REMARK   17  A    between atoms: C_18  and  O_20
REMARK   18  A    between atoms: O_20  and  C_21
REMARK   19  A    between atoms: C_21  and  C_22
REMARK   20  A    between atoms: C_22  and  C_23
REMARK   21  A    between atoms: C_23  and  O_24
REMARK   22  A    between atoms: C_27  and  C_28
REMARK   23  A    between atoms: C_28  and  C_29
REMARK   24  A    between atoms: C_29  and  C_30
REMARK   25  A    between atoms: C_29  and  C_31
REMARK                            x       y       z     vdW  Elec       q    Type
REMARK                         _______ _______ _______ _____ _____    ______ ____
ROOT
ATOM      1  C   UNL     1       9.031  10.199  18.499  0.00  0.00    +0.000 C 
ATOM      2  O   UNL     1       9.278   9.941  19.700  0.00  0.00    +0.000 OA
ENDROOT
BRANCH   1   3
ATOM      3  O   UNL     1       9.550  11.262  17.855  0.00  0.00    +0.000 OA
BRANCH   3   4
ATOM      4  C   UNL     1      10.658  11.924  18.491  0.00  0.00    +0.000 C 
BRANCH   4   5
ATOM      5  C   UNL     1      10.361  13.408  18.820  0.00  0.00    +0.000 C 
ATOM      6  C   UNL     1       8.969  14.005  18.537  0.00  0.00    +0.000 C 
ATOM      7  C   UNL     1       9.322  15.317  17.921  0.00  0.00    +0.000 C 
ATOM      8  C   UNL     1       8.711  16.509  18.016  0.00  0.00    +0.000 C 
ATOM      9  C   UNL     1      10.702  15.253  17.410  0.00  0.00    +0.000 C 
ATOM     10  O   UNL     1      11.230  16.023  16.613  0.00  0.00    +0.000 OA
ATOM     11  O   UNL     1      11.300  14.218  18.053  0.00  0.00    +0.000 OA
BRANCH   8  12
ATOM     12  C   UNL     1       7.398  16.715  18.707  0.00  0.00    +0.000 C 
BRANCH  12  13
ATOM     13  C   UNL     1       7.527  17.435  20.058  0.00  0.00    +0.000 C 
ATOM     14  C   UNL     1       7.043  16.551  21.206  0.00  0.00    +0.000 C 
ATOM     15  C   UNL     1       8.986  17.830  20.290  0.00  0.00    +0.000 C 
ENDBRANCH  12  13
ENDBRANCH   8  12
BRANCH   5  16
ATOM     16  C   UNL     1      10.582  13.545  20.339  0.00  0.00    +0.000 C 
BRANCH  16  17
ATOM     17  O   UNL     1       9.400  13.881  21.050  0.00  0.00    +0.000 OA
ATOM     18  H   UNL     1       8.843  13.090  21.128  0.00  0.00    +0.000 HD
ENDBRANCH  16  17
ENDBRANCH   5  16
ENDBRANCH   4   5
ENDBRANCH   3   4
ENDBRANCH   1   3
BRANCH   1  19
ATOM     19  C   UNL     1       8.092   9.368  17.652  0.00  0.00    +0.000 C 
BRANCH  19  20
ATOM     20  C   UNL     1       7.960   7.963  18.222  0.00  0.00    +0.000 C 
BRANCH  20  21
ATOM     21  C   UNL     1       7.339   6.981  17.238  0.00  0.00    +0.000 C 
BRANCH  21  22
ATOM     22  C   UNL     1       5.830   6.900  17.428  0.00  0.00    +0.000 C 
BRANCH  22  23
ATOM     23  C   UNL     1       5.160   6.448  16.148  0.00  0.00    +0.000 C 
BRANCH  23  24
ATOM     24  C   UNL     1       6.158   5.723  15.249  0.00  0.00    +0.000 C 
BRANCH  24  25
ATOM     25  C   UNL     1       5.652   4.327  14.938  0.00  0.00    +0.000 C 
BRANCH  25  27
ATOM     26  C   UNL     1       4.256   3.303  17.169  0.00  0.00    +0.000 C 
ATOM     27  C   UNL     1       4.900   3.777  16.139  0.00  0.00    +0.000 C 
BRANCH  26  28
ATOM     28  C   UNL     1       3.505   2.753  18.371  0.00  0.00    +0.000 C 
BRANCH  28  29
ATOM     29  C   UNL     1       2.018   2.765  18.086  0.00  0.00    +0.000 C 
BRANCH  29  30
ATOM     30  C   UNL     1       1.482   4.180  18.209  0.00  0.00    +0.000 C 
BRANCH  30  31
ATOM     31  C   UNL     1       1.937   4.798  19.520  0.00  0.00    +0.000 C 
BRANCH  31  32
ATOM     32  C   UNL     1       2.689   6.090  19.254  0.00  0.00    +0.000 C 
BRANCH  32  33
ATOM     33  C   UNL     1       2.081   7.225  20.061  0.00  0.00    +0.000 C 
BRANCH  33  35
ATOM     34  C   UNL     1       2.253   8.136  17.747  0.00  0.00    +0.000 C 
ATOM     35  C   UNL     1       1.827   8.433  19.171  0.00  0.00    +0.000 C 
ENDBRANCH  33  35
ENDBRANCH  32  33
ENDBRANCH  31  32
ENDBRANCH  30  31
ENDBRANCH  29  30
ENDBRANCH  28  29
ENDBRANCH  26  28
ENDBRANCH  25  27
ENDBRANCH  24  25
ENDBRANCH  23  24
ENDBRANCH  22  23
ENDBRANCH  21  22
ENDBRANCH  20  21
ENDBRANCH  19  20
ENDBRANCH   1  19
TORSDOF 22
ENDMDL
MODEL 5
REMARK VINA RESULT:      -5.5      5.738     10.351
REMARK  Name = 
REMARK  25 active torsions:
REMARK  status: ('A' for Active; 'I' for Inactive)
REMARK    1  A    between atoms: C_1  and  C_2
REMARK    2  A    between atoms: C_2  and  C_3
REMARK    3  A    between atoms: C_3  and  C_4
REMARK    4  A    between atoms: C_4  and  C_5
REMARK    5  A    between atoms: C_5  and  C_6
REMARK    6  A    between atoms: C_6  and  C_7
REMARK    7  A    between atoms: C_7  and  C_8
REMARK    8  A    between atoms: C_8  and  C_9
REMARK    9  A    between atoms: C_10  and  C_11
REMARK   10  A    between atoms: C_11  and  C_12
REMARK   11  A    between atoms: C_12  and  C_13
REMARK   12  A    between atoms: C_13  and  C_14
REMARK   13  A    between atoms: C_14  and  C_15
REMARK   14  A    between atoms: C_15  and  C_16
REMARK   15  A    between atoms: C_16  and  C_17
REMARK   16  A    between atoms: C_17  and  C_18
REMARK   17  A    between atoms: C_18  and  O_20
REMARK   18  A    between atoms: O_20  and  C_21
REMARK   19  A    between atoms: C_21  and  C_22
REMARK   20  A    between atoms: C_22  and  C_23
REMARK   21  A    between atoms: C_23  and  O_24
REMARK   22  A    between atoms: C_27  and  C_28
REMARK   23  A    between atoms: C_28  and  C_29
REMARK   24  A    between atoms: C_29  and  C_30
REMARK   25  A    between atoms: C_29  and  C_31
REMARK                            x       y       z     vdW  Elec       q    Type
REMARK                         _______ _______ _______ _____ _____    ______ ____
ROOT
ATOM      1  C   UNL     1       8.019   7.345  17.850  0.00  0.00    +0.000 C 
ATOM      2  O   UNL     1       7.823   7.275  16.614  0.00  0.00    +0.000 OA
ENDROOT
BRANCH   1   3
ATOM      3  O   UNL     1       7.778   6.322  18.691  0.00  0.00    +0.000 OA
BRANCH   3   4
ATOM      4  C   UNL     1       7.497   5.045  18.089  0.00  0.00    +0.000 C 
BRANCH   4   5
ATOM      5  C   UNL     1       5.985   4.816  17.846  0.00  0.00    +0.000 C 
ATOM      6  C   UNL     1       4.967   5.928  18.166  0.00  0.00    +0.000 C 
ATOM      7  C   UNL     1       3.888   5.163  18.855  0.00  0.00    +0.000 C 
ATOM      8  C   UNL     1       2.557   5.333  18.829  0.00  0.00    +0.000 C 
ATOM      9  C   UNL     1       4.444   3.895  19.359  0.00  0.00    +0.000 C 
ATOM     10  O   UNL     1       3.944   3.152  20.197  0.00  0.00    +0.000 OA
ATOM     11  O   UNL     1       5.584   3.673  18.657  0.00  0.00    +0.000 OA
BRANCH   8  12
ATOM     12  C   UNL     1       1.881   6.486  18.154  0.00  0.00    +0.000 C 
BRANCH  12  13
ATOM     13  C   UNL     1       2.243   7.847  18.767  0.00  0.00    +0.000 C 
ATOM     14  C   UNL     1       1.645   8.997  17.958  0.00  0.00    +0.000 C 
ATOM     15  C   UNL     1       1.736   7.912  20.208  0.00  0.00    +0.000 C 
ENDBRANCH  12  13
ENDBRANCH   8  12
BRANCH   5  16
ATOM     16  C   UNL     1       5.849   4.535  16.337  0.00  0.00    +0.000 C 
BRANCH  16  17
ATOM     17  O   UNL     1       5.951   3.157  16.012  0.00  0.00    +0.000 OA
ATOM     18  H   UNL     1       6.169   3.071  15.070  0.00  0.00    +0.000 HD
ENDBRANCH  16  17
ENDBRANCH   5  16
ENDBRANCH   4   5
ENDBRANCH   3   4
ENDBRANCH   1   3
BRANCH   1  19
ATOM     19  C   UNL     1       8.513   8.600  18.537  0.00  0.00    +0.000 C 
BRANCH  19  20
ATOM     20  C   UNL     1       8.098   9.837  17.754  0.00  0.00    +0.000 C 
BRANCH  20  21
ATOM     21  C   UNL     1       8.870  11.084  18.164  0.00  0.00    +0.000 C 
BRANCH  21  22
ATOM     22  C   UNL     1       9.870  10.766  19.268  0.00  0.00    +0.000 C 
BRANCH  22  23
ATOM     23  C   UNL     1      11.230  11.338  18.928  0.00  0.00    +0.000 C 
BRANCH  23  24
ATOM     24  C   UNL     1      11.738  12.222  20.063  0.00  0.00    +0.000 C 
BRANCH  24  25
ATOM     25  C   UNL     1      10.568  12.743  20.875  0.00  0.00    +0.000 C 
BRANCH  25  27
ATOM     26  C   UNL     1       9.874  15.333  19.988  0.00  0.00    +0.000 C 
ATOM     27  C   UNL     1      10.194  14.137  20.397  0.00  0.00    +0.000 C 
BRANCH  26  28
ATOM     28  C   UNL     1       9.501  16.727  19.510  0.00  0.00    +0.000 C 
BRANCH  28  29
ATOM     29  C   UNL     1       8.884  16.639  18.130  0.00  0.00    +0.000 C 
BRANCH  29  30
ATOM     30  C   UNL     1       8.051  15.375  18.018  0.00  0.00    +0.000 C 
BRANCH  30  31
ATOM     31  C   UNL     1       6.614  15.660  18.414  0.00  0.00    +0.000 C 
BRANCH  31  32
ATOM     32  C   UNL     1       5.689  14.620  17.804  0.00  0.00    +0.000 C 
BRANCH  32  33
ATOM     33  C   UNL     1       4.271  14.822  18.309  0.00  0.00    +0.000 C 
BRANCH  33  35
ATOM     34  C   UNL     1       2.312  16.358  18.158  0.00  0.00    +0.000 C 
ATOM     35  C   UNL     1       3.533  15.825  17.434  0.00  0.00    +0.000 C 
ENDBRANCH  33  35
ENDBRANCH  32  33
ENDBRANCH  31  32
ENDBRANCH  30  31
ENDBRANCH  29  30
ENDBRANCH  28  29
ENDBRANCH  26  28
ENDBRANCH  25  27
ENDBRANCH  24  25
ENDBRANCH  23  24
ENDBRANCH  22  23
ENDBRANCH  21  22
ENDBRANCH  20  21
ENDBRANCH  19  20
ENDBRANCH   1  19
TORSDOF 22
ENDMDL
MODEL 6
REMARK VINA RESULT:      -5.5      2.023      3.133
REMARK  Name = 
REMARK  25 active torsions:
REMARK  status: ('A' for Active; 'I' for Inactive)
REMARK    1  A    between atoms: C_1  and  C_2
REMARK    2  A    between atoms: C_2  and  C_3
REMARK    3  A    between atoms: C_3  and  C_4
REMARK    4  A    between atoms: C_4  and  C_5
REMARK    5  A    between atoms: C_5  and  C_6
REMARK    6  A    between atoms: C_6  and  C_7
REMARK    7  A    between atoms: C_7  and  C_8
REMARK    8  A    between atoms: C_8  and  C_9
REMARK    9  A    between atoms: C_10  and  C_11
REMARK   10  A    between atoms: C_11  and  C_12
REMARK   11  A    between atoms: C_12  and  C_13
REMARK   12  A    between atoms: C_13  and  C_14
REMARK   13  A    between atoms: C_14  and  C_15
REMARK   14  A    between atoms: C_15  and  C_16
REMARK   15  A    between atoms: C_16  and  C_17
REMARK   16  A    between atoms: C_17  and  C_18
REMARK   17  A    between atoms: C_18  and  O_20
REMARK   18  A    between atoms: O_20  and  C_21
REMARK   19  A    between atoms: C_21  and  C_22
REMARK   20  A    between atoms: C_22  and  C_23
REMARK   21  A    between atoms: C_23  and  O_24
REMARK   22  A    between atoms: C_27  and  C_28
REMARK   23  A    between atoms: C_28  and  C_29
REMARK   24  A    between atoms: C_29  and  C_30
REMARK   25  A    between atoms: C_29  and  C_31
REMARK                            x       y       z     vdW  Elec       q    Type
REMARK                         _______ _______ _______ _____ _____    ______ ____
ROOT
ATOM      1  C   UNL     1       2.042   7.750  19.614  0.00  0.00    +0.000 C 
ATOM      2  O   UNL     1       2.150   7.996  20.838  0.00  0.00    +0.000 OA
ENDROOT
BRANCH   1   3
ATOM      3  O   UNL     1       1.427   8.579  18.749  0.00  0.00    +0.000 OA
BRANCH   3   4
ATOM      4  C   UNL     1       1.502   9.986  19.041  0.00  0.00    +0.000 C 
BRANCH   4   5
ATOM      5  C   UNL     1       0.115  10.614  19.323  0.00  0.00    +0.000 C 
ATOM      6  C   UNL     1      -1.085  10.296  18.410  0.00  0.00    +0.000 C 
ATOM      7  C   UNL     1      -1.693  11.646  18.226  0.00  0.00    +0.000 C 
ATOM      8  C   UNL     1      -2.981  12.005  18.113  0.00  0.00    +0.000 C 
ATOM      9  C   UNL     1      -0.681  12.674  18.525  0.00  0.00    +0.000 C 
ATOM     10  O   UNL     1      -0.725  13.862  18.222  0.00  0.00    +0.000 OA
ATOM     11  O   UNL     1       0.276  12.062  19.268  0.00  0.00    +0.000 OA
BRANCH   8  12
ATOM     12  C   UNL     1      -4.110  11.025  18.016  0.00  0.00    +0.000 C 
BRANCH  12  13
ATOM     13  C   UNL     1      -5.266  11.332  18.980  0.00  0.00    +0.000 C 
ATOM     14  C   UNL     1      -5.348  12.825  19.291  0.00  0.00    +0.000 C 
ATOM     15  C   UNL     1      -6.585  10.860  18.366  0.00  0.00    +0.000 C 
ENDBRANCH  12  13
ENDBRANCH   8  12
BRANCH   5  16
ATOM     16  C   UNL     1      -0.279  10.127  20.731  0.00  0.00    +0.000 C 
BRANCH  16  17
ATOM     17  O   UNL     1       0.683  10.444  21.725  0.00  0.00    +0.000 OA
ATOM     18  H   UNL     1       0.460   9.971  22.542  0.00  0.00    +0.000 HD
ENDBRANCH  16  17
ENDBRANCH   5  16
ENDBRANCH   4   5
ENDBRANCH   3   4
ENDBRANCH   1   3
BRANCH   1  19
ATOM     19  C   UNL     1       2.557   6.476  18.980  0.00  0.00    +0.000 C 
BRANCH  19  20
ATOM     20  C   UNL     1       3.027   5.498  20.048  0.00  0.00    +0.000 C 
BRANCH  20  21
ATOM     21  C   UNL     1       1.929   5.132  21.038  0.00  0.00    +0.000 C 
BRANCH  21  22
ATOM     22  C   UNL     1       2.158   3.741  21.615  0.00  0.00    +0.000 C 
BRANCH  22  23
ATOM     23  C   UNL     1       2.164   2.706  20.511  0.00  0.00    +0.000 C 
BRANCH  23  24
ATOM     24  C   UNL     1       0.867   2.769  19.710  0.00  0.00    +0.000 C 
BRANCH  24  25
ATOM     25  C   UNL     1       1.100   2.239  18.308  0.00  0.00    +0.000 C 
BRANCH  25  27
ATOM     26  C   UNL     1       3.602   3.139  17.356  0.00  0.00    +0.000 C 
ATOM     27  C   UNL     1       2.447   2.725  17.796  0.00  0.00    +0.000 C 
BRANCH  26  28
ATOM     28  C   UNL     1       4.949   3.624  16.843  0.00  0.00    +0.000 C 
BRANCH  28  29
ATOM     29  C   UNL     1       4.762   4.309  15.505  0.00  0.00    +0.000 C 
BRANCH  29  30
ATOM     30  C   UNL     1       5.593   5.579  15.458  0.00  0.00    +0.000 C 
BRANCH  30  31
ATOM     31  C   UNL     1       4.986   6.635  16.364  0.00  0.00    +0.000 C 
BRANCH  31  32
ATOM     32  C   UNL     1       5.974   7.019  17.451  0.00  0.00    +0.000 C 
BRANCH  32  33
ATOM     33  C   UNL     1       7.351   6.464  17.128  0.00  0.00    +0.000 C 
BRANCH  33  35
ATOM     34  C   UNL     1       7.333   5.699  19.501  0.00  0.00    +0.000 C 
ATOM     35  C   UNL     1       7.702   5.328  18.078  0.00  0.00    +0.000 C 
ENDBRANCH  33  35
ENDBRANCH  32  33
ENDBRANCH  31  32
ENDBRANCH  30  31
ENDBRANCH  29  30
ENDBRANCH  28  29
ENDBRANCH  26  28
ENDBRANCH  25  27
ENDBRANCH  24  25
ENDBRANCH  23  24
ENDBRANCH  22  23
ENDBRANCH  21  22
ENDBRANCH  20  21
ENDBRANCH  19  20
ENDBRANCH   1  19
TORSDOF 22
ENDMDL
MODEL 7
REMARK VINA RESULT:      -5.5      1.465      2.423
REMARK  Name = 
REMARK  25 active torsions:
REMARK  status: ('A' for Active; 'I' for Inactive)
REMARK    1  A    between atoms: C_1  and  C_2
REMARK    2  A    between atoms: C_2  and  C_3
REMARK    3  A    between atoms: C_3  and  C_4
REMARK    4  A    between atoms: C_4  and  C_5
REMARK    5  A    between atoms: C_5  and  C_6
REMARK    6  A    between atoms: C_6  and  C_7
REMARK    7  A    between atoms: C_7  and  C_8
REMARK    8  A    between atoms: C_8  and  C_9
REMARK    9  A    between atoms: C_10  and  C_11
REMARK   10  A    between atoms: C_11  and  C_12
REMARK   11  A    between atoms: C_12  and  C_13
REMARK   12  A    between atoms: C_13  and  C_14
REMARK   13  A    between atoms: C_14  and  C_15
REMARK   14  A    between atoms: C_15  and  C_16
REMARK   15  A    between atoms: C_16  and  C_17
REMARK   16  A    between atoms: C_17  and  C_18
REMARK   17  A    between atoms: C_18  and  O_20
REMARK   18  A    between atoms: O_20  and  C_21
REMARK   19  A    between atoms: C_21  and  C_22
REMARK   20  A    between atoms: C_22  and  C_23
REMARK   21  A    between atoms: C_23  and  O_24
REMARK   22  A    between atoms: C_27  and  C_28
REMARK   23  A    between atoms: C_28  and  C_29
REMARK   24  A    between atoms: C_29  and  C_30
REMARK   25  A    between atoms: C_29  and  C_31
REMARK                            x       y       z     vdW  Elec       q    Type
REMARK                         _______ _______ _______ _____ _____    ______ ____
ROOT
ATOM      1  C   UNL     1       2.474   7.157  18.489  0.00  0.00    +0.000 C 
ATOM      2  O   UNL     1       3.602   6.874  18.022  0.00  0.00    +0.000 OA
ENDROOT
BRANCH   1   3
ATOM      3  O   UNL     1       1.883   8.352  18.307  0.00  0.00    +0.000 OA
BRANCH   3   4
ATOM      4  C   UNL     1       1.307   8.971  19.472  0.00  0.00    +0.000 C 
BRANCH   4   5
ATOM      5  C   UNL     1       0.476  10.233  19.131  0.00  0.00    +0.000 C 
ATOM      6  C   UNL     1      -0.345  10.945  20.224  0.00  0.00    +0.000 C 
ATOM      7  C   UNL     1      -1.632  11.205  19.515  0.00  0.00    +0.000 C 
ATOM      8  C   UNL     1      -2.474  12.246  19.610  0.00  0.00    +0.000 C 
ATOM      9  C   UNL     1      -1.744  10.288  18.368  0.00  0.00    +0.000 C 
ATOM     10  O   UNL     1      -2.759  10.021  17.735  0.00  0.00    +0.000 OA
ATOM     11  O   UNL     1      -0.485   9.854  18.102  0.00  0.00    +0.000 OA
BRANCH   8  12
ATOM     12  C   UNL     1      -2.322  13.349  20.612  0.00  0.00    +0.000 C 
BRANCH  12  13
ATOM     13  C   UNL     1      -3.333  13.267  21.765  0.00  0.00    +0.000 C 
ATOM     14  C   UNL     1      -4.727  12.905  21.255  0.00  0.00    +0.000 C 
ATOM     15  C   UNL     1      -2.869  12.224  22.782  0.00  0.00    +0.000 C 
ENDBRANCH  12  13
ENDBRANCH   8  12
BRANCH   5  16
ATOM     16  C   UNL     1       1.494  11.270  18.620  0.00  0.00    +0.000 C 
BRANCH  16  17
ATOM     17  O   UNL     1       0.887  12.444  18.100  0.00  0.00    +0.000 OA
ATOM     18  H   UNL     1       1.579  13.092  17.894  0.00  0.00    +0.000 HD
ENDBRANCH  16  17
ENDBRANCH   5  16
ENDBRANCH   4   5
ENDBRANCH   3   4
ENDBRANCH   1   3
BRANCH   1  19
ATOM     19  C   UNL     1       1.670   6.199  19.341  0.00  0.00    +0.000 C 
BRANCH  19  20
ATOM     20  C   UNL     1       2.593   5.299  20.151  0.00  0.00    +0.000 C 
BRANCH  20  21
ATOM     21  C   UNL     1       1.838   4.266  20.976  0.00  0.00    +0.000 C 
BRANCH  21  22
ATOM     22  C   UNL     1       1.937   2.885  20.342  0.00  0.00    +0.000 C 
BRANCH  22  23
ATOM     23  C   UNL     1       1.242   2.869  18.998  0.00  0.00    +0.000 C 
BRANCH  23  24
ATOM     24  C   UNL     1       2.108   2.168  17.955  0.00  0.00    +0.000 C 
BRANCH  24  25
ATOM     25  C   UNL     1       3.544   2.103  18.437  0.00  0.00    +0.000 C 
BRANCH  25  27
ATOM     26  C   UNL     1       5.064   4.113  17.161  0.00  0.00    +0.000 C 
ATOM     27  C   UNL     1       4.363   3.185  17.750  0.00  0.00    +0.000 C 
BRANCH  26  28
ATOM     28  C   UNL     1       5.881   5.196  16.475  0.00  0.00    +0.000 C 
BRANCH  28  29
ATOM     29  C   UNL     1       5.699   5.092  14.975  0.00  0.00    +0.000 C 
BRANCH  29  30
ATOM     30  C   UNL     1       6.329   3.806  14.469  0.00  0.00    +0.000 C 
BRANCH  30  31
ATOM     31  C   UNL     1       6.328   3.788  12.951  0.00  0.00    +0.000 C 
BRANCH  31  32
ATOM     32  C   UNL     1       4.910   3.618  12.433  0.00  0.00    +0.000 C 
BRANCH  32  33
ATOM     33  C   UNL     1       4.903   2.712  11.214  0.00  0.00    +0.000 C 
BRANCH  33  35
ATOM     34  C   UNL     1       6.978   1.471  10.606  0.00  0.00    +0.000 C 
ATOM     35  C   UNL     1       5.736   1.465  11.475  0.00  0.00    +0.000 C 
ENDBRANCH  33  35
ENDBRANCH  32  33
ENDBRANCH  31  32
ENDBRANCH  30  31
ENDBRANCH  29  30
ENDBRANCH  28  29
ENDBRANCH  26  28
ENDBRANCH  25  27
ENDBRANCH  24  25
ENDBRANCH  23  24
ENDBRANCH  22  23
ENDBRANCH  21  22
ENDBRANCH  20  21
ENDBRANCH  19  20
ENDBRANCH   1  19
TORSDOF 22
ENDMDL
MODEL 8
REMARK VINA RESULT:      -5.4      1.755      2.618
REMARK  Name = 
REMARK  25 active torsions:
REMARK  status: ('A' for Active; 'I' for Inactive)
REMARK    1  A    between atoms: C_1  and  C_2
REMARK    2  A    between atoms: C_2  and  C_3
REMARK    3  A    between atoms: C_3  and  C_4
REMARK    4  A    between atoms: C_4  and  C_5
REMARK    5  A    between atoms: C_5  and  C_6
REMARK    6  A    between atoms: C_6  and  C_7
REMARK    7  A    between atoms: C_7  and  C_8
REMARK    8  A    between atoms: C_8  and  C_9
REMARK    9  A    between atoms: C_10  and  C_11
REMARK   10  A    between atoms: C_11  and  C_12
REMARK   11  A    between atoms: C_12  and  C_13
REMARK   12  A    between atoms: C_13  and  C_14
REMARK   13  A    between atoms: C_14  and  C_15
REMARK   14  A    between atoms: C_15  and  C_16
REMARK   15  A    between atoms: C_16  and  C_17
REMARK   16  A    between atoms: C_17  and  C_18
REMARK   17  A    between atoms: C_18  and  O_20
REMARK   18  A    between atoms: O_20  and  C_21
REMARK   19  A    between atoms: C_21  and  C_22
REMARK   20  A    between atoms: C_22  and  C_23
REMARK   21  A    between atoms: C_23  and  O_24
REMARK   22  A    between atoms: C_27  and  C_28
REMARK   23  A    between atoms: C_28  and  C_29
REMARK   24  A    between atoms: C_29  and  C_30
REMARK   25  A    between atoms: C_29  and  C_31
REMARK                            x       y       z     vdW  Elec       q    Type
REMARK                         _______ _______ _______ _____ _____    ______ ____
ROOT
ATOM      1  C   UNL     1       2.733   8.037  17.871  0.00  0.00    +0.000 C 
ATOM      2  O   UNL     1       3.908   7.814  17.499  0.00  0.00    +0.000 OA
ENDROOT
BRANCH   1   3
ATOM      3  O   UNL     1       2.232   9.278  18.018  0.00  0.00    +0.000 OA
BRANCH   3   4
ATOM      4  C   UNL     1       1.292   9.472  19.091  0.00  0.00    +0.000 C 
BRANCH   4   5
ATOM      5  C   UNL     1       0.244  10.569  18.778  0.00  0.00    +0.000 C 
ATOM      6  C   UNL     1      -0.950  10.799  19.725  0.00  0.00    +0.000 C 
ATOM      7  C   UNL     1      -2.079  10.939  18.761  0.00  0.00    +0.000 C 
ATOM      8  C   UNL     1      -3.171  11.719  18.816  0.00  0.00    +0.000 C 
ATOM      9  C   UNL     1      -1.696  10.326  17.477  0.00  0.00    +0.000 C 
ATOM     10  O   UNL     1      -2.444  10.007  16.559  0.00  0.00    +0.000 OA
ATOM     11  O   UNL     1      -0.340  10.252  17.480  0.00  0.00    +0.000 OA
BRANCH   8  12
ATOM     12  C   UNL     1      -3.536  12.551  20.007  0.00  0.00    +0.000 C 
BRANCH  12  13
ATOM     13  C   UNL     1      -5.013  12.972  20.025  0.00  0.00    +0.000 C 
ATOM     14  C   UNL     1      -5.826  12.189  18.996  0.00  0.00    +0.000 C 
ATOM     15  C   UNL     1      -5.594  12.744  21.422  0.00  0.00    +0.000 C 
ENDBRANCH  12  13
ENDBRANCH   8  12
BRANCH   5  16
ATOM     16  C   UNL     1       1.030  11.894  18.753  0.00  0.00    +0.000 C 
BRANCH  16  17
ATOM     17  O   UNL     1       1.039  12.565  20.003  0.00  0.00    +0.000 OA
ATOM     18  H   UNL     1       1.667  13.303  19.961  0.00  0.00    +0.000 HD
ENDBRANCH  16  17
ENDBRANCH   5  16
ENDBRANCH   4   5
ENDBRANCH   3   4
ENDBRANCH   1   3
BRANCH   1  19
ATOM     19  C   UNL     1       1.759   6.937  18.233  0.00  0.00    +0.000 C 
BRANCH  19  20
ATOM     20  C   UNL     1       2.440   5.881  19.093  0.00  0.00    +0.000 C 
BRANCH  20  21
ATOM     21  C   UNL     1       1.562   4.662  19.339  0.00  0.00    +0.000 C 
BRANCH  21  22
ATOM     22  C   UNL     1       1.760   3.618  18.247  0.00  0.00    +0.000 C 
BRANCH  22  23
ATOM     23  C   UNL     1       1.897   2.239  18.854  0.00  0.00    +0.000 C 
BRANCH  23  24
ATOM     24  C   UNL     1       3.319   1.715  18.679  0.00  0.00    +0.000 C 
BRANCH  24  25
ATOM     25  C   UNL     1       4.237   2.361  19.698  0.00  0.00    +0.000 C 
BRANCH  25  27
ATOM     26  C   UNL     1       5.763   4.386  18.454  0.00  0.00    +0.000 C 
ATOM     27  C   UNL     1       5.058   3.451  19.028  0.00  0.00    +0.000 C 
BRANCH  26  28
ATOM     28  C   UNL     1       6.585   5.475  17.785  0.00  0.00    +0.000 C 
BRANCH  28  29
ATOM     29  C   UNL     1       6.154   5.617  16.340  0.00  0.00    +0.000 C 
BRANCH  29  30
ATOM     30  C   UNL     1       6.329   4.293  15.618  0.00  0.00    +0.000 C 
BRANCH  30  31
ATOM     31  C   UNL     1       6.797   4.534  14.194  0.00  0.00    +0.000 C 
BRANCH  31  32
ATOM     32  C   UNL     1       5.742   4.054  13.212  0.00  0.00    +0.000 C 
BRANCH  32  33
ATOM     33  C   UNL     1       6.328   3.000  12.288  0.00  0.00    +0.000 C 
BRANCH  33  35
ATOM     34  C   UNL     1       4.020   3.325  11.403  0.00  0.00    +0.000 C 
ATOM     35  C   UNL     1       5.249   2.438  11.372  0.00  0.00    +0.000 C 
ENDBRANCH  33  35
ENDBRANCH  32  33
ENDBRANCH  31  32
ENDBRANCH  30  31
ENDBRANCH  29  30
ENDBRANCH  28  29
ENDBRANCH  26  28
ENDBRANCH  25  27
ENDBRANCH  24  25
ENDBRANCH  23  24
ENDBRANCH  22  23
ENDBRANCH  21  22
ENDBRANCH  20  21
ENDBRANCH  19  20
ENDBRANCH   1  19
TORSDOF 22
ENDMDL
MODEL 9
REMARK VINA RESULT:      -5.4      4.723      6.876
REMARK  Name = 
REMARK  25 active torsions:
REMARK  status: ('A' for Active; 'I' for Inactive)
REMARK    1  A    between atoms: C_1  and  C_2
REMARK    2  A    between atoms: C_2  and  C_3
REMARK    3  A    between atoms: C_3  and  C_4
REMARK    4  A    between atoms: C_4  and  C_5
REMARK    5  A    between atoms: C_5  and  C_6
REMARK    6  A    between atoms: C_6  and  C_7
REMARK    7  A    between atoms: C_7  and  C_8
REMARK    8  A    between atoms: C_8  and  C_9
REMARK    9  A    between atoms: C_10  and  C_11
REMARK   10  A    between atoms: C_11  and  C_12
REMARK   11  A    between atoms: C_12  and  C_13
REMARK   12  A    between atoms: C_13  and  C_14
REMARK   13  A    between atoms: C_14  and  C_15
REMARK   14  A    between atoms: C_15  and  C_16
REMARK   15  A    between atoms: C_16  and  C_17
REMARK   16  A    between atoms: C_17  and  C_18
REMARK   17  A    between atoms: C_18  and  O_20
REMARK   18  A    between atoms: O_20  and  C_21
REMARK   19  A    between atoms: C_21  and  C_22
REMARK   20  A    between atoms: C_22  and  C_23
REMARK   21  A    between atoms: C_23  and  O_24
REMARK   22  A    between atoms: C_27  and  C_28
REMARK   23  A    between atoms: C_28  and  C_29
REMARK   24  A    between atoms: C_29  and  C_30
REMARK   25  A    between atoms: C_29  and  C_31
REMARK                            x       y       z     vdW  Elec       q    Type
REMARK                         _______ _______ _______ _____ _____    ______ ____
ROOT
ATOM      1  C   UNL     1       2.031   8.288  18.442  0.00  0.00    +0.000 C 
ATOM      2  O   UNL     1       2.519   8.724  17.373  0.00  0.00    +0.000 OA
ENDROOT
BRANCH   1   3
ATOM      3  O   UNL     1       1.043   8.915  19.108  0.00  0.00    +0.000 OA
BRANCH   3   4
ATOM      4  C   UNL     1       1.064  10.354  19.088  0.00  0.00    +0.000 C 
BRANCH   4   5
ATOM      5  C   UNL     1      -0.053  10.981  19.958  0.00  0.00    +0.000 C 
ATOM      6  C   UNL     1       0.201  12.293  20.727  0.00  0.00    +0.000 C 
ATOM      7  C   UNL     1      -0.403  11.986  22.057  0.00  0.00    +0.000 C 
ATOM      8  C   UNL     1      -1.063  12.785  22.910  0.00  0.00    +0.000 C 
ATOM      9  C   UNL     1      -0.494  10.525  22.219  0.00  0.00    +0.000 C 
ATOM     10  O   UNL     1      -0.673   9.909  23.264  0.00  0.00    +0.000 OA
ATOM     11  O   UNL     1      -0.418   9.997  20.970  0.00  0.00    +0.000 OA
BRANCH   8  12
ATOM     12  C   UNL     1      -1.208  14.264  22.719  0.00  0.00    +0.000 C 
BRANCH  12  13
ATOM     13  C   UNL     1      -2.671  14.727  22.643  0.00  0.00    +0.000 C 
ATOM     14  C   UNL     1      -3.098  14.983  21.199  0.00  0.00    +0.000 C 
ATOM     15  C   UNL     1      -3.577  13.667  23.270  0.00  0.00    +0.000 C 
ENDBRANCH  12  13
ENDBRANCH   8  12
BRANCH   5  16
ATOM     16  C   UNL     1      -1.214  11.275  18.989  0.00  0.00    +0.000 C 
BRANCH  16  17
ATOM     17  O   UNL     1      -1.856  10.103  18.511  0.00  0.00    +0.000 OA
ATOM     18  H   UNL     1      -2.713  10.009  18.956  0.00  0.00    +0.000 HD
ENDBRANCH  16  17
ENDBRANCH   5  16
ENDBRANCH   4   5
ENDBRANCH   3   4
ENDBRANCH   1   3
BRANCH   1  19
ATOM     19  C   UNL     1       2.526   7.030  19.122  0.00  0.00    +0.000 C 
BRANCH  19  20
ATOM     20  C   UNL     1       2.558   5.868  18.139  0.00  0.00    +0.000 C 
BRANCH  20  21
ATOM     21  C   UNL     1       3.829   5.036  18.248  0.00  0.00    +0.000 C 
BRANCH  21  22
ATOM     22  C   UNL     1       5.065   5.927  18.255  0.00  0.00    +0.000 C 
BRANCH  22  23
ATOM     23  C   UNL     1       6.317   5.093  18.093  0.00  0.00    +0.000 C 
BRANCH  23  24
ATOM     24  C   UNL     1       7.546   5.989  17.975  0.00  0.00    +0.000 C 
BRANCH  24  25
ATOM     25  C   UNL     1       7.182   7.270  17.250  0.00  0.00    +0.000 C 
BRANCH  25  27
ATOM     26  C   UNL     1       8.578   9.441  18.397  0.00  0.00    +0.000 C 
ATOM     27  C   UNL     1       7.933   8.439  17.868  0.00  0.00    +0.000 C 
BRANCH  26  28
ATOM     28  C   UNL     1       9.329  10.610  19.014  0.00  0.00    +0.000 C 
BRANCH  28  29
ATOM     29  C   UNL     1      10.204  11.260  17.963  0.00  0.00    +0.000 C 
BRANCH  29  30
ATOM     30  C   UNL     1      10.997  12.395  18.585  0.00  0.00    +0.000 C 
BRANCH  30  31
ATOM     31  C   UNL     1      10.142  13.647  18.662  0.00  0.00    +0.000 C 
BRANCH  31  32
ATOM     32  C   UNL     1      10.729  14.617  19.673  0.00  0.00    +0.000 C 
BRANCH  32  33
ATOM     33  C   UNL     1      10.495  14.108  21.085  0.00  0.00    +0.000 C 
BRANCH  33  35
ATOM     34  C   UNL     1       8.906  12.482  22.110  0.00  0.00    +0.000 C 
ATOM     35  C   UNL     1       9.029  13.746  21.282  0.00  0.00    +0.000 C 
ENDBRANCH  33  35
ENDBRANCH  32  33
ENDBRANCH  31  32
ENDBRANCH  30  31
ENDBRANCH  29  30
ENDBRANCH  28  29
ENDBRANCH  26  28
ENDBRANCH  25  27
ENDBRANCH  24  25
ENDBRANCH  23  24
ENDBRANCH  22  23
ENDBRANCH  21  22
ENDBRANCH  20  21
ENDBRANCH  19  20
ENDBRANCH   1  19
TORSDOF 22
ENDMDL
