MODEL 1
REMARK VINA RESULT:      -6.6      0.000      0.000
REMARK  Name = 
REMARK  7 active torsions:
REMARK  status: ('A' for Active; 'I' for Inactive)
REMARK    1  A    between atoms: C_1  and  O_2
REMARK    2  A    between atoms: O_2  and  C_3
REMARK    3  A    between atoms: C_6  and  N_7
REMARK    4  A    between atoms: N_7  and  C_8
REMARK    5  A    between atoms: N_12  and  C_13
REMARK    6  A    between atoms: C_15  and  C_16
REMARK    7  A    between atoms: C_18  and  C_19
REMARK                            x       y       z     vdW  Elec       q    Type
REMARK                         _______ _______ _______ _____ _____    ______ ____
ROOT
ATOM      1  C   UNL     1      -0.890  11.305  18.394  0.00  0.00    +0.000 A 
ATOM      2  C   UNL     1      -1.436  10.536  17.451  0.00  0.00    +0.000 A 
ATOM      3  C   UNL     1      -2.879  10.358  17.278  0.00  0.00    +0.000 A 
ATOM      4  O   UNL     1      -3.249   9.607  16.375  0.00  0.00    +0.000 OA
ATOM      5  N   UNL     1      -3.725  11.058  18.127  0.00  0.00    +0.000 N 
ATOM      6  C   UNL     1      -5.135  10.889  17.848  0.00  0.00    +0.000 C 
ATOM      7  C   UNL     1      -3.233  11.886  19.207  0.00  0.00    +0.000 A 
ATOM      8  C   UNL     1      -4.054  12.591  20.132  0.00  0.00    +0.000 A 
ATOM      9  C   UNL     1      -5.559  12.667  20.248  0.00  0.00    +0.000 C 
ATOM     10  C   UNL     1      -3.438  13.367  21.151  0.00  0.00    +0.000 A 
ATOM     11  C   UNL     1      -2.058  13.476  21.298  0.00  0.00    +0.000 A 
ATOM     12  C   UNL     1      -1.262  12.795  20.381  0.00  0.00    +0.000 A 
ATOM     13  C   UNL     1      -1.810  11.997  19.348  0.00  0.00    +0.000 A 
ENDROOT
BRANCH  11  14
ATOM     14  C   UNL     1      -1.510  14.270  22.408  0.00  0.00    +0.000 A 
ATOM     15  C   UNL     1      -0.300  14.940  22.496  0.00  0.00    +0.000 A 
ATOM     16  N   UNL     1      -0.039  15.589  23.686  0.00  0.00    +0.000 NA
ATOM     17  C   UNL     1      -1.050  15.408  24.502  0.00  0.00    +0.000 A 
ATOM     18  S   UNL     1      -2.350  14.466  23.899  0.00  0.00    +0.000 S 
ENDBRANCH  11  14
BRANCH   1  19
ATOM     19  N   UNL     1       0.498  11.421  18.493  0.00  0.00    +0.000 N 
ATOM     20  H   UNL     1       0.935  12.008  17.792  0.00  0.00    +0.000 HD
BRANCH  19  24
ATOM     21  C   UNL     1       1.825   7.440  19.388  0.00  0.00    +0.000 C 
ATOM     22  C   UNL     1       1.474   8.364  20.559  0.00  0.00    +0.000 C 
ATOM     23  C   UNL     1       0.639   9.551  20.083  0.00  0.00    +0.000 C 
ATOM     24  C   UNL     1       1.361  10.335  18.978  0.00  0.00    +0.000 C 
ATOM     25  C   UNL     1       1.744   9.411  17.811  0.00  0.00    +0.000 C 
ATOM     26  C   UNL     1       2.566   8.207  18.288  0.00  0.00    +0.000 C 
BRANCH  21  28
ATOM     27  C   UNL     1       1.763   5.350  20.631  0.00  0.00    +0.000 C 
ATOM     28  O   UNL     1       2.482   6.239  19.793  0.00  0.00    +0.000 OA
ENDBRANCH  21  28
ENDBRANCH  19  24
ENDBRANCH   1  19
TORSDOF 4
ENDMDL
MODEL 2
REMARK VINA RESULT:      -6.5      2.034      3.159
REMARK  Name = 
REMARK  7 active torsions:
REMARK  status: ('A' for Active; 'I' for Inactive)
REMARK    1  A    between atoms: C_1  and  O_2
REMARK    2  A    between atoms: O_2  and  C_3
REMARK    3  A    between atoms: C_6  and  N_7
REMARK    4  A    between atoms: N_7  and  C_8
REMARK    5  A    between atoms: N_12  and  C_13
REMARK    6  A    between atoms: C_15  and  C_16
REMARK    7  A    between atoms: C_18  and  C_19
REMARK                            x       y       z     vdW  Elec       q    Type
REMARK                         _______ _______ _______ _____ _____    ______ ____
ROOT
ATOM      1  C   UNL     1      -3.843  12.271  19.447  0.00  0.00    +0.000 A 
ATOM      2  C   UNL     1      -4.766  11.621  18.735  0.00  0.00    +0.000 A 
ATOM      3  C   UNL     1      -6.118  11.337  19.218  0.00  0.00    +0.000 A 
ATOM      4  O   UNL     1      -6.866  10.716  18.464  0.00  0.00    +0.000 OA
ATOM      5  N   UNL     1      -6.468  11.802  20.478  0.00  0.00    +0.000 N 
ATOM      6  C   UNL     1      -7.841  11.548  20.856  0.00  0.00    +0.000 C 
ATOM      7  C   UNL     1      -5.528  12.481  21.345  0.00  0.00    +0.000 A 
ATOM      8  C   UNL     1      -5.819  12.941  22.661  0.00  0.00    +0.000 A 
ATOM      9  C   UNL     1      -7.093  12.852  23.471  0.00  0.00    +0.000 C 
ATOM     10  C   UNL     1      -4.800  13.591  23.407  0.00  0.00    +0.000 A 
ATOM     11  C   UNL     1      -3.515  13.806  22.918  0.00  0.00    +0.000 A 
ATOM     12  C   UNL     1      -3.242  13.366  21.626  0.00  0.00    +0.000 A 
ATOM     13  C   UNL     1      -4.208  12.703  20.831  0.00  0.00    +0.000 A 
ENDROOT
BRANCH  11  14
ATOM     14  C   UNL     1      -2.512  14.452  23.778  0.00  0.00    +0.000 A 
ATOM     15  C   UNL     1      -1.155  14.634  23.562  0.00  0.00    +0.000 A 
ATOM     16  N   UNL     1      -0.449  15.261  24.569  0.00  0.00    +0.000 NA
ATOM     17  C   UNL     1      -1.270  15.551  25.550  0.00  0.00    +0.000 A 
ATOM     18  S   UNL     1      -2.908  15.096  25.325  0.00  0.00    +0.000 S 
ENDBRANCH  11  14
BRANCH   1  19
ATOM     19  N   UNL     1      -2.573  12.501  18.914  0.00  0.00    +0.000 N 
ATOM     20  H   UNL     1      -2.558  12.990  18.026  0.00  0.00    +0.000 HD
BRANCH  19  24
ATOM     21  C   UNL     1       1.158  10.515  18.173  0.00  0.00    +0.000 C 
ATOM     22  C   UNL     1      -0.134   9.707  18.012  0.00  0.00    +0.000 C 
ATOM     23  C   UNL     1      -1.342  10.633  17.892  0.00  0.00    +0.000 C 
ATOM     24  C   UNL     1      -1.446  11.577  19.099  0.00  0.00    +0.000 C 
ATOM     25  C   UNL     1      -0.144  12.370  19.287  0.00  0.00    +0.000 C 
ATOM     26  C   UNL     1       1.075  11.444  19.389  0.00  0.00    +0.000 C 
BRANCH  21  28
ATOM     27  C   UNL     1       2.172   8.319  17.918  0.00  0.00    +0.000 C 
ATOM     28  O   UNL     1       2.335   9.708  18.147  0.00  0.00    +0.000 OA
ENDBRANCH  21  28
ENDBRANCH  19  24
ENDBRANCH   1  19
TORSDOF 4
ENDMDL
MODEL 3
REMARK VINA RESULT:      -6.5      3.041      5.348
REMARK  Name = 
REMARK  7 active torsions:
REMARK  status: ('A' for Active; 'I' for Inactive)
REMARK    1  A    between atoms: C_1  and  O_2
REMARK    2  A    between atoms: O_2  and  C_3
REMARK    3  A    between atoms: C_6  and  N_7
REMARK    4  A    between atoms: N_7  and  C_8
REMARK    5  A    between atoms: N_12  and  C_13
REMARK    6  A    between atoms: C_15  and  C_16
REMARK    7  A    between atoms: C_18  and  C_19
REMARK                            x       y       z     vdW  Elec       q    Type
REMARK                         _______ _______ _______ _____ _____    ______ ____
ROOT
ATOM      1  C   UNL     1      -1.821  12.644  22.171  0.00  0.00    +0.000 A 
ATOM      2  C   UNL     1      -2.041  13.239  23.344  0.00  0.00    +0.000 A 
ATOM      3  C   UNL     1      -3.329  13.809  23.740  0.00  0.00    +0.000 A 
ATOM      4  O   UNL     1      -3.392  14.344  24.848  0.00  0.00    +0.000 OA
ATOM      5  N   UNL     1      -4.391  13.692  22.854  0.00  0.00    +0.000 N 
ATOM      6  C   UNL     1      -5.648  14.213  23.345  0.00  0.00    +0.000 C 
ATOM      7  C   UNL     1      -4.246  13.100  21.541  0.00  0.00    +0.000 A 
ATOM      8  C   UNL     1      -5.288  12.992  20.576  0.00  0.00    +0.000 A 
ATOM      9  C   UNL     1      -6.731  13.436  20.639  0.00  0.00    +0.000 C 
ATOM     10  C   UNL     1      -5.006  12.390  19.321  0.00  0.00    +0.000 A 
ATOM     11  C   UNL     1      -3.753  11.895  18.975  0.00  0.00    +0.000 A 
ATOM     12  C   UNL     1      -2.743  11.992  19.928  0.00  0.00    +0.000 A 
ATOM     13  C   UNL     1      -2.952  12.588  21.195  0.00  0.00    +0.000 A 
ENDROOT
BRANCH  11  14
ATOM     14  C   UNL     1      -3.544  11.325  17.635  0.00  0.00    +0.000 A 
ATOM     15  C   UNL     1      -4.325  11.445  16.497  0.00  0.00    +0.000 A 
ATOM     16  N   UNL     1      -3.889  10.770  15.374  0.00  0.00    +0.000 NA
ATOM     17  C   UNL     1      -2.779  10.135  15.663  0.00  0.00    +0.000 A 
ATOM     18  S   UNL     1      -2.203  10.308  17.270  0.00  0.00    +0.000 S 
ENDBRANCH  11  14
BRANCH   1  19
ATOM     19  N   UNL     1      -0.559  12.126  21.868  0.00  0.00    +0.000 N 
ATOM     20  H   UNL     1       0.129  12.807  21.567  0.00  0.00    +0.000 HD
BRANCH  19  24
ATOM     21  C   UNL     1       1.399   8.451  20.831  0.00  0.00    +0.000 C 
ATOM     22  C   UNL     1       1.074   9.438  19.705  0.00  0.00    +0.000 C 
ATOM     23  C   UNL     1       0.783  10.828  20.268  0.00  0.00    +0.000 C 
ATOM     24  C   UNL     1      -0.359  10.788  21.294  0.00  0.00    +0.000 C 
ATOM     25  C   UNL     1      -0.055   9.779  22.412  0.00  0.00    +0.000 C 
ATOM     26  C   UNL     1       0.256   8.386  21.851  0.00  0.00    +0.000 C 
BRANCH  21  28
ATOM     27  C   UNL     1       2.475   7.122  19.102  0.00  0.00    +0.000 C 
ATOM     28  O   UNL     1       1.818   7.171  20.358  0.00  0.00    +0.000 OA
ENDBRANCH  21  28
ENDBRANCH  19  24
ENDBRANCH   1  19
TORSDOF 4
ENDMDL
MODEL 4
REMARK VINA RESULT:      -6.4      3.222      5.635
REMARK  Name = 
REMARK  7 active torsions:
REMARK  status: ('A' for Active; 'I' for Inactive)
REMARK    1  A    between atoms: C_1  and  O_2
REMARK    2  A    between atoms: O_2  and  C_3
REMARK    3  A    between atoms: C_6  and  N_7
REMARK    4  A    between atoms: N_7  and  C_8
REMARK    5  A    between atoms: N_12  and  C_13
REMARK    6  A    between atoms: C_15  and  C_16
REMARK    7  A    between atoms: C_18  and  C_19
REMARK                            x       y       z     vdW  Elec       q    Type
REMARK                         _______ _______ _______ _____ _____    ______ ____
ROOT
ATOM      1  C   UNL     1      -3.060  13.182  21.895  0.00  0.00    +0.000 A 
ATOM      2  C   UNL     1      -3.552  13.873  22.925  0.00  0.00    +0.000 A 
ATOM      3  C   UNL     1      -4.936  14.344  23.003  0.00  0.00    +0.000 A 
ATOM      4  O   UNL     1      -5.257  14.984  24.005  0.00  0.00    +0.000 OA
ATOM      5  N   UNL     1      -5.791  14.024  21.958  0.00  0.00    +0.000 N 
ATOM      6  C   UNL     1      -7.158  14.460  22.141  0.00  0.00    +0.000 C 
ATOM      7  C   UNL     1      -5.345  13.314  20.778  0.00  0.00    +0.000 A 
ATOM      8  C   UNL     1      -6.166  12.996  19.659  0.00  0.00    +0.000 A 
ATOM      9  C   UNL     1      -7.626  13.292  19.399  0.00  0.00    +0.000 C 
ATOM     10  C   UNL     1      -5.597  12.297  18.561  0.00  0.00    +0.000 A 
ATOM     11  C   UNL     1      -4.264  11.901  18.516  0.00  0.00    +0.000 A 
ATOM     12  C   UNL     1      -3.471  12.203  19.619  0.00  0.00    +0.000 A 
ATOM     13  C   UNL     1      -3.970  12.905  20.742  0.00  0.00    +0.000 A 
ENDROOT
BRANCH  11  14
ATOM     14  C   UNL     1      -3.752  11.216  17.319  0.00  0.00    +0.000 A 
ATOM     15  C   UNL     1      -4.282  11.169  16.039  0.00  0.00    +0.000 A 
ATOM     16  N   UNL     1      -3.589  10.418  15.112  0.00  0.00    +0.000 NA
ATOM     17  C   UNL     1      -2.534   9.893  15.689  0.00  0.00    +0.000 A 
ATOM     18  S   UNL     1      -2.317  10.264  17.350  0.00  0.00    +0.000 S 
ENDBRANCH  11  14
BRANCH   1  19
ATOM     19  N   UNL     1      -1.726  12.769  21.896  0.00  0.00    +0.000 N 
ATOM     20  H   UNL     1      -1.059  13.455  21.562  0.00  0.00    +0.000 HD
BRANCH  19  24
ATOM     21  C   UNL     1       0.797   9.306  21.661  0.00  0.00    +0.000 C 
ATOM     22  C   UNL     1       0.283   9.914  20.352  0.00  0.00    +0.000 C 
ATOM     23  C   UNL     1      -0.224  11.337  20.577  0.00  0.00    +0.000 C 
ATOM     24  C   UNL     1      -1.317  11.379  21.654  0.00  0.00    +0.000 C 
ATOM     25  C   UNL     1      -0.821  10.743  22.962  0.00  0.00    +0.000 C 
ATOM     26  C   UNL     1      -0.293   9.321  22.738  0.00  0.00    +0.000 C 
BRANCH  21  28
ATOM     27  C   UNL     1       1.884   7.702  20.190  0.00  0.00    +0.000 C 
ATOM     28  O   UNL     1       1.414   8.030  21.487  0.00  0.00    +0.000 OA
ENDBRANCH  21  28
ENDBRANCH  19  24
ENDBRANCH   1  19
TORSDOF 4
ENDMDL
MODEL 5
REMARK VINA RESULT:      -6.4      3.032      3.844
REMARK  Name = 
REMARK  7 active torsions:
REMARK  status: ('A' for Active; 'I' for Inactive)
REMARK    1  A    between atoms: C_1  and  O_2
REMARK    2  A    between atoms: O_2  and  C_3
REMARK    3  A    between atoms: C_6  and  N_7
REMARK    4  A    between atoms: N_7  and  C_8
REMARK    5  A    between atoms: N_12  and  C_13
REMARK    6  A    between atoms: C_15  and  C_16
REMARK    7  A    between atoms: C_18  and  C_19
REMARK                            x       y       z     vdW  Elec       q    Type
REMARK                         _______ _______ _______ _____ _____    ______ ____
ROOT
ATOM      1  C   UNL     1       0.638  10.237  18.222  0.00  0.00    +0.000 A 
ATOM      2  C   UNL     1      -0.540   9.670  17.956  0.00  0.00    +0.000 A 
ATOM      3  C   UNL     1      -1.830  10.286  18.267  0.00  0.00    +0.000 A 
ATOM      4  O   UNL     1      -2.844   9.647  17.980  0.00  0.00    +0.000 OA
ATOM      5  N   UNL     1      -1.825  11.549  18.842  0.00  0.00    +0.000 N 
ATOM      6  C   UNL     1      -3.136  12.124  19.051  0.00  0.00    +0.000 C 
ATOM      7  C   UNL     1      -0.602  12.232  19.207  0.00  0.00    +0.000 A 
ATOM      8  C   UNL     1      -0.537  13.507  19.837  0.00  0.00    +0.000 A 
ATOM      9  C   UNL     1      -1.642  14.440  20.278  0.00  0.00    +0.000 C 
ATOM     10  C   UNL     1       0.734  14.062  20.144  0.00  0.00    +0.000 A 
ATOM     11  C   UNL     1       1.936  13.420  19.862  0.00  0.00    +0.000 A 
ATOM     12  C   UNL     1       1.865  12.180  19.234  0.00  0.00    +0.000 A 
ATOM     13  C   UNL     1       0.633  11.565  18.907  0.00  0.00    +0.000 A 
ENDROOT
BRANCH  11  14
ATOM     14  C   UNL     1       3.204  14.053  20.255  0.00  0.00    +0.000 A 
ATOM     15  C   UNL     1       3.800  14.129  21.504  0.00  0.00    +0.000 A 
ATOM     16  N   UNL     1       4.994  14.817  21.577  0.00  0.00    +0.000 NA
ATOM     17  C   UNL     1       5.303  15.267  20.384  0.00  0.00    +0.000 A 
ATOM     18  S   UNL     1       4.197  14.896  19.127  0.00  0.00    +0.000 S 
ENDBRANCH  11  14
BRANCH   1  19
ATOM     19  N   UNL     1       1.827   9.581  17.894  0.00  0.00    +0.000 N 
ATOM     20  H   UNL     1       2.316   9.948  17.086  0.00  0.00    +0.000 HD
BRANCH  19  24
ATOM     21  C   UNL     1       3.641   5.943  19.270  0.00  0.00    +0.000 C 
ATOM     22  C   UNL     1       3.661   6.236  17.766  0.00  0.00    +0.000 C 
ATOM     23  C   UNL     1       3.374   7.712  17.496  0.00  0.00    +0.000 C 
ATOM     24  C   UNL     1       2.033   8.142  18.109  0.00  0.00    +0.000 C 
ATOM     25  C   UNL     1       1.991   7.825  19.612  0.00  0.00    +0.000 C 
ATOM     26  C   UNL     1       2.298   6.348  19.889  0.00  0.00    +0.000 C 
BRANCH  21  28
ATOM     27  C   UNL     1       5.235   4.127  18.998  0.00  0.00    +0.000 C 
ATOM     28  O   UNL     1       4.043   4.612  19.592  0.00  0.00    +0.000 OA
ENDBRANCH  21  28
ENDBRANCH  19  24
ENDBRANCH   1  19
TORSDOF 4
ENDMDL
MODEL 6
REMARK VINA RESULT:      -6.4      8.860     11.573
REMARK  Name = 
REMARK  7 active torsions:
REMARK  status: ('A' for Active; 'I' for Inactive)
REMARK    1  A    between atoms: C_1  and  O_2
REMARK    2  A    between atoms: O_2  and  C_3
REMARK    3  A    between atoms: C_6  and  N_7
REMARK    4  A    between atoms: N_7  and  C_8
REMARK    5  A    between atoms: N_12  and  C_13
REMARK    6  A    between atoms: C_15  and  C_16
REMARK    7  A    between atoms: C_18  and  C_19
REMARK                            x       y       z     vdW  Elec       q    Type
REMARK                         _______ _______ _______ _____ _____    ______ ____
ROOT
ATOM      1  C   UNL     1       8.788  15.905  19.132  0.00  0.00    +0.000 A 
ATOM      2  C   UNL     1       9.438  16.309  18.039  0.00  0.00    +0.000 A 
ATOM      3  C   UNL     1      10.606  15.623  17.485  0.00  0.00    +0.000 A 
ATOM      4  O   UNL     1      11.120  16.110  16.478  0.00  0.00    +0.000 OA
ATOM      5  N   UNL     1      11.041  14.467  18.119  0.00  0.00    +0.000 N 
ATOM      6  C   UNL     1      12.153  13.805  17.472  0.00  0.00    +0.000 C 
ATOM      7  C   UNL     1      10.430  13.969  19.333  0.00  0.00    +0.000 A 
ATOM      8  C   UNL     1      10.860  12.815  20.047  0.00  0.00    +0.000 A 
ATOM      9  C   UNL     1      11.995  11.856  19.768  0.00  0.00    +0.000 C 
ATOM     10  C   UNL     1      10.171  12.439  21.232  0.00  0.00    +0.000 A 
ATOM     11  C   UNL     1       9.086  13.146  21.740  0.00  0.00    +0.000 A 
ATOM     12  C   UNL     1       8.662  14.265  21.029  0.00  0.00    +0.000 A 
ATOM     13  C   UNL     1       9.309  14.701  19.847  0.00  0.00    +0.000 A 
ENDROOT
BRANCH  11  14
ATOM     14  C   UNL     1       8.460  12.705  22.996  0.00  0.00    +0.000 A 
ATOM     15  C   UNL     1       7.854  11.496  23.300  0.00  0.00    +0.000 A 
ATOM     16  N   UNL     1       7.324  11.373  24.569  0.00  0.00    +0.000 NA
ATOM     17  C   UNL     1       7.526  12.490  25.226  0.00  0.00    +0.000 A 
ATOM     18  S   UNL     1       8.348  13.731  24.375  0.00  0.00    +0.000 S 
ENDBRANCH  11  14
BRANCH   1  19
ATOM     19  N   UNL     1       7.680  16.618  19.597  0.00  0.00    +0.000 N 
ATOM     20  H   UNL     1       7.695  16.846  20.584  0.00  0.00    +0.000 HD
BRANCH  19  24
ATOM     21  C   UNL     1       3.825  14.869  18.895  0.00  0.00    +0.000 C 
ATOM     22  C   UNL     1       4.837  14.870  17.744  0.00  0.00    +0.000 C 
ATOM     23  C   UNL     1       6.250  15.126  18.265  0.00  0.00    +0.000 C 
ATOM     24  C   UNL     1       6.328  16.443  19.049  0.00  0.00    +0.000 C 
ATOM     25  C   UNL     1       5.296  16.464  20.187  0.00  0.00    +0.000 C 
ATOM     26  C   UNL     1       3.878  16.189  19.672  0.00  0.00    +0.000 C 
BRANCH  21  28
ATOM     27  C   UNL     1       1.433  15.307  18.926  0.00  0.00    +0.000 C 
ATOM     28  O   UNL     1       2.509  14.495  18.489  0.00  0.00    +0.000 OA
ENDBRANCH  21  28
ENDBRANCH  19  24
ENDBRANCH   1  19
TORSDOF 4
ENDMDL
MODEL 7
REMARK VINA RESULT:      -6.3      2.837      4.332
REMARK  Name = 
REMARK  7 active torsions:
REMARK  status: ('A' for Active; 'I' for Inactive)
REMARK    1  A    between atoms: C_1  and  O_2
REMARK    2  A    between atoms: O_2  and  C_3
REMARK    3  A    between atoms: C_6  and  N_7
REMARK    4  A    between atoms: N_7  and  C_8
REMARK    5  A    between atoms: N_12  and  C_13
REMARK    6  A    between atoms: C_15  and  C_16
REMARK    7  A    between atoms: C_18  and  C_19
REMARK                            x       y       z     vdW  Elec       q    Type
REMARK                         _______ _______ _______ _____ _____    ______ ____
ROOT
ATOM      1  C   UNL     1       0.870  12.471  18.676  0.00  0.00    +0.000 A 
ATOM      2  C   UNL     1       2.015  12.999  18.238  0.00  0.00    +0.000 A 
ATOM      3  C   UNL     1       2.383  14.405  18.412  0.00  0.00    +0.000 A 
ATOM      4  O   UNL     1       3.465  14.765  17.946  0.00  0.00    +0.000 OA
ATOM      5  N   UNL     1       1.503  15.226  19.103  0.00  0.00    +0.000 N 
ATOM      6  C   UNL     1       1.969  16.581  19.299  0.00  0.00    +0.000 C 
ATOM      7  C   UNL     1       0.219  14.760  19.583  0.00  0.00    +0.000 A 
ATOM      8  C   UNL     1      -0.740  15.567  20.259  0.00  0.00    +0.000 A 
ATOM      9  C   UNL     1      -0.699  17.031  20.634  0.00  0.00    +0.000 C 
ATOM     10  C   UNL     1      -1.966  14.981  20.673  0.00  0.00    +0.000 A 
ATOM     11  C   UNL     1      -2.288  13.646  20.452  0.00  0.00    +0.000 A 
ATOM     12  C   UNL     1      -1.340  12.860  19.803  0.00  0.00    +0.000 A 
ATOM     13  C   UNL     1      -0.102  13.381  19.355  0.00  0.00    +0.000 A 
ENDROOT
BRANCH  11  14
ATOM     14  C   UNL     1      -3.599  13.137  20.881  0.00  0.00    +0.000 A 
ATOM     15  C   UNL     1      -4.086  12.930  22.162  0.00  0.00    +0.000 A 
ATOM     16  N   UNL     1      -5.362  12.411  22.261  0.00  0.00    +0.000 NA
ATOM     17  C   UNL     1      -5.841  12.222  21.055  0.00  0.00    +0.000 A 
ATOM     18  S   UNL     1      -4.807  12.648  19.754  0.00  0.00    +0.000 S 
ENDBRANCH  11  14
BRANCH   1  19
ATOM     19  N   UNL     1       0.593  11.118  18.468  0.00  0.00    +0.000 N 
ATOM     20  H   UNL     1      -0.389  10.868  18.489  0.00  0.00    +0.000 HD
BRANCH  19  24
ATOM     21  C   UNL     1       1.990   7.150  19.313  0.00  0.00    +0.000 C 
ATOM     22  C   UNL     1       1.702   8.080  20.495  0.00  0.00    +0.000 C 
ATOM     23  C   UNL     1       0.835   9.260  20.060  0.00  0.00    +0.000 C 
ATOM     24  C   UNL     1       1.488  10.040  18.909  0.00  0.00    +0.000 C 
ATOM     25  C   UNL     1       1.808   9.109  17.730  0.00  0.00    +0.000 C 
ATOM     26  C   UNL     1       2.663   7.913  18.166  0.00  0.00    +0.000 C 
BRANCH  21  28
ATOM     27  C   UNL     1       2.096   5.160  20.707  0.00  0.00    +0.000 C 
ATOM     28  O   UNL     1       2.677   5.956  19.687  0.00  0.00    +0.000 OA
ENDBRANCH  21  28
ENDBRANCH  19  24
ENDBRANCH   1  19
TORSDOF 4
ENDMDL
MODEL 8
REMARK VINA RESULT:      -6.3      3.195      5.460
REMARK  Name = 
REMARK  7 active torsions:
REMARK  status: ('A' for Active; 'I' for Inactive)
REMARK    1  A    between atoms: C_1  and  O_2
REMARK    2  A    between atoms: O_2  and  C_3
REMARK    3  A    between atoms: C_6  and  N_7
REMARK    4  A    between atoms: N_7  and  C_8
REMARK    5  A    between atoms: N_12  and  C_13
REMARK    6  A    between atoms: C_15  and  C_16
REMARK    7  A    between atoms: C_18  and  C_19
REMARK                            x       y       z     vdW  Elec       q    Type
REMARK                         _______ _______ _______ _____ _____    ______ ____
ROOT
ATOM      1  C   UNL     1      -1.909  13.122  22.619  0.00  0.00    +0.000 A 
ATOM      2  C   UNL     1      -2.111  13.780  23.762  0.00  0.00    +0.000 A 
ATOM      3  C   UNL     1      -3.373  14.430  24.116  0.00  0.00    +0.000 A 
ATOM      4  O   UNL     1      -3.420  15.017  25.198  0.00  0.00    +0.000 OA
ATOM      5  N   UNL     1      -4.430  14.326  23.224  0.00  0.00    +0.000 N 
ATOM      6  C   UNL     1      -5.665  14.930  23.675  0.00  0.00    +0.000 C 
ATOM      7  C   UNL     1      -4.302  13.668  21.940  0.00  0.00    +0.000 A 
ATOM      8  C   UNL     1      -5.338  13.568  20.969  0.00  0.00    +0.000 A 
ATOM      9  C   UNL     1      -6.758  14.086  20.994  0.00  0.00    +0.000 C 
ATOM     10  C   UNL     1      -5.075  12.897  19.745  0.00  0.00    +0.000 A 
ATOM     11  C   UNL     1      -3.845  12.325  19.437  0.00  0.00    +0.000 A 
ATOM     12  C   UNL     1      -2.841  12.414  20.397  0.00  0.00    +0.000 A 
ATOM     13  C   UNL     1      -3.032  13.077  21.634  0.00  0.00    +0.000 A 
ENDROOT
BRANCH  11  14
ATOM     14  C   UNL     1      -3.652  11.685  18.127  0.00  0.00    +0.000 A 
ATOM     15  C   UNL     1      -2.525  11.066  17.607  0.00  0.00    +0.000 A 
ATOM     16  N   UNL     1      -2.630  10.571  16.323  0.00  0.00    +0.000 NA
ATOM     17  C   UNL     1      -3.835  10.816  15.868  0.00  0.00    +0.000 A 
ATOM     18  S   UNL     1      -4.894  11.641  16.935  0.00  0.00    +0.000 S 
ENDBRANCH  11  14
BRANCH   1  19
ATOM     19  N   UNL     1      -0.672  12.528  22.356  0.00  0.00    +0.000 N 
ATOM     20  H   UNL     1       0.069  13.168  22.096  0.00  0.00    +0.000 HD
BRANCH  19  24
ATOM     21  C   UNL     1       1.039   8.709  21.409  0.00  0.00    +0.000 C 
ATOM     22  C   UNL     1       0.931   9.748  20.289  0.00  0.00    +0.000 C 
ATOM     23  C   UNL     1       0.710  11.146  20.864  0.00  0.00    +0.000 C 
ATOM     24  C   UNL     1      -0.535  11.192  21.761  0.00  0.00    +0.000 C 
ATOM     25  C   UNL     1      -0.449  10.132  22.871  0.00  0.00    +0.000 C 
ATOM     26  C   UNL     1      -0.209   8.729  22.299  0.00  0.00    +0.000 C 
BRANCH  21  28
ATOM     27  C   UNL     1       2.204   7.325  19.783  0.00  0.00    +0.000 C 
ATOM     28  O   UNL     1       1.387   7.407  20.939  0.00  0.00    +0.000 OA
ENDBRANCH  21  28
ENDBRANCH  19  24
ENDBRANCH   1  19
TORSDOF 4
ENDMDL
MODEL 9
REMARK VINA RESULT:      -6.2      2.575      4.799
REMARK  Name = 
REMARK  7 active torsions:
REMARK  status: ('A' for Active; 'I' for Inactive)
REMARK    1  A    between atoms: C_1  and  O_2
REMARK    2  A    between atoms: O_2  and  C_3
REMARK    3  A    between atoms: C_6  and  N_7
REMARK    4  A    between atoms: N_7  and  C_8
REMARK    5  A    between atoms: N_12  and  C_13
REMARK    6  A    between atoms: C_15  and  C_16
REMARK    7  A    between atoms: C_18  and  C_19
REMARK                            x       y       z     vdW  Elec       q    Type
REMARK                         _______ _______ _______ _____ _____    ______ ____
ROOT
ATOM      1  C   UNL     1      -0.073  12.028  20.083  0.00  0.00    +0.000 A 
ATOM      2  C   UNL     1       1.044  12.583  20.556  0.00  0.00    +0.000 A 
ATOM      3  C   UNL     1       1.068  13.797  21.373  0.00  0.00    +0.000 A 
ATOM      4  O   UNL     1       2.170  14.212  21.733  0.00  0.00    +0.000 OA
ATOM      5  N   UNL     1      -0.146  14.384  21.700  0.00  0.00    +0.000 N 
ATOM      6  C   UNL     1      -0.046  15.536  22.569  0.00  0.00    +0.000 C 
ATOM      7  C   UNL     1      -1.410  13.883  21.203  0.00  0.00    +0.000 A 
ATOM      8  C   UNL     1      -2.681  14.468  21.471  0.00  0.00    +0.000 A 
ATOM      9  C   UNL     1      -3.045  15.691  22.281  0.00  0.00    +0.000 C 
ATOM     10  C   UNL     1      -3.845  13.875  20.915  0.00  0.00    +0.000 A 
ATOM     11  C   UNL     1      -3.814  12.739  20.112  0.00  0.00    +0.000 A 
ATOM     12  C   UNL     1      -2.571  12.164  19.866  0.00  0.00    +0.000 A 
ATOM     13  C   UNL     1      -1.370  12.709  20.381  0.00  0.00    +0.000 A 
ENDROOT
BRANCH  11  14
ATOM     14  C   UNL     1      -5.069  12.217  19.547  0.00  0.00    +0.000 A 
ATOM     15  C   UNL     1      -6.267  11.931  20.181  0.00  0.00    +0.000 A 
ATOM     16  N   UNL     1      -7.278  11.423  19.391  0.00  0.00    +0.000 NA
ATOM     17  C   UNL     1      -6.845  11.321  18.157  0.00  0.00    +0.000 A 
ATOM     18  S   UNL     1      -5.228  11.820  17.879  0.00  0.00    +0.000 S 
ENDBRANCH  11  14
BRANCH   1  19
ATOM     19  N   UNL     1      -0.010  10.867  19.309  0.00  0.00    +0.000 N 
ATOM     20  H   UNL     1      -0.900  10.419  19.125  0.00  0.00    +0.000 HD
BRANCH  19  24
ATOM     21  C   UNL     1       2.190   7.199  18.966  0.00  0.00    +0.000 C 
ATOM     22  C   UNL     1       1.949   7.766  20.368  0.00  0.00    +0.000 C 
ATOM     23  C   UNL     1       0.825   8.801  20.349  0.00  0.00    +0.000 C 
ATOM     24  C   UNL     1       1.124   9.933  19.355  0.00  0.00    +0.000 C 
ATOM     25  C   UNL     1       1.397   9.371  17.952  0.00  0.00    +0.000 C 
ATOM     26  C   UNL     1       2.511   8.318  17.969  0.00  0.00    +0.000 C 
BRANCH  21  28
ATOM     27  C   UNL     1       3.175   5.316  17.782  0.00  0.00    +0.000 C 
ATOM     28  O   UNL     1       3.131   6.125  18.945  0.00  0.00    +0.000 OA
ENDBRANCH  21  28
ENDBRANCH  19  24
ENDBRANCH   1  19
TORSDOF 4
ENDMDL
