MODEL 1
REMARK VINA RESULT:      -8.0      0.000      0.000
REMARK  Name = 
REMARK  2 active torsions:
REMARK  status: ('A' for Active; 'I' for Inactive)
REMARK    1  A    between atoms: C_2  and  C_10
REMARK    2  A    between atoms: N_3  and  C_4
REMARK                            x       y       z     vdW  Elec       q    Type
REMARK                         _______ _______ _______ _____ _____    ______ ____
ROOT
ATOM      1  C   UNL     1       2.408   7.502  18.077  0.00  0.00    +0.000 A 
ATOM      2  C   UNL     1       1.559   6.397  18.192  0.00  0.00    +0.000 A 
ATOM      3  C   UNL     1       2.048   5.123  18.009  0.00  0.00    +0.000 A 
ATOM      4  C   UNL     1       3.321   4.893  18.486  0.00  0.00    +0.000 A 
ATOM      5  C   UNL     1       4.179   5.999  18.627  0.00  0.00    +0.000 A 
ATOM      6  C   UNL     1       5.606   5.661  18.615  0.00  0.00    +0.000 A 
ATOM      7  O   UNL     1       6.125   5.125  19.596  0.00  0.00    +0.000 OA
ATOM      8  C   UNL     1       6.263   5.666  17.287  0.00  0.00    +0.000 A 
ATOM      9  C   UNL     1       7.367   4.829  17.104  0.00  0.00    +0.000 A 
ATOM     10  C   UNL     1       7.409   4.056  15.959  0.00  0.00    +0.000 A 
ATOM     11  C   UNL     1       6.504   4.327  14.931  0.00  0.00    +0.000 A 
ATOM     12  C   UNL     1       5.604   5.418  15.022  0.00  0.00    +0.000 A 
ATOM     13  C   UNL     1       5.442   6.105  16.231  0.00  0.00    +0.000 A 
ATOM     14  N   UNL     1       4.342   6.984  16.508  0.00  0.00    +0.000 N 
ATOM     15  C   UNL     1       3.796   7.166  17.920  0.00  0.00    +0.000 A 
ATOM     16  H   UNL     1       4.172   7.737  15.852  0.00  0.00    +0.000 HD
ENDROOT
BRANCH   1  18
ATOM     17  O   UNL     1       2.026   9.911  18.114  0.00  0.00    +0.000 OA
ATOM     18  C   UNL     1       1.847   8.842  18.684  0.00  0.00    +0.000 C 
ATOM     19  N   UNL     1       1.176   8.648  19.914  0.00  0.00    +0.000 N 
ATOM     20  H   UNL     1       1.022   7.686  20.160  0.00  0.00    +0.000 HD
BRANCH  19  21
ATOM     21  C   UNL     1       0.637   9.479  20.945  0.00  0.00    +0.000 A 
ATOM     22  C   UNL     1       0.184  10.778  20.799  0.00  0.00    +0.000 A 
ATOM     23  C   UNL     1      -0.383  11.405  21.918  0.00  0.00    +0.000 A 
ATOM     24  N   UNL     1      -0.498  10.846  23.148  0.00  0.00    +0.000 NA
ATOM     25  C   UNL     1      -0.018   9.601  23.281  0.00  0.00    +0.000 A 
ATOM     26  C   UNL     1       0.548   8.894  22.229  0.00  0.00    +0.000 A 
ENDBRANCH  19  21
ENDBRANCH   1  18
TORSDOF 2
ENDMDL
MODEL 2
REMARK VINA RESULT:      -8.0      4.071      6.554
REMARK  Name = 
REMARK  2 active torsions:
REMARK  status: ('A' for Active; 'I' for Inactive)
REMARK    1  A    between atoms: C_2  and  C_10
REMARK    2  A    between atoms: N_3  and  C_4
REMARK                            x       y       z     vdW  Elec       q    Type
REMARK                         _______ _______ _______ _____ _____    ______ ____
ROOT
ATOM      1  C   UNL     1       6.896   6.176  17.839  0.00  0.00    +0.000 A 
ATOM      2  C   UNL     1       6.934   6.123  16.442  0.00  0.00    +0.000 A 
ATOM      3  C   UNL     1       5.861   5.626  15.737  0.00  0.00    +0.000 A 
ATOM      4  C   UNL     1       4.615   5.927  16.244  0.00  0.00    +0.000 A 
ATOM      5  C   UNL     1       4.521   6.229  17.615  0.00  0.00    +0.000 A 
ATOM      6  C   UNL     1       3.187   6.019  18.188  0.00  0.00    +0.000 A 
ATOM      7  O   UNL     1       2.274   6.811  17.943  0.00  0.00    +0.000 OA
ATOM      8  C   UNL     1       2.925   4.672  18.745  0.00  0.00    +0.000 A 
ATOM      9  C   UNL     1       1.604   4.215  18.751  0.00  0.00    +0.000 A 
ATOM     10  C   UNL     1       1.362   2.930  18.302  0.00  0.00    +0.000 A 
ATOM     11  C   UNL     1       2.446   2.069  18.114  0.00  0.00    +0.000 A 
ATOM     12  C   UNL     1       3.764   2.474  18.442  0.00  0.00    +0.000 A 
ATOM     13  C   UNL     1       4.040   3.813  18.744  0.00  0.00    +0.000 A 
ATOM     14  N   UNL     1       5.363   4.370  18.762  0.00  0.00    +0.000 N 
ATOM     15  C   UNL     1       5.624   5.829  18.408  0.00  0.00    +0.000 A 
ATOM     16  H   UNL     1       6.053   3.910  19.345  0.00  0.00    +0.000 HD
ENDROOT
BRANCH   1  18
ATOM     17  O   UNL     1       8.736   6.673  19.360  0.00  0.00    +0.000 OA
ATOM     18  C   UNL     1       7.980   7.107  18.501  0.00  0.00    +0.000 C 
ATOM     19  N   UNL     1       7.936   8.434  18.013  0.00  0.00    +0.000 N 
ATOM     20  H   UNL     1       7.332   8.569  17.222  0.00  0.00    +0.000 HD
BRANCH  19  21
ATOM     21  C   UNL     1       8.538   9.685  18.351  0.00  0.00    +0.000 A 
ATOM     22  C   UNL     1       9.445   9.910  19.373  0.00  0.00    +0.000 A 
ATOM     23  C   UNL     1       9.984  11.199  19.499  0.00  0.00    +0.000 A 
ATOM     24  N   UNL     1       9.666  12.256  18.713  0.00  0.00    +0.000 NA
ATOM     25  C   UNL     1       8.756  12.030  17.753  0.00  0.00    +0.000 A 
ATOM     26  C   UNL     1       8.177  10.786  17.542  0.00  0.00    +0.000 A 
ENDBRANCH  19  21
ENDBRANCH   1  18
TORSDOF 2
ENDMDL
MODEL 3
REMARK VINA RESULT:      -8.0      1.825      2.115
REMARK  Name = 
REMARK  2 active torsions:
REMARK  status: ('A' for Active; 'I' for Inactive)
REMARK    1  A    between atoms: C_2  and  C_10
REMARK    2  A    between atoms: N_3  and  C_4
REMARK                            x       y       z     vdW  Elec       q    Type
REMARK                         _______ _______ _______ _____ _____    ______ ____
ROOT
ATOM      1  C   UNL     1       2.378   6.541  19.429  0.00  0.00    +0.000 A 
ATOM      2  C   UNL     1       1.858   5.286  19.760  0.00  0.00    +0.000 A 
ATOM      3  C   UNL     1       2.550   4.140  19.435  0.00  0.00    +0.000 A 
ATOM      4  C   UNL     1       3.922   4.215  19.538  0.00  0.00    +0.000 A 
ATOM      5  C   UNL     1       4.518   5.486  19.450  0.00  0.00    +0.000 A 
ATOM      6  C   UNL     1       5.926   5.465  19.040  0.00  0.00    +0.000 A 
ATOM      7  O   UNL     1       6.798   5.103  19.833  0.00  0.00    +0.000 OA
ATOM      8  C   UNL     1       6.179   5.546  17.583  0.00  0.00    +0.000 A 
ATOM      9  C   UNL     1       7.349   4.959  17.093  0.00  0.00    +0.000 A 
ATOM     10  C   UNL     1       7.249   4.157  15.971  0.00  0.00    +0.000 A 
ATOM     11  C   UNL     1       6.061   4.175  15.236  0.00  0.00    +0.000 A 
ATOM     12  C   UNL     1       5.001   5.048  15.586  0.00  0.00    +0.000 A 
ATOM     13  C   UNL     1       5.027   5.744  16.800  0.00  0.00    +0.000 A 
ATOM     14  N   UNL     1       3.877   6.376  17.381  0.00  0.00    +0.000 N 
ATOM     15  C   UNL     1       3.708   6.506  18.891  0.00  0.00    +0.000 A 
ATOM     16  H   UNL     1       3.372   7.041  16.806  0.00  0.00    +0.000 HD
ENDROOT
BRANCH   1  18
ATOM     17  O   UNL     1       1.506   7.705  21.387  0.00  0.00    +0.000 OA
ATOM     18  C   UNL     1       1.719   7.757  20.183  0.00  0.00    +0.000 C 
ATOM     19  N   UNL     1       1.405   8.832  19.319  0.00  0.00    +0.000 N 
ATOM     20  H   UNL     1       1.768   8.740  18.387  0.00  0.00    +0.000 HD
BRANCH  19  21
ATOM     21  C   UNL     1       0.682  10.062  19.413  0.00  0.00    +0.000 A 
ATOM     22  C   UNL     1       0.939  11.099  20.293  0.00  0.00    +0.000 A 
ATOM     23  C   UNL     1       0.162  12.262  20.180  0.00  0.00    +0.000 A 
ATOM     24  N   UNL     1      -0.844  12.443  19.290  0.00  0.00    +0.000 NA
ATOM     25  C   UNL     1      -1.104  11.412  18.471  0.00  0.00    +0.000 A 
ATOM     26  C   UNL     1      -0.382  10.227  18.498  0.00  0.00    +0.000 A 
ENDBRANCH  19  21
ENDBRANCH   1  18
TORSDOF 2
ENDMDL
MODEL 4
REMARK VINA RESULT:      -7.8      3.456      8.380
REMARK  Name = 
REMARK  2 active torsions:
REMARK  status: ('A' for Active; 'I' for Inactive)
REMARK    1  A    between atoms: C_2  and  C_10
REMARK    2  A    between atoms: N_3  and  C_4
REMARK                            x       y       z     vdW  Elec       q    Type
REMARK                         _______ _______ _______ _____ _____    ______ ____
ROOT
ATOM      1  C   UNL     1       6.318   5.565  16.211  0.00  0.00    +0.000 A 
ATOM      2  C   UNL     1       7.303   6.193  16.980  0.00  0.00    +0.000 A 
ATOM      3  C   UNL     1       7.111   6.387  18.330  0.00  0.00    +0.000 A 
ATOM      4  C   UNL     1       6.451   5.376  18.996  0.00  0.00    +0.000 A 
ATOM      5  C   UNL     1       5.609   4.537  18.244  0.00  0.00    +0.000 A 
ATOM      6  C   UNL     1       4.569   3.867  19.032  0.00  0.00    +0.000 A 
ATOM      7  O   UNL     1       4.861   2.924  19.771  0.00  0.00    +0.000 OA
ATOM      8  C   UNL     1       3.282   4.590  19.158  0.00  0.00    +0.000 A 
ATOM      9  C   UNL     1       2.510   4.350  20.299  0.00  0.00    +0.000 A 
ATOM     10  C   UNL     1       1.989   5.442  20.968  0.00  0.00    +0.000 A 
ATOM     11  C   UNL     1       2.033   6.694  20.348  0.00  0.00    +0.000 A 
ATOM     12  C   UNL     1       2.533   6.837  19.030  0.00  0.00    +0.000 A 
ATOM     13  C   UNL     1       3.204   5.777  18.407  0.00  0.00    +0.000 A 
ATOM     14  N   UNL     1       4.018   5.929  17.235  0.00  0.00    +0.000 N 
ATOM     15  C   UNL     1       5.224   5.033  16.974  0.00  0.00    +0.000 A 
ATOM     16  H   UNL     1       3.593   6.369  16.427  0.00  0.00    +0.000 HD
ENDROOT
BRANCH   1  18
ATOM     17  O   UNL     1       7.819   5.488  14.291  0.00  0.00    +0.000 OA
ATOM     18  C   UNL     1       6.797   5.050  14.802  0.00  0.00    +0.000 C 
ATOM     19  N   UNL     1       5.918   4.095  14.241  0.00  0.00    +0.000 N 
ATOM     20  H   UNL     1       5.200   3.770  14.863  0.00  0.00    +0.000 HD
BRANCH  19  21
ATOM     21  C   UNL     1       5.766   3.440  12.979  0.00  0.00    +0.000 A 
ATOM     22  C   UNL     1       6.719   2.673  12.332  0.00  0.00    +0.000 A 
ATOM     23  C   UNL     1       6.353   2.047  11.131  0.00  0.00    +0.000 A 
ATOM     24  N   UNL     1       5.141   2.157  10.534  0.00  0.00    +0.000 NA
ATOM     25  C   UNL     1       4.242   2.936  11.155  0.00  0.00    +0.000 A 
ATOM     26  C   UNL     1       4.507   3.585  12.353  0.00  0.00    +0.000 A 
ENDBRANCH  19  21
ENDBRANCH   1  18
TORSDOF 2
ENDMDL
MODEL 5
REMARK VINA RESULT:      -7.6      3.067      4.690
REMARK  Name = 
REMARK  2 active torsions:
REMARK  status: ('A' for Active; 'I' for Inactive)
REMARK    1  A    between atoms: C_2  and  C_10
REMARK    2  A    between atoms: N_3  and  C_4
REMARK                            x       y       z     vdW  Elec       q    Type
REMARK                         _______ _______ _______ _____ _____    ______ ____
ROOT
ATOM      1  C   UNL     1       2.569   7.896  18.365  0.00  0.00    +0.000 A 
ATOM      2  C   UNL     1       3.855   7.693  17.854  0.00  0.00    +0.000 A 
ATOM      3  C   UNL     1       4.418   6.436  17.871  0.00  0.00    +0.000 A 
ATOM      4  C   UNL     1       3.557   5.387  17.632  0.00  0.00    +0.000 A 
ATOM      5  C   UNL     1       2.190   5.587  17.901  0.00  0.00    +0.000 A 
ATOM      6  C   UNL     1       1.437   4.352  18.140  0.00  0.00    +0.000 A 
ATOM      7  O   UNL     1       1.151   3.607  17.200  0.00  0.00    +0.000 OA
ATOM      8  C   UNL     1       1.367   3.896  19.548  0.00  0.00    +0.000 A 
ATOM      9  C   UNL     1       1.217   2.526  19.782  0.00  0.00    +0.000 A 
ATOM     10  C   UNL     1       2.035   1.938  20.729  0.00  0.00    +0.000 A 
ATOM     11  C   UNL     1       2.777   2.762  21.580  0.00  0.00    +0.000 A 
ATOM     12  C   UNL     1       2.644   4.171  21.528  0.00  0.00    +0.000 A 
ATOM     13  C   UNL     1       1.947   4.780  20.477  0.00  0.00    +0.000 A 
ATOM     14  N   UNL     1       2.040   6.177  20.162  0.00  0.00    +0.000 N 
ATOM     15  C   UNL     1       1.884   6.690  18.736  0.00  0.00    +0.000 A 
ATOM     16  H   UNL     1       1.846   6.835  20.909  0.00  0.00    +0.000 HD
ENDROOT
BRANCH   1  18
ATOM     17  O   UNL     1       2.558  10.180  17.509  0.00  0.00    +0.000 OA
ATOM     18  C   UNL     1       1.888   9.252  17.941  0.00  0.00    +0.000 C 
ATOM     19  N   UNL     1       0.488   9.248  18.146  0.00  0.00    +0.000 N 
ATOM     20  H   UNL     1       0.103   8.354  18.390  0.00  0.00    +0.000 HD
BRANCH  19  21
ATOM     21  C   UNL     1      -0.569  10.209  18.099  0.00  0.00    +0.000 A 
ATOM     22  C   UNL     1      -0.611  11.417  18.772  0.00  0.00    +0.000 A 
ATOM     23  C   UNL     1      -1.706  12.262  18.537  0.00  0.00    +0.000 A 
ATOM     24  N   UNL     1      -2.748  11.976  17.718  0.00  0.00    +0.000 NA
ATOM     25  C   UNL     1      -2.710  10.784  17.103  0.00  0.00    +0.000 A 
ATOM     26  C   UNL     1      -1.662   9.887  17.262  0.00  0.00    +0.000 A 
ENDBRANCH  19  21
ENDBRANCH   1  18
TORSDOF 2
ENDMDL
MODEL 6
REMARK VINA RESULT:      -7.6      1.702      2.231
REMARK  Name = 
REMARK  2 active torsions:
REMARK  status: ('A' for Active; 'I' for Inactive)
REMARK    1  A    between atoms: C_2  and  C_10
REMARK    2  A    between atoms: N_3  and  C_4
REMARK                            x       y       z     vdW  Elec       q    Type
REMARK                         _______ _______ _______ _____ _____    ______ ____
ROOT
ATOM      1  C   UNL     1       2.558   5.109  19.490  0.00  0.00    +0.000 A 
ATOM      2  C   UNL     1       2.553   3.731  19.726  0.00  0.00    +0.000 A 
ATOM      3  C   UNL     1       3.554   2.935  19.213  0.00  0.00    +0.000 A 
ATOM      4  C   UNL     1       4.817   3.489  19.200  0.00  0.00    +0.000 A 
ATOM      5  C   UNL     1       4.917   4.892  19.200  0.00  0.00    +0.000 A 
ATOM      6  C   UNL     1       6.182   5.405  18.664  0.00  0.00    +0.000 A 
ATOM      7  O   UNL     1       7.216   5.324  19.330  0.00  0.00    +0.000 OA
ATOM      8  C   UNL     1       6.208   5.676  17.208  0.00  0.00    +0.000 A 
ATOM      9  C   UNL     1       7.439   5.584  16.551  0.00  0.00    +0.000 A 
ATOM     10  C   UNL     1       7.485   4.882  15.361  0.00  0.00    +0.000 A 
ATOM     11  C   UNL     1       6.284   4.526  14.744  0.00  0.00    +0.000 A 
ATOM     12  C   UNL     1       5.039   4.934  15.283  0.00  0.00    +0.000 A 
ATOM     13  C   UNL     1       4.971   5.504  16.560  0.00  0.00    +0.000 A 
ATOM     14  N   UNL     1       3.755   5.639  17.309  0.00  0.00    +0.000 N 
ATOM     15  C   UNL     1       3.740   5.591  18.833  0.00  0.00    +0.000 A 
ATOM     16  H   UNL     1       2.983   6.118  16.860  0.00  0.00    +0.000 HD
ENDROOT
BRANCH   1  18
ATOM     17  O   UNL     1       0.735   5.407  21.083  0.00  0.00    +0.000 OA
ATOM     18  C   UNL     1       1.617   5.951  20.431  0.00  0.00    +0.000 C 
ATOM     19  N   UNL     1       1.902   7.336  20.393  0.00  0.00    +0.000 N 
ATOM     20  H   UNL     1       2.741   7.578  19.896  0.00  0.00    +0.000 HD
BRANCH  19  21
ATOM     21  C   UNL     1       1.298   8.534  20.887  0.00  0.00    +0.000 A 
ATOM     22  C   UNL     1       0.877   8.766  22.185  0.00  0.00    +0.000 A 
ATOM     23  C   UNL     1       0.375  10.039  22.494  0.00  0.00    +0.000 A 
ATOM     24  N   UNL     1       0.243  11.059  21.611  0.00  0.00    +0.000 NA
ATOM     25  C   UNL     1       0.619  10.804  20.348  0.00  0.00    +0.000 A 
ATOM     26  C   UNL     1       1.139   9.580  19.950  0.00  0.00    +0.000 A 
ENDBRANCH  19  21
ENDBRANCH   1  18
TORSDOF 2
ENDMDL
MODEL 7
REMARK VINA RESULT:      -7.6      1.790      2.191
REMARK  Name = 
REMARK  2 active torsions:
REMARK  status: ('A' for Active; 'I' for Inactive)
REMARK    1  A    between atoms: C_2  and  C_10
REMARK    2  A    between atoms: N_3  and  C_4
REMARK                            x       y       z     vdW  Elec       q    Type
REMARK                         _______ _______ _______ _____ _____    ______ ____
ROOT
ATOM      1  C   UNL     1       2.934   5.073  19.474  0.00  0.00    +0.000 A 
ATOM      2  C   UNL     1       3.259   3.822  20.007  0.00  0.00    +0.000 A 
ATOM      3  C   UNL     1       4.371   3.144  19.559  0.00  0.00    +0.000 A 
ATOM      4  C   UNL     1       5.471   3.921  19.262  0.00  0.00    +0.000 A 
ATOM      5  C   UNL     1       5.251   5.272  18.940  0.00  0.00    +0.000 A 
ATOM      6  C   UNL     1       6.322   5.884  18.147  0.00  0.00    +0.000 A 
ATOM      7  O   UNL     1       7.397   6.177  18.676  0.00  0.00    +0.000 OA
ATOM      8  C   UNL     1       6.174   5.793  16.675  0.00  0.00    +0.000 A 
ATOM      9  C   UNL     1       7.339   5.793  15.903  0.00  0.00    +0.000 A 
ATOM     10  C   UNL     1       7.451   4.847  14.901  0.00  0.00    +0.000 A 
ATOM     11  C   UNL     1       6.318   4.117  14.536  0.00  0.00    +0.000 A 
ATOM     12  C   UNL     1       5.058   4.385  15.127  0.00  0.00    +0.000 A 
ATOM     13  C   UNL     1       4.962   5.222  16.245  0.00  0.00    +0.000 A 
ATOM     14  N   UNL     1       3.808   5.287  17.096  0.00  0.00    +0.000 N 
ATOM     15  C   UNL     1       3.922   5.610  18.581  0.00  0.00    +0.000 A 
ATOM     16  H   UNL     1       2.915   5.478  16.654  0.00  0.00    +0.000 HD
ENDROOT
BRANCH   1  18
ATOM     17  O   UNL     1       1.033   5.355  20.976  0.00  0.00    +0.000 OA
ATOM     18  C   UNL     1       1.903   5.911  20.320  0.00  0.00    +0.000 C 
ATOM     19  N   UNL     1       2.098   7.307  20.194  0.00  0.00    +0.000 N 
ATOM     20  H   UNL     1       2.938   7.571  19.712  0.00  0.00    +0.000 HD
BRANCH  19  21
ATOM     21  C   UNL     1       1.397   8.492  20.580  0.00  0.00    +0.000 A 
ATOM     22  C   UNL     1       0.925   9.479  19.733  0.00  0.00    +0.000 A 
ATOM     23  C   UNL     1       0.190  10.533  20.298  0.00  0.00    +0.000 A 
ATOM     24  N   UNL     1      -0.073  10.676  21.620  0.00  0.00    +0.000 NA
ATOM     25  C   UNL     1       0.426   9.731  22.431  0.00  0.00    +0.000 A 
ATOM     26  C   UNL     1       1.153   8.644  21.964  0.00  0.00    +0.000 A 
ENDBRANCH  19  21
ENDBRANCH   1  18
TORSDOF 2
ENDMDL
MODEL 8
REMARK VINA RESULT:      -7.5      1.923      2.184
REMARK  Name = 
REMARK  2 active torsions:
REMARK  status: ('A' for Active; 'I' for Inactive)
REMARK    1  A    between atoms: C_2  and  C_10
REMARK    2  A    between atoms: N_3  and  C_4
REMARK                            x       y       z     vdW  Elec       q    Type
REMARK                         _______ _______ _______ _____ _____    ______ ____
ROOT
ATOM      1  C   UNL     1       2.343   7.141  18.576  0.00  0.00    +0.000 A 
ATOM      2  C   UNL     1       1.571   5.976  18.619  0.00  0.00    +0.000 A 
ATOM      3  C   UNL     1       2.127   4.761  18.285  0.00  0.00    +0.000 A 
ATOM      4  C   UNL     1       3.436   4.571  18.673  0.00  0.00    +0.000 A 
ATOM      5  C   UNL     1       4.230   5.713  18.884  0.00  0.00    +0.000 A 
ATOM      6  C   UNL     1       5.672   5.474  18.769  0.00  0.00    +0.000 A 
ATOM      7  O   UNL     1       6.277   4.880  19.664  0.00  0.00    +0.000 OA
ATOM      8  C   UNL     1       6.254   5.655  17.418  0.00  0.00    +0.000 A 
ATOM      9  C   UNL     1       7.396   4.915  17.098  0.00  0.00    +0.000 A 
ATOM     10  C   UNL     1       7.424   4.263  15.879  0.00  0.00    +0.000 A 
ATOM     11  C   UNL     1       6.448   4.573  14.929  0.00  0.00    +0.000 A 
ATOM     12  C   UNL     1       5.488   5.587  15.174  0.00  0.00    +0.000 A 
ATOM     13  C   UNL     1       5.351   6.139  16.453  0.00  0.00    +0.000 A 
ATOM     14  N   UNL     1       4.216   6.910  16.871  0.00  0.00    +0.000 N 
ATOM     15  C   UNL     1       3.737   6.916  18.319  0.00  0.00    +0.000 A 
ATOM     16  H   UNL     1       3.964   7.712  16.304  0.00  0.00    +0.000 HD
ENDROOT
BRANCH   1  18
ATOM     17  O   UNL     1       1.585   8.345  20.557  0.00  0.00    +0.000 OA
ATOM     18  C   UNL     1       1.733   8.374  19.343  0.00  0.00    +0.000 C 
ATOM     19  N   UNL     1       1.380   9.436  18.477  0.00  0.00    +0.000 N 
ATOM     20  H   UNL     1       1.692   9.325  17.529  0.00  0.00    +0.000 HD
BRANCH  19  21
ATOM     21  C   UNL     1       0.671  10.673  18.588  0.00  0.00    +0.000 A 
ATOM     22  C   UNL     1      -0.703  10.836  18.562  0.00  0.00    +0.000 A 
ATOM     23  C   UNL     1      -1.215  12.127  18.763  0.00  0.00    +0.000 A 
ATOM     24  N   UNL     1      -0.465  13.240  18.955  0.00  0.00    +0.000 NA
ATOM     25  C   UNL     1       0.866  13.069  18.939  0.00  0.00    +0.000 A 
ATOM     26  C   UNL     1       1.465  11.829  18.760  0.00  0.00    +0.000 A 
ENDBRANCH  19  21
ENDBRANCH   1  18
TORSDOF 2
ENDMDL
MODEL 9
REMARK VINA RESULT:      -7.2      2.252      8.622
REMARK  Name = 
REMARK  2 active torsions:
REMARK  status: ('A' for Active; 'I' for Inactive)
REMARK    1  A    between atoms: C_2  and  C_10
REMARK    2  A    between atoms: N_3  and  C_4
REMARK                            x       y       z     vdW  Elec       q    Type
REMARK                         _______ _______ _______ _____ _____    ______ ____
ROOT
ATOM      1  C   UNL     1       0.625   9.750  18.683  0.00  0.00    +0.000 A 
ATOM      2  C   UNL     1      -0.541   9.801  17.914  0.00  0.00    +0.000 A 
ATOM      3  C   UNL     1      -1.560  10.663  18.254  0.00  0.00    +0.000 A 
ATOM      4  C   UNL     1      -1.171  11.889  18.750  0.00  0.00    +0.000 A 
ATOM      5  C   UNL     1       0.103  11.984  19.339  0.00  0.00    +0.000 A 
ATOM      6  C   UNL     1       0.248  13.096  20.284  0.00  0.00    +0.000 A 
ATOM      7  O   UNL     1       0.345  14.253  19.871  0.00  0.00    +0.000 OA
ATOM      8  C   UNL     1      -0.082  12.794  21.696  0.00  0.00    +0.000 A 
ATOM      9  C   UNL     1      -0.535  13.847  22.497  0.00  0.00    +0.000 A 
ATOM     10  C   UNL     1      -1.651  13.627  23.283  0.00  0.00    +0.000 A 
ATOM     11  C   UNL     1      -2.114  12.319  23.441  0.00  0.00    +0.000 A 
ATOM     12  C   UNL     1      -1.417  11.225  22.871  0.00  0.00    +0.000 A 
ATOM     13  C   UNL     1      -0.386  11.444  21.950  0.00  0.00    +0.000 A 
ATOM     14  N   UNL     1       0.142  10.426  21.087  0.00  0.00    +0.000 N 
ATOM     15  C   UNL     1       0.702  10.753  19.707  0.00  0.00    +0.000 A 
ATOM     16  H   UNL     1       0.471   9.572  21.522  0.00  0.00    +0.000 HD
ENDROOT
BRANCH   1  18
ATOM     17  O   UNL     1       2.517   9.626  17.149  0.00  0.00    +0.000 OA
ATOM     18  C   UNL     1       1.850   9.042  17.992  0.00  0.00    +0.000 C 
ATOM     19  N   UNL     1       2.037   7.712  18.437  0.00  0.00    +0.000 N 
ATOM     20  H   UNL     1       1.468   7.449  19.223  0.00  0.00    +0.000 HD
BRANCH  19  21
ATOM     21  C   UNL     1       2.844   6.594  18.059  0.00  0.00    +0.000 A 
ATOM     22  C   UNL     1       4.184   6.629  17.714  0.00  0.00    +0.000 A 
ATOM     23  C   UNL     1       4.825   5.410  17.446  0.00  0.00    +0.000 A 
ATOM     24  N   UNL     1       4.225   4.194  17.470  0.00  0.00    +0.000 NA
ATOM     25  C   UNL     1       2.916   4.183  17.767  0.00  0.00    +0.000 A 
ATOM     26  C   UNL     1       2.200   5.336  18.060  0.00  0.00    +0.000 A 
ENDBRANCH  19  21
ENDBRANCH   1  18
TORSDOF 2
ENDMDL
