MODEL 1
REMARK VINA RESULT:      -7.8      0.000      0.000
REMARK  Name = 
REMARK  0 active torsions:
REMARK  status: ('A' for Active; 'I' for Inactive)
REMARK                            x       y       z     vdW  Elec       q    Type
REMARK                         _______ _______ _______ _____ _____    ______ ____
ROOT
ATOM      1  O   UNL     1       6.074   5.058  19.972  0.00  0.00    +0.000 OA
ATOM      2  C   UNL     1       5.750   4.781  18.819  0.00  0.00    +0.000 A 
ATOM      3  N   UNL     1       6.649   4.984  17.797  0.00  0.00    +0.000 N 
ATOM      4  C   UNL     1       6.382   4.702  16.451  0.00  0.00    +0.000 A 
ATOM      5  C   UNL     1       7.372   4.945  15.498  0.00  0.00    +0.000 A 
ATOM      6  C   UNL     1       7.120   4.664  14.154  0.00  0.00    +0.000 A 
ATOM      7  C   UNL     1       5.883   4.144  13.766  0.00  0.00    +0.000 A 
ATOM      8  C   UNL     1       4.886   3.899  14.717  0.00  0.00    +0.000 A 
ATOM      9  C   UNL     1       5.140   4.180  16.062  0.00  0.00    +0.000 A 
ATOM     10  N   UNL     1       4.188   3.959  17.088  0.00  0.00    +0.000 N 
ATOM     11  C   UNL     1       2.900   3.460  16.980  0.00  0.00    +0.000 A 
ATOM     12  C   UNL     1       2.369   3.427  18.243  0.00  0.00    +0.000 A 
ATOM     13  C   UNL     1       1.094   2.993  18.589  0.00  0.00    +0.000 A 
ATOM     14  C   UNL     1       0.896   3.101  19.985  0.00  0.00    +0.000 A 
ATOM     15  C   UNL     1       1.884   3.595  20.907  0.00  0.00    +0.000 A 
ATOM     16  C   UNL     1       3.175   4.032  20.526  0.00  0.00    +0.000 A 
ATOM     17  C   UNL     1       3.352   3.917  19.149  0.00  0.00    +0.000 A 
ATOM     18  C   UNL     1       4.474   4.245  18.421  0.00  0.00    +0.000 A 
ATOM     19  H   UNL     1       7.544   5.360  18.077  0.00  0.00    +0.000 HD
ENDROOT
TORSDOF 0
ENDMDL
MODEL 2
REMARK VINA RESULT:      -7.5      1.011      5.270
REMARK  Name = 
REMARK  0 active torsions:
REMARK  status: ('A' for Active; 'I' for Inactive)
REMARK                            x       y       z     vdW  Elec       q    Type
REMARK                         _______ _______ _______ _____ _____    ______ ____
ROOT
ATOM      1  O   UNL     1       6.392   5.516  19.697  0.00  0.00    +0.000 OA
ATOM      2  C   UNL     1       5.350   4.989  19.314  0.00  0.00    +0.000 A 
ATOM      3  N   UNL     1       4.347   4.733  20.221  0.00  0.00    +0.000 N 
ATOM      4  C   UNL     1       3.122   4.139  19.891  0.00  0.00    +0.000 A 
ATOM      5  C   UNL     1       2.177   3.930  20.895  0.00  0.00    +0.000 A 
ATOM      6  C   UNL     1       0.951   3.343  20.577  0.00  0.00    +0.000 A 
ATOM      7  C   UNL     1       0.675   2.964  19.261  0.00  0.00    +0.000 A 
ATOM      8  C   UNL     1       1.620   3.170  18.250  0.00  0.00    +0.000 A 
ATOM      9  C   UNL     1       2.846   3.759  18.569  0.00  0.00    +0.000 A 
ATOM     10  N   UNL     1       3.856   4.005  17.607  0.00  0.00    +0.000 N 
ATOM     11  C   UNL     1       3.842   3.729  16.249  0.00  0.00    +0.000 A 
ATOM     12  C   UNL     1       5.042   4.150  15.736  0.00  0.00    +0.000 A 
ATOM     13  C   UNL     1       5.445   4.062  14.409  0.00  0.00    +0.000 A 
ATOM     14  C   UNL     1       6.745   4.597  14.249  0.00  0.00    +0.000 A 
ATOM     15  C   UNL     1       7.529   5.151  15.321  0.00  0.00    +0.000 A 
ATOM     16  C   UNL     1       7.093   5.226  16.665  0.00  0.00    +0.000 A 
ATOM     17  C   UNL     1       5.811   4.696  16.802  0.00  0.00    +0.000 A 
ATOM     18  C   UNL     1       5.066   4.599  17.956  0.00  0.00    +0.000 A 
ATOM     19  H   UNL     1       4.547   5.007  21.173  0.00  0.00    +0.000 HD
ENDROOT
TORSDOF 0
ENDMDL
MODEL 3
REMARK VINA RESULT:      -7.4      1.914      5.604
REMARK  Name = 
REMARK  0 active torsions:
REMARK  status: ('A' for Active; 'I' for Inactive)
REMARK                            x       y       z     vdW  Elec       q    Type
REMARK                         _______ _______ _______ _____ _____    ______ ____
ROOT
ATOM      1  O   UNL     1       3.268   7.681  17.907  0.00  0.00    +0.000 OA
ATOM      2  C   UNL     1       3.188   6.501  18.240  0.00  0.00    +0.000 A 
ATOM      3  N   UNL     1       2.383   6.149  19.299  0.00  0.00    +0.000 N 
ATOM      4  C   UNL     1       2.220   4.835  19.758  0.00  0.00    +0.000 A 
ATOM      5  C   UNL     1       1.373   4.595  20.841  0.00  0.00    +0.000 A 
ATOM      6  C   UNL     1       1.199   3.291  21.304  0.00  0.00    +0.000 A 
ATOM      7  C   UNL     1       1.871   2.232  20.689  0.00  0.00    +0.000 A 
ATOM      8  C   UNL     1       2.721   2.466  19.603  0.00  0.00    +0.000 A 
ATOM      9  C   UNL     1       2.894   3.773  19.139  0.00  0.00    +0.000 A 
ATOM     10  N   UNL     1       3.734   4.098  18.045  0.00  0.00    +0.000 N 
ATOM     11  C   UNL     1       4.506   3.250  17.267  0.00  0.00    +0.000 A 
ATOM     12  C   UNL     1       5.142   4.024  16.330  0.00  0.00    +0.000 A 
ATOM     13  C   UNL     1       6.015   3.574  15.347  0.00  0.00    +0.000 A 
ATOM     14  C   UNL     1       6.476   4.656  14.561  0.00  0.00    +0.000 A 
ATOM     15  C   UNL     1       6.087   6.026  14.764  0.00  0.00    +0.000 A 
ATOM     16  C   UNL     1       5.196   6.456  15.775  0.00  0.00    +0.000 A 
ATOM     17  C   UNL     1       4.752   5.377  16.537  0.00  0.00    +0.000 A 
ATOM     18  C   UNL     1       3.881   5.410  17.603  0.00  0.00    +0.000 A 
ATOM     19  H   UNL     1       1.897   6.915  19.745  0.00  0.00    +0.000 HD
ENDROOT
TORSDOF 0
ENDMDL
MODEL 4
REMARK VINA RESULT:      -7.4      1.529      2.173
REMARK  Name = 
REMARK  0 active torsions:
REMARK  status: ('A' for Active; 'I' for Inactive)
REMARK                            x       y       z     vdW  Elec       q    Type
REMARK                         _______ _______ _______ _____ _____    ______ ____
ROOT
ATOM      1  O   UNL     1       7.366   6.555  17.599  0.00  0.00    +0.000 OA
ATOM      2  C   UNL     1       6.877   5.876  16.699  0.00  0.00    +0.000 A 
ATOM      3  N   UNL     1       7.520   5.796  15.485  0.00  0.00    +0.000 N 
ATOM      4  C   UNL     1       7.050   5.050  14.396  0.00  0.00    +0.000 A 
ATOM      5  C   UNL     1       7.789   5.039  13.212  0.00  0.00    +0.000 A 
ATOM      6  C   UNL     1       7.333   4.297  12.122  0.00  0.00    +0.000 A 
ATOM      7  C   UNL     1       6.144   3.570  12.215  0.00  0.00    +0.000 A 
ATOM      8  C   UNL     1       5.399   3.577  13.399  0.00  0.00    +0.000 A 
ATOM      9  C   UNL     1       5.857   4.320  14.491  0.00  0.00    +0.000 A 
ATOM     10  N   UNL     1       5.165   4.380  15.726  0.00  0.00    +0.000 N 
ATOM     11  C   UNL     1       3.977   3.764  16.082  0.00  0.00    +0.000 A 
ATOM     12  C   UNL     1       3.708   4.117  17.380  0.00  0.00    +0.000 A 
ATOM     13  C   UNL     1       2.609   3.716  18.130  0.00  0.00    +0.000 A 
ATOM     14  C   UNL     1       2.665   4.276  19.429  0.00  0.00    +0.000 A 
ATOM     15  C   UNL     1       3.719   5.139  19.892  0.00  0.00    +0.000 A 
ATOM     16  C   UNL     1       4.827   5.531  19.105  0.00  0.00    +0.000 A 
ATOM     17  C   UNL     1       4.755   4.970  17.831  0.00  0.00    +0.000 A 
ATOM     18  C   UNL     1       5.650   5.127  16.797  0.00  0.00    +0.000 A 
ATOM     19  H   UNL     1       8.380   6.321  15.417  0.00  0.00    +0.000 HD
ENDROOT
TORSDOF 0
ENDMDL
MODEL 5
REMARK VINA RESULT:      -7.4      1.693      1.759
REMARK  Name = 
REMARK  0 active torsions:
REMARK  status: ('A' for Active; 'I' for Inactive)
REMARK                            x       y       z     vdW  Elec       q    Type
REMARK                         _______ _______ _______ _____ _____    ______ ____
ROOT
ATOM      1  O   UNL     1       3.113   7.436  18.463  0.00  0.00    +0.000 OA
ATOM      2  C   UNL     1       3.623   6.497  17.856  0.00  0.00    +0.000 A 
ATOM      3  N   UNL     1       4.527   6.751  16.851  0.00  0.00    +0.000 N 
ATOM      4  C   UNL     1       5.166   5.755  16.100  0.00  0.00    +0.000 A 
ATOM      5  C   UNL     1       6.069   6.131  15.105  0.00  0.00    +0.000 A 
ATOM      6  C   UNL     1       6.715   5.148  14.354  0.00  0.00    +0.000 A 
ATOM      7  C   UNL     1       6.457   3.797  14.596  0.00  0.00    +0.000 A 
ATOM      8  C   UNL     1       5.552   3.415  15.591  0.00  0.00    +0.000 A 
ATOM      9  C   UNL     1       4.907   4.399  16.344  0.00  0.00    +0.000 A 
ATOM     10  N   UNL     1       3.978   4.099  17.371  0.00  0.00    +0.000 N 
ATOM     11  C   UNL     1       3.546   2.857  17.809  0.00  0.00    +0.000 A 
ATOM     12  C   UNL     1       2.649   3.074  18.824  0.00  0.00    +0.000 A 
ATOM     13  C   UNL     1       1.973   2.098  19.547  0.00  0.00    +0.000 A 
ATOM     14  C   UNL     1       1.132   2.692  20.516  0.00  0.00    +0.000 A 
ATOM     15  C   UNL     1       1.004   4.112  20.714  0.00  0.00    +0.000 A 
ATOM     16  C   UNL     1       1.705   5.084  19.962  0.00  0.00    +0.000 A 
ATOM     17  C   UNL     1       2.528   4.480  19.014  0.00  0.00    +0.000 A 
ATOM     18  C   UNL     1       3.355   5.103  18.107  0.00  0.00    +0.000 A 
ATOM     19  H   UNL     1       4.714   7.728  16.676  0.00  0.00    +0.000 HD
ENDROOT
TORSDOF 0
ENDMDL
MODEL 6
REMARK VINA RESULT:      -7.2      3.698      4.150
REMARK  Name = 
REMARK  0 active torsions:
REMARK  status: ('A' for Active; 'I' for Inactive)
REMARK                            x       y       z     vdW  Elec       q    Type
REMARK                         _______ _______ _______ _____ _____    ______ ____
ROOT
ATOM      1  O   UNL     1       2.491   4.881  21.002  0.00  0.00    +0.000 OA
ATOM      2  C   UNL     1       2.944   5.309  19.942  0.00  0.00    +0.000 A 
ATOM      3  N   UNL     1       3.801   4.523  19.206  0.00  0.00    +0.000 N 
ATOM      4  C   UNL     1       4.371   4.914  17.987  0.00  0.00    +0.000 A 
ATOM      5  C   UNL     1       5.225   4.032  17.325  0.00  0.00    +0.000 A 
ATOM      6  C   UNL     1       5.796   4.407  16.108  0.00  0.00    +0.000 A 
ATOM      7  C   UNL     1       5.514   5.660  15.558  0.00  0.00    +0.000 A 
ATOM      8  C   UNL     1       4.659   6.549  16.218  0.00  0.00    +0.000 A 
ATOM      9  C   UNL     1       4.087   6.171  17.435  0.00  0.00    +0.000 A 
ATOM     10  N   UNL     1       3.209   7.009  18.167  0.00  0.00    +0.000 N 
ATOM     11  C   UNL     1       2.771   8.285  17.853  0.00  0.00    +0.000 A 
ATOM     12  C   UNL     1       1.933   8.687  18.862  0.00  0.00    +0.000 A 
ATOM     13  C   UNL     1       1.271   9.906  18.945  0.00  0.00    +0.000 A 
ATOM     14  C   UNL     1       0.493   9.969  20.125  0.00  0.00    +0.000 A 
ATOM     15  C   UNL     1       0.409   8.910  21.095  0.00  0.00    +0.000 A 
ATOM     16  C   UNL     1       1.096   7.677  20.985  0.00  0.00    +0.000 A 
ATOM     17  C   UNL     1       1.855   7.634  19.817  0.00  0.00    +0.000 A 
ATOM     18  C   UNL     1       2.652   6.601  19.376  0.00  0.00    +0.000 A 
ATOM     19  H   UNL     1       4.005   3.617  19.603  0.00  0.00    +0.000 HD
ENDROOT
TORSDOF 0
ENDMDL
MODEL 7
REMARK VINA RESULT:      -7.1      2.615      3.001
REMARK  Name = 
REMARK  0 active torsions:
REMARK  status: ('A' for Active; 'I' for Inactive)
REMARK                            x       y       z     vdW  Elec       q    Type
REMARK                         _______ _______ _______ _____ _____    ______ ____
ROOT
ATOM      1  O   UNL     1       3.365   3.239  19.820  0.00  0.00    +0.000 OA
ATOM      2  C   UNL     1       3.755   3.924  18.877  0.00  0.00    +0.000 A 
ATOM      3  N   UNL     1       4.583   3.365  17.930  0.00  0.00    +0.000 N 
ATOM      4  C   UNL     1       5.081   4.055  16.818  0.00  0.00    +0.000 A 
ATOM      5  C   UNL     1       5.912   3.384  15.920  0.00  0.00    +0.000 A 
ATOM      6  C   UNL     1       6.412   4.060  14.806  0.00  0.00    +0.000 A 
ATOM      7  C   UNL     1       6.084   5.401  14.593  0.00  0.00    +0.000 A 
ATOM      8  C   UNL     1       5.253   6.080  15.491  0.00  0.00    +0.000 A 
ATOM      9  C   UNL     1       4.752   5.402  16.606  0.00  0.00    +0.000 A 
ATOM     10  N   UNL     1       3.903   6.012  17.562  0.00  0.00    +0.000 N 
ATOM     11  C   UNL     1       3.431   7.314  17.591  0.00  0.00    +0.000 A 
ATOM     12  C   UNL     1       2.642   7.436  18.707  0.00  0.00    +0.000 A 
ATOM     13  C   UNL     1       1.969   8.581  19.117  0.00  0.00    +0.000 A 
ATOM     14  C   UNL     1       1.254   8.333  20.313  0.00  0.00    +0.000 A 
ATOM     15  C   UNL     1       1.237   7.067  20.997  0.00  0.00    +0.000 A 
ATOM     16  C   UNL     1       1.933   5.917  20.556  0.00  0.00    +0.000 A 
ATOM     17  C   UNL     1       2.630   6.180  19.378  0.00  0.00    +0.000 A 
ATOM     18  C   UNL     1       3.416   5.308  18.660  0.00  0.00    +0.000 A 
ATOM     19  H   UNL     1       4.820   2.395  18.084  0.00  0.00    +0.000 HD
ENDROOT
TORSDOF 0
ENDMDL
MODEL 8
REMARK VINA RESULT:      -7.1      1.548      5.648
REMARK  Name = 
REMARK  0 active torsions:
REMARK  status: ('A' for Active; 'I' for Inactive)
REMARK                            x       y       z     vdW  Elec       q    Type
REMARK                         _______ _______ _______ _____ _____    ______ ____
ROOT
ATOM      1  O   UNL     1       7.790   6.800  16.657  0.00  0.00    +0.000 OA
ATOM      2  C   UNL     1       6.800   6.083  16.784  0.00  0.00    +0.000 A 
ATOM      3  N   UNL     1       6.109   6.088  17.974  0.00  0.00    +0.000 N 
ATOM      4  C   UNL     1       4.969   5.312  18.222  0.00  0.00    +0.000 A 
ATOM      5  C   UNL     1       4.347   5.400  19.468  0.00  0.00    +0.000 A 
ATOM      6  C   UNL     1       3.208   4.635  19.726  0.00  0.00    +0.000 A 
ATOM      7  C   UNL     1       2.696   3.786  18.743  0.00  0.00    +0.000 A 
ATOM      8  C   UNL     1       3.316   3.693  17.492  0.00  0.00    +0.000 A 
ATOM      9  C   UNL     1       4.455   4.459  17.234  0.00  0.00    +0.000 A 
ATOM     10  N   UNL     1       5.142   4.427  15.995  0.00  0.00    +0.000 N 
ATOM     11  C   UNL     1       4.851   3.680  14.866  0.00  0.00    +0.000 A 
ATOM     12  C   UNL     1       5.796   3.988  13.920  0.00  0.00    +0.000 A 
ATOM     13  C   UNL     1       5.876   3.462  12.636  0.00  0.00    +0.000 A 
ATOM     14  C   UNL     1       6.980   4.012  11.943  0.00  0.00    +0.000 A 
ATOM     15  C   UNL     1       7.885   4.980  12.504  0.00  0.00    +0.000 A 
ATOM     16  C   UNL     1       7.780   5.498  13.816  0.00  0.00    +0.000 A 
ATOM     17  C   UNL     1       6.687   4.945  14.482  0.00  0.00    +0.000 A 
ATOM     18  C   UNL     1       6.273   5.208  15.768  0.00  0.00    +0.000 A 
ATOM     19  H   UNL     1       6.479   6.702  18.686  0.00  0.00    +0.000 HD
ENDROOT
TORSDOF 0
ENDMDL
MODEL 9
REMARK VINA RESULT:      -7.1      3.866      5.312
REMARK  Name = 
REMARK  0 active torsions:
REMARK  status: ('A' for Active; 'I' for Inactive)
REMARK                            x       y       z     vdW  Elec       q    Type
REMARK                         _______ _______ _______ _____ _____    ______ ____
ROOT
ATOM      1  O   UNL     1       4.372   5.852  17.054  0.00  0.00    +0.000 OA
ATOM      2  C   UNL     1       3.606   6.454  17.804  0.00  0.00    +0.000 A 
ATOM      3  N   UNL     1       3.258   7.753  17.515  0.00  0.00    +0.000 N 
ATOM      4  C   UNL     1       2.392   8.526  18.300  0.00  0.00    +0.000 A 
ATOM      5  C   UNL     1       2.107   9.835  17.908  0.00  0.00    +0.000 A 
ATOM      6  C   UNL     1       1.244  10.613  18.680  0.00  0.00    +0.000 A 
ATOM      7  C   UNL     1       0.670  10.086  19.839  0.00  0.00    +0.000 A 
ATOM      8  C   UNL     1       0.953   8.775  20.238  0.00  0.00    +0.000 A 
ATOM      9  C   UNL     1       1.817   7.996  19.464  0.00  0.00    +0.000 A 
ATOM     10  N   UNL     1       2.154   6.660  19.794  0.00  0.00    +0.000 N 
ATOM     11  C   UNL     1       1.732   5.904  20.876  0.00  0.00    +0.000 A 
ATOM     12  C   UNL     1       2.324   4.672  20.767  0.00  0.00    +0.000 A 
ATOM     13  C   UNL     1       2.171   3.605  21.645  0.00  0.00    +0.000 A 
ATOM     14  C   UNL     1       2.931   2.494  21.212  0.00  0.00    +0.000 A 
ATOM     15  C   UNL     1       3.746   2.484  20.026  0.00  0.00    +0.000 A 
ATOM     16  C   UNL     1       3.884   3.586  19.149  0.00  0.00    +0.000 A 
ATOM     17  C   UNL     1       3.127   4.670  19.592  0.00  0.00    +0.000 A 
ATOM     18  C   UNL     1       3.015   5.908  18.999  0.00  0.00    +0.000 A 
ATOM     19  H   UNL     1       3.672   8.135  16.677  0.00  0.00    +0.000 HD
ENDROOT
TORSDOF 0
ENDMDL
