MODEL 1
REMARK VINA RESULT:      -8.2      0.000      0.000
REMARK  Name = 
REMARK  7 active torsions:
REMARK  status: ('A' for Active; 'I' for Inactive)
REMARK    1  A    between atoms: C_2  and  O_3
REMARK    2  A    between atoms: C_2  and  C_4
REMARK    3  A    between atoms: C_8  and  N_9
REMARK    4  A    between atoms: N_9  and  C_10
REMARK    5  A    between atoms: C_11  and  C_12
REMARK    6  A    between atoms: C_12  and  O_14
REMARK    7  A    between atoms: C_18  and  N_19
REMARK                            x       y       z     vdW  Elec       q    Type
REMARK                         _______ _______ _______ _____ _____    ______ ____
ROOT
ATOM      1  C   UNL     1       3.393   3.238  19.166  0.00  0.00    +0.000 A 
ATOM      2  C   UNL     1       3.618   2.446  20.319  0.00  0.00    +0.000 A 
ATOM      3  C   UNL     1       2.779   2.561  21.449  0.00  0.00    +0.000 A 
ATOM      4  C   UNL     1       1.707   3.453  21.460  0.00  0.00    +0.000 A 
ATOM      5  C   UNL     1       1.428   4.202  20.326  0.00  0.00    +0.000 A 
ATOM      6  C   UNL     1       2.242   4.063  19.189  0.00  0.00    +0.000 A 
ENDROOT
BRANCH   6   7
ATOM      7  N   UNL     1       1.777   4.766  18.004  0.00  0.00    +0.000 N 
ATOM      8  O   UNL     1       2.048   5.972  17.917  0.00  0.00    +0.000 OA
ATOM      9  O   UNL     1       1.170   4.101  17.156  0.00  0.00    +0.000 OA
ENDBRANCH   6   7
BRANCH   1  10
ATOM     10  N   UNL     1       4.269   3.090  18.046  0.00  0.00    +0.000 N 
ATOM     11  H   UNL     1       3.759   2.644  17.274  0.00  0.00    +0.000 HD
BRANCH  10  16
ATOM     12  C   UNL     1       6.969   5.661  17.858  0.00  0.00    +0.000 A 
ATOM     13  C   UNL     1       6.830   6.106  16.541  0.00  0.00    +0.000 A 
ATOM     14  C   UNL     1       5.892   5.499  15.708  0.00  0.00    +0.000 A 
ATOM     15  C   UNL     1       5.063   4.486  16.205  0.00  0.00    +0.000 A 
ATOM     16  C   UNL     1       5.168   4.063  17.537  0.00  0.00    +0.000 A 
ATOM     17  C   UNL     1       6.199   4.591  18.324  0.00  0.00    +0.000 A 
BRANCH  12  19
ATOM     18  O   UNL     1       8.356   7.422  18.641  0.00  0.00    +0.000 OA
ATOM     19  C   UNL     1       7.894   6.308  18.816  0.00  0.00    +0.000 C 
BRANCH  19  20
ATOM     20  O   UNL     1       8.221   5.515  19.857  0.00  0.00    +0.000 OA
ATOM     21  H   UNL     1       8.611   4.656  19.605  0.00  0.00    +0.000 HD
ENDBRANCH  19  20
ENDBRANCH  12  19
ENDBRANCH  10  16
ENDBRANCH   1  10
BRANCH   2  22
ATOM     22  C   UNL     1       4.720   1.448  20.443  0.00  0.00    +0.000 C 
ATOM     23  O   UNL     1       5.470   1.419  21.403  0.00  0.00    +0.000 OA
BRANCH  22  24
ATOM     24  O   UNL     1       4.844   0.614  19.388  0.00  0.00    +0.000 OA
ATOM     25  H   UNL     1       5.332   1.004  18.631  0.00  0.00    +0.000 HD
ENDBRANCH  22  24
ENDBRANCH   2  22
TORSDOF 7
ENDMDL
MODEL 2
REMARK VINA RESULT:      -8.2      1.812      2.366
REMARK  Name = 
REMARK  7 active torsions:
REMARK  status: ('A' for Active; 'I' for Inactive)
REMARK    1  A    between atoms: C_2  and  O_3
REMARK    2  A    between atoms: C_2  and  C_4
REMARK    3  A    between atoms: C_8  and  N_9
REMARK    4  A    between atoms: N_9  and  C_10
REMARK    5  A    between atoms: C_11  and  C_12
REMARK    6  A    between atoms: C_12  and  O_14
REMARK    7  A    between atoms: C_18  and  N_19
REMARK                            x       y       z     vdW  Elec       q    Type
REMARK                         _______ _______ _______ _____ _____    ______ ____
ROOT
ATOM      1  C   UNL     1       3.416   3.230  19.208  0.00  0.00    +0.000 A 
ATOM      2  C   UNL     1       3.635   2.442  20.366  0.00  0.00    +0.000 A 
ATOM      3  C   UNL     1       2.786   2.557  21.488  0.00  0.00    +0.000 A 
ATOM      4  C   UNL     1       1.711   3.444  21.488  0.00  0.00    +0.000 A 
ATOM      5  C   UNL     1       1.438   4.189  20.350  0.00  0.00    +0.000 A 
ATOM      6  C   UNL     1       2.261   4.050  19.220  0.00  0.00    +0.000 A 
ENDROOT
BRANCH   6   7
ATOM      7  N   UNL     1       1.802   4.747  18.029  0.00  0.00    +0.000 N 
ATOM      8  O   UNL     1       1.153   4.090  17.202  0.00  0.00    +0.000 OA
ATOM      9  O   UNL     1       2.069   5.952  17.941  0.00  0.00    +0.000 OA
ENDBRANCH   6   7
BRANCH   1  10
ATOM     10  N   UNL     1       4.301   3.083  18.096  0.00  0.00    +0.000 N 
ATOM     11  H   UNL     1       3.799   2.632  17.321  0.00  0.00    +0.000 HD
BRANCH  10  16
ATOM     12  C   UNL     1       6.581   4.946  15.802  0.00  0.00    +0.000 A 
ATOM     13  C   UNL     1       7.109   5.909  16.665  0.00  0.00    +0.000 A 
ATOM     14  C   UNL     1       6.649   5.976  17.979  0.00  0.00    +0.000 A 
ATOM     15  C   UNL     1       5.703   5.053  18.441  0.00  0.00    +0.000 A 
ATOM     16  C   UNL     1       5.200   4.057  17.591  0.00  0.00    +0.000 A 
ATOM     17  C   UNL     1       5.574   4.082  16.243  0.00  0.00    +0.000 A 
BRANCH  12  19
ATOM     18  O   UNL     1       7.851   5.550  13.888  0.00  0.00    +0.000 OA
ATOM     19  C   UNL     1       7.076   4.773  14.417  0.00  0.00    +0.000 C 
BRANCH  19  20
ATOM     20  O   UNL     1       6.529   3.713  13.786  0.00  0.00    +0.000 OA
ATOM     21  H   UNL     1       5.763   3.319  14.245  0.00  0.00    +0.000 HD
ENDBRANCH  19  20
ENDBRANCH  12  19
ENDBRANCH  10  16
ENDBRANCH   1  10
BRANCH   2  22
ATOM     22  C   UNL     1       4.740   1.450  20.501  0.00  0.00    +0.000 C 
ATOM     23  O   UNL     1       5.477   1.421  21.472  0.00  0.00    +0.000 OA
BRANCH  22  24
ATOM     24  O   UNL     1       4.883   0.620  19.445  0.00  0.00    +0.000 OA
ATOM     25  H   UNL     1       5.584   0.896  18.817  0.00  0.00    +0.000 HD
ENDBRANCH  22  24
ENDBRANCH   2  22
TORSDOF 7
ENDMDL
MODEL 3
REMARK VINA RESULT:      -8.0      1.654      3.234
REMARK  Name = 
REMARK  7 active torsions:
REMARK  status: ('A' for Active; 'I' for Inactive)
REMARK    1  A    between atoms: C_2  and  O_3
REMARK    2  A    between atoms: C_2  and  C_4
REMARK    3  A    between atoms: C_8  and  N_9
REMARK    4  A    between atoms: N_9  and  C_10
REMARK    5  A    between atoms: C_11  and  C_12
REMARK    6  A    between atoms: C_12  and  O_14
REMARK    7  A    between atoms: C_18  and  N_19
REMARK                            x       y       z     vdW  Elec       q    Type
REMARK                         _______ _______ _______ _____ _____    ______ ____
ROOT
ATOM      1  C   UNL     1       2.546   4.440  18.623  0.00  0.00    +0.000 A 
ATOM      2  C   UNL     1       2.085   5.320  19.634  0.00  0.00    +0.000 A 
ATOM      3  C   UNL     1       1.312   4.838  20.712  0.00  0.00    +0.000 A 
ATOM      4  C   UNL     1       0.984   3.487  20.814  0.00  0.00    +0.000 A 
ATOM      5  C   UNL     1       1.466   2.593  19.870  0.00  0.00    +0.000 A 
ATOM      6  C   UNL     1       2.265   3.065  18.815  0.00  0.00    +0.000 A 
ENDROOT
BRANCH   6   7
ATOM      7  N   UNL     1       2.853   2.036  17.973  0.00  0.00    +0.000 N 
ATOM      8  O   UNL     1       2.545   2.041  16.772  0.00  0.00    +0.000 OA
ATOM      9  O   UNL     1       3.642   1.249  18.511  0.00  0.00    +0.000 OA
ENDBRANCH   6   7
BRANCH   1  10
ATOM     10  N   UNL     1       3.324   4.972  17.548  0.00  0.00    +0.000 N 
ATOM     11  H   UNL     1       3.013   5.929  17.346  0.00  0.00    +0.000 HD
BRANCH  10  16
ATOM     12  C   UNL     1       6.990   5.241  18.201  0.00  0.00    +0.000 A 
ATOM     13  C   UNL     1       7.516   4.816  16.978  0.00  0.00    +0.000 A 
ATOM     14  C   UNL     1       6.652   4.376  15.977  0.00  0.00    +0.000 A 
ATOM     15  C   UNL     1       5.268   4.408  16.179  0.00  0.00    +0.000 A 
ATOM     16  C   UNL     1       4.731   4.873  17.388  0.00  0.00    +0.000 A 
ATOM     17  C   UNL     1       5.611   5.190  18.428  0.00  0.00    +0.000 A 
BRANCH  12  19
ATOM     18  O   UNL     1       7.961   5.253  20.367  0.00  0.00    +0.000 OA
ATOM     19  C   UNL     1       7.844   5.788  19.279  0.00  0.00    +0.000 C 
BRANCH  19  20
ATOM     20  O   UNL     1       8.418   6.966  18.956  0.00  0.00    +0.000 OA
ATOM     21  H   UNL     1       8.933   6.952  18.127  0.00  0.00    +0.000 HD
ENDBRANCH  19  20
ENDBRANCH  12  19
ENDBRANCH  10  16
ENDBRANCH   1  10
BRANCH   2  22
ATOM     22  C   UNL     1       2.367   6.785  19.655  0.00  0.00    +0.000 C 
ATOM     23  O   UNL     1       2.752   7.390  18.669  0.00  0.00    +0.000 OA
BRANCH  22  24
ATOM     24  O   UNL     1       2.203   7.371  20.860  0.00  0.00    +0.000 OA
ATOM     25  H   UNL     1       2.983   7.288  21.450  0.00  0.00    +0.000 HD
ENDBRANCH  22  24
ENDBRANCH   2  22
TORSDOF 7
ENDMDL
MODEL 4
REMARK VINA RESULT:      -7.9      2.358      3.910
REMARK  Name = 
REMARK  7 active torsions:
REMARK  status: ('A' for Active; 'I' for Inactive)
REMARK    1  A    between atoms: C_2  and  O_3
REMARK    2  A    between atoms: C_2  and  C_4
REMARK    3  A    between atoms: C_8  and  N_9
REMARK    4  A    between atoms: N_9  and  C_10
REMARK    5  A    between atoms: C_11  and  C_12
REMARK    6  A    between atoms: C_12  and  O_14
REMARK    7  A    between atoms: C_18  and  N_19
REMARK                            x       y       z     vdW  Elec       q    Type
REMARK                         _______ _______ _______ _____ _____    ______ ____
ROOT
ATOM      1  C   UNL     1       2.526   4.461  18.661  0.00  0.00    +0.000 A 
ATOM      2  C   UNL     1       2.096   5.355  19.673  0.00  0.00    +0.000 A 
ATOM      3  C   UNL     1       1.396   4.883  20.804  0.00  0.00    +0.000 A 
ATOM      4  C   UNL     1       1.112   3.526  20.958  0.00  0.00    +0.000 A 
ATOM      5  C   UNL     1       1.568   2.620  20.013  0.00  0.00    +0.000 A 
ATOM      6  C   UNL     1       2.294   3.084  18.904  0.00  0.00    +0.000 A 
ENDROOT
BRANCH   6   7
ATOM      7  N   UNL     1       2.865   2.049  18.058  0.00  0.00    +0.000 N 
ATOM      8  O   UNL     1       2.532   2.045  16.864  0.00  0.00    +0.000 OA
ATOM      9  O   UNL     1       3.664   1.265  18.585  0.00  0.00    +0.000 OA
ENDBRANCH   6   7
BRANCH   1  10
ATOM     10  N   UNL     1       3.230   4.983  17.532  0.00  0.00    +0.000 N 
ATOM     11  H   UNL     1       2.864   5.916  17.308  0.00  0.00    +0.000 HD
BRANCH  10  16
ATOM     12  C   UNL     1       6.540   4.789  15.817  0.00  0.00    +0.000 A 
ATOM     13  C   UNL     1       7.407   4.698  16.908  0.00  0.00    +0.000 A 
ATOM     14  C   UNL     1       6.891   4.775  18.201  0.00  0.00    +0.000 A 
ATOM     15  C   UNL     1       5.511   4.892  18.401  0.00  0.00    +0.000 A 
ATOM     16  C   UNL     1       4.631   4.942  17.311  0.00  0.00    +0.000 A 
ATOM     17  C   UNL     1       5.171   4.993  16.021  0.00  0.00    +0.000 A 
BRANCH  12  19
ATOM     18  O   UNL     1       7.779   5.429  13.895  0.00  0.00    +0.000 OA
ATOM     19  C   UNL     1       7.011   4.643  14.421  0.00  0.00    +0.000 C 
BRANCH  19  20
ATOM     20  O   UNL     1       6.451   3.597  13.778  0.00  0.00    +0.000 OA
ATOM     21  H   UNL     1       7.091   2.976  13.381  0.00  0.00    +0.000 HD
ENDBRANCH  19  20
ENDBRANCH  12  19
ENDBRANCH  10  16
ENDBRANCH   1  10
BRANCH   2  22
ATOM     22  C   UNL     1       2.337   6.827  19.640  0.00  0.00    +0.000 C 
ATOM     23  O   UNL     1       2.640   7.417  18.618  0.00  0.00    +0.000 OA
BRANCH  22  24
ATOM     24  O   UNL     1       2.235   7.439  20.839  0.00  0.00    +0.000 OA
ATOM     25  H   UNL     1       1.501   8.088  20.891  0.00  0.00    +0.000 HD
ENDBRANCH  22  24
ENDBRANCH   2  22
TORSDOF 7
ENDMDL
MODEL 5
REMARK VINA RESULT:      -7.7      0.767      3.342
REMARK  Name = 
REMARK  7 active torsions:
REMARK  status: ('A' for Active; 'I' for Inactive)
REMARK    1  A    between atoms: C_2  and  O_3
REMARK    2  A    between atoms: C_2  and  C_4
REMARK    3  A    between atoms: C_8  and  N_9
REMARK    4  A    between atoms: N_9  and  C_10
REMARK    5  A    between atoms: C_11  and  C_12
REMARK    6  A    between atoms: C_12  and  O_14
REMARK    7  A    between atoms: C_18  and  N_19
REMARK                            x       y       z     vdW  Elec       q    Type
REMARK                         _______ _______ _______ _____ _____    ______ ____
ROOT
ATOM      1  C   UNL     1       3.216   3.066  19.110  0.00  0.00    +0.000 A 
ATOM      2  C   UNL     1       2.092   3.929  19.127  0.00  0.00    +0.000 A 
ATOM      3  C   UNL     1       1.261   4.009  20.265  0.00  0.00    +0.000 A 
ATOM      4  C   UNL     1       1.523   3.246  21.402  0.00  0.00    +0.000 A 
ATOM      5  C   UNL     1       2.647   2.434  21.436  0.00  0.00    +0.000 A 
ATOM      6  C   UNL     1       3.494   2.378  20.317  0.00  0.00    +0.000 A 
ENDROOT
BRANCH   6   7
ATOM      7  N   UNL     1       4.726   1.628  20.507  0.00  0.00    +0.000 N 
ATOM      8  O   UNL     1       5.277   1.715  21.614  0.00  0.00    +0.000 OA
ATOM      9  O   UNL     1       5.117   0.935  19.560  0.00  0.00    +0.000 OA
ENDBRANCH   6   7
BRANCH   1  10
ATOM     10  N   UNL     1       4.029   3.014  17.935  0.00  0.00    +0.000 N 
ATOM     11  H   UNL     1       3.439   2.788  17.125  0.00  0.00    +0.000 HD
BRANCH  10  16
ATOM     12  C   UNL     1       6.903   5.389  18.125  0.00  0.00    +0.000 A 
ATOM     13  C   UNL     1       6.927   5.892  16.821  0.00  0.00    +0.000 A 
ATOM     14  C   UNL     1       6.038   5.384  15.875  0.00  0.00    +0.000 A 
ATOM     15  C   UNL     1       5.097   4.416  16.244  0.00  0.00    +0.000 A 
ATOM     16  C   UNL     1       5.039   3.937  17.560  0.00  0.00    +0.000 A 
ATOM     17  C   UNL     1       6.018   4.361  18.466  0.00  0.00    +0.000 A 
BRANCH  12  19
ATOM     18  O   UNL     1       7.854   5.425  20.300  0.00  0.00    +0.000 OA
ATOM     19  C   UNL     1       7.768   5.932  19.196  0.00  0.00    +0.000 C 
BRANCH  19  20
ATOM     20  O   UNL     1       8.393   7.076  18.844  0.00  0.00    +0.000 OA
ATOM     21  H   UNL     1       9.179   6.952  18.280  0.00  0.00    +0.000 HD
ENDBRANCH  19  20
ENDBRANCH  12  19
ENDBRANCH  10  16
ENDBRANCH   1  10
BRANCH   2  22
ATOM     22  C   UNL     1       1.698   4.805  17.985  0.00  0.00    +0.000 C 
ATOM     23  O   UNL     1       1.014   4.403  17.060  0.00  0.00    +0.000 OA
BRANCH  22  24
ATOM     24  O   UNL     1       2.195   6.059  18.042  0.00  0.00    +0.000 OA
ATOM     25  H   UNL     1       1.969   6.537  18.869  0.00  0.00    +0.000 HD
ENDBRANCH  22  24
ENDBRANCH   2  22
TORSDOF 7
ENDMDL
MODEL 6
REMARK VINA RESULT:      -7.6      1.941      4.017
REMARK  Name = 
REMARK  7 active torsions:
REMARK  status: ('A' for Active; 'I' for Inactive)
REMARK    1  A    between atoms: C_2  and  O_3
REMARK    2  A    between atoms: C_2  and  C_4
REMARK    3  A    between atoms: C_8  and  N_9
REMARK    4  A    between atoms: N_9  and  C_10
REMARK    5  A    between atoms: C_11  and  C_12
REMARK    6  A    between atoms: C_12  and  O_14
REMARK    7  A    between atoms: C_18  and  N_19
REMARK                            x       y       z     vdW  Elec       q    Type
REMARK                         _______ _______ _______ _____ _____    ______ ____
ROOT
ATOM      1  C   UNL     1       3.252   3.009  19.175  0.00  0.00    +0.000 A 
ATOM      2  C   UNL     1       2.137   3.883  19.206  0.00  0.00    +0.000 A 
ATOM      3  C   UNL     1       1.326   3.979  20.358  0.00  0.00    +0.000 A 
ATOM      4  C   UNL     1       1.600   3.221  21.495  0.00  0.00    +0.000 A 
ATOM      5  C   UNL     1       2.716   2.397  21.515  0.00  0.00    +0.000 A 
ATOM      6  C   UNL     1       3.544   2.326  20.382  0.00  0.00    +0.000 A 
ENDROOT
BRANCH   6   7
ATOM      7  N   UNL     1       4.770   1.565  20.556  0.00  0.00    +0.000 N 
ATOM      8  O   UNL     1       5.140   0.860  19.605  0.00  0.00    +0.000 OA
ATOM      9  O   UNL     1       5.371   1.699  21.629  0.00  0.00    +0.000 OA
ENDBRANCH   6   7
BRANCH   1  10
ATOM     10  N   UNL     1       4.044   2.941  17.987  0.00  0.00    +0.000 N 
ATOM     11  H   UNL     1       3.447   2.667  17.198  0.00  0.00    +0.000 HD
BRANCH  10  16
ATOM     12  C   UNL     1       6.488   4.786  15.852  0.00  0.00    +0.000 A 
ATOM     13  C   UNL     1       7.058   5.658  16.783  0.00  0.00    +0.000 A 
ATOM     14  C   UNL     1       6.575   5.676  18.090  0.00  0.00    +0.000 A 
ATOM     15  C   UNL     1       5.562   4.791  18.477  0.00  0.00    +0.000 A 
ATOM     16  C   UNL     1       5.014   3.884  17.560  0.00  0.00    +0.000 A 
ATOM     17  C   UNL     1       5.418   3.965  16.222  0.00  0.00    +0.000 A 
BRANCH  12  19
ATOM     18  O   UNL     1       7.790   5.454  13.983  0.00  0.00    +0.000 OA
ATOM     19  C   UNL     1       6.999   4.664  14.469  0.00  0.00    +0.000 C 
BRANCH  19  20
ATOM     20  O   UNL     1       6.450   3.637  13.787  0.00  0.00    +0.000 OA
ATOM     21  H   UNL     1       5.852   3.074  14.315  0.00  0.00    +0.000 HD
ENDBRANCH  19  20
ENDBRANCH  12  19
ENDBRANCH  10  16
ENDBRANCH   1  10
BRANCH   2  22
ATOM     22  C   UNL     1       1.732   4.756  18.066  0.00  0.00    +0.000 C 
ATOM     23  O   UNL     1       1.057   4.347  17.137  0.00  0.00    +0.000 OA
BRANCH  22  24
ATOM     24  O   UNL     1       2.209   6.018  18.128  0.00  0.00    +0.000 OA
ATOM     25  H   UNL     1       2.736   6.202  18.935  0.00  0.00    +0.000 HD
ENDBRANCH  22  24
ENDBRANCH   2  22
TORSDOF 7
ENDMDL
MODEL 7
REMARK VINA RESULT:      -7.6      1.554      1.989
REMARK  Name = 
REMARK  7 active torsions:
REMARK  status: ('A' for Active; 'I' for Inactive)
REMARK    1  A    between atoms: C_2  and  O_3
REMARK    2  A    between atoms: C_2  and  C_4
REMARK    3  A    between atoms: C_8  and  N_9
REMARK    4  A    between atoms: N_9  and  C_10
REMARK    5  A    between atoms: C_11  and  C_12
REMARK    6  A    between atoms: C_12  and  O_14
REMARK    7  A    between atoms: C_18  and  N_19
REMARK                            x       y       z     vdW  Elec       q    Type
REMARK                         _______ _______ _______ _____ _____    ______ ____
ROOT
ATOM      1  C   UNL     1       2.770   4.459  18.748  0.00  0.00    +0.000 A 
ATOM      2  C   UNL     1       2.618   3.108  19.149  0.00  0.00    +0.000 A 
ATOM      3  C   UNL     1       2.144   2.787  20.439  0.00  0.00    +0.000 A 
ATOM      4  C   UNL     1       1.810   3.786  21.352  0.00  0.00    +0.000 A 
ATOM      5  C   UNL     1       1.896   5.117  20.971  0.00  0.00    +0.000 A 
ATOM      6  C   UNL     1       2.335   5.438  19.675  0.00  0.00    +0.000 A 
ENDROOT
BRANCH   6   7
ATOM      7  N   UNL     1       2.238   6.844  19.317  0.00  0.00    +0.000 N 
ATOM      8  O   UNL     1       2.189   7.664  20.246  0.00  0.00    +0.000 OA
ATOM      9  O   UNL     1       2.241   7.121  18.111  0.00  0.00    +0.000 OA
ENDBRANCH   6   7
BRANCH   1  10
ATOM     10  N   UNL     1       3.256   4.738  17.434  0.00  0.00    +0.000 N 
ATOM     11  H   UNL     1       2.699   5.497  17.022  0.00  0.00    +0.000 HD
BRANCH  10  16
ATOM     12  C   UNL     1       6.773   5.962  17.177  0.00  0.00    +0.000 A 
ATOM     13  C   UNL     1       7.254   5.187  16.118  0.00  0.00    +0.000 A 
ATOM     14  C   UNL     1       6.430   4.218  15.549  0.00  0.00    +0.000 A 
ATOM     15  C   UNL     1       5.116   4.058  16.004  0.00  0.00    +0.000 A 
ATOM     16  C   UNL     1       4.613   4.860  17.038  0.00  0.00    +0.000 A 
ATOM     17  C   UNL     1       5.489   5.739  17.684  0.00  0.00    +0.000 A 
BRANCH  12  19
ATOM     18  O   UNL     1       7.704   8.145  17.249  0.00  0.00    +0.000 OA
ATOM     19  C   UNL     1       7.568   7.056  17.778  0.00  0.00    +0.000 C 
BRANCH  19  20
ATOM     20  O   UNL     1       8.178   6.699  18.929  0.00  0.00    +0.000 OA
ATOM     21  H   UNL     1       7.809   5.901  19.352  0.00  0.00    +0.000 HD
ENDBRANCH  19  20
ENDBRANCH  12  19
ENDBRANCH  10  16
ENDBRANCH   1  10
BRANCH   2  22
ATOM     22  C   UNL     1       2.930   1.940  18.275  0.00  0.00    +0.000 C 
ATOM     23  O   UNL     1       3.827   1.154  18.530  0.00  0.00    +0.000 OA
BRANCH  22  24
ATOM     24  O   UNL     1       2.169   1.852  17.163  0.00  0.00    +0.000 OA
ATOM     25  H   UNL     1       2.688   1.760  16.335  0.00  0.00    +0.000 HD
ENDBRANCH  22  24
ENDBRANCH   2  22
TORSDOF 7
ENDMDL
MODEL 8
REMARK VINA RESULT:      -7.6      2.298      3.030
REMARK  Name = 
REMARK  7 active torsions:
REMARK  status: ('A' for Active; 'I' for Inactive)
REMARK    1  A    between atoms: C_2  and  O_3
REMARK    2  A    between atoms: C_2  and  C_4
REMARK    3  A    between atoms: C_8  and  N_9
REMARK    4  A    between atoms: N_9  and  C_10
REMARK    5  A    between atoms: C_11  and  C_12
REMARK    6  A    between atoms: C_12  and  O_14
REMARK    7  A    between atoms: C_18  and  N_19
REMARK                            x       y       z     vdW  Elec       q    Type
REMARK                         _______ _______ _______ _____ _____    ______ ____
ROOT
ATOM      1  C   UNL     1       2.762   4.416  18.766  0.00  0.00    +0.000 A 
ATOM      2  C   UNL     1       2.530   3.069  19.139  0.00  0.00    +0.000 A 
ATOM      3  C   UNL     1       1.929   2.756  20.378  0.00  0.00    +0.000 A 
ATOM      4  C   UNL     1       1.547   3.761  21.266  0.00  0.00    +0.000 A 
ATOM      5  C   UNL     1       1.711   5.090  20.906  0.00  0.00    +0.000 A 
ATOM      6  C   UNL     1       2.277   5.404  19.659  0.00  0.00    +0.000 A 
ENDROOT
BRANCH   6   7
ATOM      7  N   UNL     1       2.260   6.814  19.306  0.00  0.00    +0.000 N 
ATOM      8  O   UNL     1       2.318   7.099  18.101  0.00  0.00    +0.000 OA
ATOM      9  O   UNL     1       2.158   7.627  20.234  0.00  0.00    +0.000 OA
ENDBRANCH   6   7
BRANCH   1  10
ATOM     10  N   UNL     1       3.375   4.687  17.504  0.00  0.00    +0.000 N 
ATOM     11  H   UNL     1       2.883   5.466  17.050  0.00  0.00    +0.000 HD
BRANCH  10  16
ATOM     12  C   UNL     1       6.624   4.829  15.672  0.00  0.00    +0.000 A 
ATOM     13  C   UNL     1       7.536   4.758  16.728  0.00  0.00    +0.000 A 
ATOM     14  C   UNL     1       7.064   4.738  18.040  0.00  0.00    +0.000 A 
ATOM     15  C   UNL     1       5.687   4.738  18.291  0.00  0.00    +0.000 A 
ATOM     16  C   UNL     1       4.766   4.766  17.235  0.00  0.00    +0.000 A 
ATOM     17  C   UNL     1       5.253   4.915  15.931  0.00  0.00    +0.000 A 
BRANCH  12  19
ATOM     18  O   UNL     1       7.889   5.535  13.791  0.00  0.00    +0.000 OA
ATOM     19  C   UNL     1       7.053   4.781  14.256  0.00  0.00    +0.000 C 
BRANCH  19  20
ATOM     20  O   UNL     1       6.377   3.869  13.526  0.00  0.00    +0.000 OA
ATOM     21  H   UNL     1       6.615   3.850  12.580  0.00  0.00    +0.000 HD
ENDBRANCH  19  20
ENDBRANCH  12  19
ENDBRANCH  10  16
ENDBRANCH   1  10
BRANCH   2  22
ATOM     22  C   UNL     1       2.881   1.896  18.286  0.00  0.00    +0.000 C 
ATOM     23  O   UNL     1       3.785   1.130  18.570  0.00  0.00    +0.000 OA
BRANCH  22  24
ATOM     24  O   UNL     1       2.147   1.782  17.159  0.00  0.00    +0.000 OA
ATOM     25  H   UNL     1       2.455   1.070  16.558  0.00  0.00    +0.000 HD
ENDBRANCH  22  24
ENDBRANCH   2  22
TORSDOF 7
ENDMDL
MODEL 9
REMARK VINA RESULT:      -7.6      1.661      2.205
REMARK  Name = 
REMARK  7 active torsions:
REMARK  status: ('A' for Active; 'I' for Inactive)
REMARK    1  A    between atoms: C_2  and  O_3
REMARK    2  A    between atoms: C_2  and  C_4
REMARK    3  A    between atoms: C_8  and  N_9
REMARK    4  A    between atoms: N_9  and  C_10
REMARK    5  A    between atoms: C_11  and  C_12
REMARK    6  A    between atoms: C_12  and  O_14
REMARK    7  A    between atoms: C_18  and  N_19
REMARK                            x       y       z     vdW  Elec       q    Type
REMARK                         _______ _______ _______ _____ _____    ______ ____
ROOT
ATOM      1  C   UNL     1       2.653   4.628  18.674  0.00  0.00    +0.000 A 
ATOM      2  C   UNL     1       2.306   3.269  18.876  0.00  0.00    +0.000 A 
ATOM      3  C   UNL     1       1.601   2.867  20.031  0.00  0.00    +0.000 A 
ATOM      4  C   UNL     1       1.225   3.794  21.002  0.00  0.00    +0.000 A 
ATOM      5  C   UNL     1       1.501   5.139  20.807  0.00  0.00    +0.000 A 
ATOM      6  C   UNL     1       2.173   5.545  19.642  0.00  0.00    +0.000 A 
ENDROOT
BRANCH   6   7
ATOM      7  N   UNL     1       2.273   6.983  19.452  0.00  0.00    +0.000 N 
ATOM      8  O   UNL     1       2.617   7.385  18.331  0.00  0.00    +0.000 OA
ATOM      9  O   UNL     1       1.978   7.702  20.415  0.00  0.00    +0.000 OA
ENDBRANCH   6   7
BRANCH   1  10
ATOM     10  N   UNL     1       3.369   4.990  17.491  0.00  0.00    +0.000 N 
ATOM     11  H   UNL     1       3.018   5.892  17.147  0.00  0.00    +0.000 HD
BRANCH  10  16
ATOM     12  C   UNL     1       7.048   5.437  17.937  0.00  0.00    +0.000 A 
ATOM     13  C   UNL     1       7.537   4.848  16.768  0.00  0.00    +0.000 A 
ATOM     14  C   UNL     1       6.647   4.245  15.881  0.00  0.00    +0.000 A 
ATOM     15  C   UNL     1       5.271   4.275  16.137  0.00  0.00    +0.000 A 
ATOM     16  C   UNL     1       4.770   4.901  17.286  0.00  0.00    +0.000 A 
ATOM     17  C   UNL     1       5.681   5.388  18.230  0.00  0.00    +0.000 A 
BRANCH  12  19
ATOM     18  O   UNL     1       8.344   7.283  18.678  0.00  0.00    +0.000 OA
ATOM     19  C   UNL     1       7.928   6.157  18.885  0.00  0.00    +0.000 C 
BRANCH  19  20
ATOM     20  O   UNL     1       8.272   5.414  19.958  0.00  0.00    +0.000 OA
ATOM     21  H   UNL     1       8.159   4.452  19.839  0.00  0.00    +0.000 HD
ENDBRANCH  19  20
ENDBRANCH  12  19
ENDBRANCH  10  16
ENDBRANCH   1  10
BRANCH   2  22
ATOM     22  C   UNL     1       2.638   2.174  17.918  0.00  0.00    +0.000 C 
ATOM     23  O   UNL     1       2.313   2.213  16.744  0.00  0.00    +0.000 OA
BRANCH  22  24
ATOM     24  O   UNL     1       3.285   1.124  18.467  0.00  0.00    +0.000 OA
ATOM     25  H   UNL     1       3.897   0.670  17.849  0.00  0.00    +0.000 HD
ENDBRANCH  22  24
ENDBRANCH   2  22
TORSDOF 7
ENDMDL
