MODEL 1
REMARK VINA RESULT:      -7.5      0.000      0.000
REMARK  Name = 
REMARK  3 active torsions:
REMARK  status: ('A' for Active; 'I' for Inactive)
REMARK    1  A    between atoms: C_2  and  C_3
REMARK    2  A    between atoms: C_4  and  C_5
REMARK    3  A    between atoms: C_8  and  N_9
REMARK                            x       y       z     vdW  Elec       q    Type
REMARK                         _______ _______ _______ _____ _____    ______ ____
ROOT
ATOM      1  C   UNL     1       2.372   7.399  18.889  0.00  0.00    +0.000 A 
ATOM      2  C   UNL     1       2.079   8.310  17.872  0.00  0.00    +0.000 A 
ATOM      3  C   UNL     1       1.339   9.470  18.140  0.00  0.00    +0.000 A 
ATOM      4  C   UNL     1       0.845   9.758  19.422  0.00  0.00    +0.000 A 
ATOM      5  C   UNL     1       1.108   8.809  20.417  0.00  0.00    +0.000 A 
ATOM      6  C   UNL     1       1.847   7.648  20.160  0.00  0.00    +0.000 A 
ENDROOT
BRANCH   4   7
ATOM      7  N   UNL     1       0.113  10.899  19.661  0.00  0.00    +0.000 N 
ATOM      8  C   UNL     1       0.740  12.196  19.959  0.00  0.00    +0.000 C 
ATOM      9  C   UNL     1       0.495  13.205  18.814  0.00  0.00    +0.000 C 
ATOM     10  N   UNL     1      -0.934  13.372  18.485  0.00  0.00    +0.000 NA
ATOM     11  C   UNL     1      -1.509  12.051  18.159  0.00  0.00    +0.000 C 
ATOM     12  C   UNL     1      -1.307  10.982  19.263  0.00  0.00    +0.000 C 
ATOM     13  H   UNL     1      -1.023  13.983  17.676  0.00  0.00    +0.000 HD
ENDBRANCH   4   7
BRANCH   1  15
ATOM     14  C   UNL     1       4.400   6.017  19.198  0.00  0.00    +0.000 C 
ATOM     15  C   UNL     1       3.226   6.243  18.590  0.00  0.00    +0.000 C 
BRANCH  14  17
ATOM     16  O   UNL     1       5.420   3.916  19.386  0.00  0.00    +0.000 OA
ATOM     17  C   UNL     1       5.294   4.939  18.719  0.00  0.00    +0.000 C 
ATOM     18  N   UNL     1       5.895   5.138  17.489  0.00  0.00    +0.000 N 
ATOM     19  C   UNL     1       5.924   6.394  16.738  0.00  0.00    +0.000 C 
ATOM     20  C   UNL     1       5.359   6.183  15.336  0.00  0.00    +0.000 C 
ATOM     21  C   UNL     1       6.071   5.035  14.617  0.00  0.00    +0.000 C 
ATOM     22  C   UNL     1       6.094   3.765  15.471  0.00  0.00    +0.000 C 
ATOM     23  C   UNL     1       6.634   4.042  16.873  0.00  0.00    +0.000 C 
ENDBRANCH  14  17
ENDBRANCH   1  15
TORSDOF 3
ENDMDL
MODEL 2
REMARK VINA RESULT:      -7.5      5.768      8.354
REMARK  Name = 
REMARK  3 active torsions:
REMARK  status: ('A' for Active; 'I' for Inactive)
REMARK    1  A    between atoms: C_2  and  C_3
REMARK    2  A    between atoms: C_4  and  C_5
REMARK    3  A    between atoms: C_8  and  N_9
REMARK                            x       y       z     vdW  Elec       q    Type
REMARK                         _______ _______ _______ _____ _____    ______ ____
ROOT
ATOM      1  C   UNL     1       7.577   7.628  17.893  0.00  0.00    +0.000 A 
ATOM      2  C   UNL     1       6.415   7.492  17.129  0.00  0.00    +0.000 A 
ATOM      3  C   UNL     1       5.621   6.341  17.232  0.00  0.00    +0.000 A 
ATOM      4  C   UNL     1       5.962   5.275  18.078  0.00  0.00    +0.000 A 
ATOM      5  C   UNL     1       7.155   5.410  18.799  0.00  0.00    +0.000 A 
ATOM      6  C   UNL     1       7.954   6.556  18.705  0.00  0.00    +0.000 A 
ENDROOT
BRANCH   4   7
ATOM      7  N   UNL     1       5.172   4.149  18.157  0.00  0.00    +0.000 N 
ATOM      8  C   UNL     1       4.817   3.518  19.437  0.00  0.00    +0.000 C 
ATOM      9  C   UNL     1       3.304   3.660  19.723  0.00  0.00    +0.000 C 
ATOM     10  N   UNL     1       2.458   3.149  18.627  0.00  0.00    +0.000 NA
ATOM     11  C   UNL     1       2.827   3.837  17.374  0.00  0.00    +0.000 C 
ATOM     12  C   UNL     1       4.331   3.738  17.015  0.00  0.00    +0.000 C 
ATOM     13  H   UNL     1       1.481   3.344  18.840  0.00  0.00    +0.000 HD
ENDBRANCH   4   7
BRANCH   1  15
ATOM     14  C   UNL     1       8.854   9.489  18.905  0.00  0.00    +0.000 C 
ATOM     15  C   UNL     1       8.332   8.886  17.828  0.00  0.00    +0.000 C 
BRANCH  14  17
ATOM     16  O   UNL     1       9.748  11.280  17.687  0.00  0.00    +0.000 OA
ATOM     17  C   UNL     1       9.441  10.844  18.793  0.00  0.00    +0.000 C 
ATOM     18  N   UNL     1       9.549  11.567  19.966  0.00  0.00    +0.000 N 
ATOM     19  C   UNL     1       9.366  11.045  21.321  0.00  0.00    +0.000 C 
ATOM     20  C   UNL     1       8.306  11.856  22.061  0.00  0.00    +0.000 C 
ATOM     21  C   UNL     1       8.631  13.351  22.032  0.00  0.00    +0.000 C 
ATOM     22  C   UNL     1       8.898  13.840  20.607  0.00  0.00    +0.000 C 
ATOM     23  C   UNL     1       9.939  12.972  19.902  0.00  0.00    +0.000 C 
ENDBRANCH  14  17
ENDBRANCH   1  15
TORSDOF 3
ENDMDL
MODEL 3
REMARK VINA RESULT:      -7.4      2.459      3.873
REMARK  Name = 
REMARK  3 active torsions:
REMARK  status: ('A' for Active; 'I' for Inactive)
REMARK    1  A    between atoms: C_2  and  C_3
REMARK    2  A    between atoms: C_4  and  C_5
REMARK    3  A    between atoms: C_8  and  N_9
REMARK                            x       y       z     vdW  Elec       q    Type
REMARK                         _______ _______ _______ _____ _____    ______ ____
ROOT
ATOM      1  C   UNL     1       1.558   8.458  19.414  0.00  0.00    +0.000 A 
ATOM      2  C   UNL     1       0.798   9.039  20.432  0.00  0.00    +0.000 A 
ATOM      3  C   UNL     1      -0.108  10.071  20.149  0.00  0.00    +0.000 A 
ATOM      4  C   UNL     1      -0.277  10.578  18.852  0.00  0.00    +0.000 A 
ATOM      5  C   UNL     1       0.528  10.015  17.854  0.00  0.00    +0.000 A 
ATOM      6  C   UNL     1       1.435   8.984  18.126  0.00  0.00    +0.000 A 
ENDROOT
BRANCH   4   7
ATOM      7  N   UNL     1      -1.167  11.598  18.598  0.00  0.00    +0.000 N 
ATOM      8  C   UNL     1      -2.136  11.549  17.492  0.00  0.00    +0.000 C 
ATOM      9  C   UNL     1      -3.583  11.456  18.027  0.00  0.00    +0.000 C 
ATOM     10  N   UNL     1      -3.918  12.535  18.977  0.00  0.00    +0.000 NA
ATOM     11  C   UNL     1      -2.942  12.520  20.085  0.00  0.00    +0.000 C 
ATOM     12  C   UNL     1      -1.464  12.613  19.628  0.00  0.00    +0.000 C 
ATOM     13  H   UNL     1      -4.851  12.372  19.352  0.00  0.00    +0.000 HD
ENDBRANCH   4   7
BRANCH   1  15
ATOM     14  C   UNL     1       3.100   6.622  18.806  0.00  0.00    +0.000 C 
ATOM     15  C   UNL     1       2.428   7.319  19.733  0.00  0.00    +0.000 C 
BRANCH  14  17
ATOM     16  O   UNL     1       5.031   5.387  19.291  0.00  0.00    +0.000 OA
ATOM     17  C   UNL     1       3.809   5.376  19.175  0.00  0.00    +0.000 C 
ATOM     18  N   UNL     1       3.018   4.271  19.432  0.00  0.00    +0.000 N 
ATOM     19  C   UNL     1       1.587   4.149  19.145  0.00  0.00    +0.000 C 
ATOM     20  C   UNL     1       0.825   3.776  20.413  0.00  0.00    +0.000 C 
ATOM     21  C   UNL     1       1.416   2.526  21.069  0.00  0.00    +0.000 C 
ATOM     22  C   UNL     1       2.926   2.659  21.274  0.00  0.00    +0.000 C 
ATOM     23  C   UNL     1       3.634   3.068  19.983  0.00  0.00    +0.000 C 
ENDBRANCH  14  17
ENDBRANCH   1  15
TORSDOF 3
ENDMDL
MODEL 4
REMARK VINA RESULT:      -7.4      3.080      8.924
REMARK  Name = 
REMARK  3 active torsions:
REMARK  status: ('A' for Active; 'I' for Inactive)
REMARK    1  A    between atoms: C_2  and  C_3
REMARK    2  A    between atoms: C_4  and  C_5
REMARK    3  A    between atoms: C_8  and  N_9
REMARK                            x       y       z     vdW  Elec       q    Type
REMARK                         _______ _______ _______ _____ _____    ______ ____
ROOT
ATOM      1  C   UNL     1       2.153   8.227  18.817  0.00  0.00    +0.000 A 
ATOM      2  C   UNL     1       2.988   8.001  17.719  0.00  0.00    +0.000 A 
ATOM      3  C   UNL     1       3.619   6.762  17.542  0.00  0.00    +0.000 A 
ATOM      4  C   UNL     1       3.464   5.711  18.459  0.00  0.00    +0.000 A 
ATOM      5  C   UNL     1       2.663   5.973  19.577  0.00  0.00    +0.000 A 
ATOM      6  C   UNL     1       2.026   7.206  19.762  0.00  0.00    +0.000 A 
ENDROOT
BRANCH   4   7
ATOM      7  N   UNL     1       4.101   4.504  18.271  0.00  0.00    +0.000 N 
ATOM      8  C   UNL     1       4.973   3.900  19.290  0.00  0.00    +0.000 C 
ATOM      9  C   UNL     1       4.347   2.605  19.857  0.00  0.00    +0.000 C 
ATOM     10  N   UNL     1       3.998   1.625  18.809  0.00  0.00    +0.000 NA
ATOM     11  C   UNL     1       3.095   2.266  17.833  0.00  0.00    +0.000 C 
ATOM     12  C   UNL     1       3.655   3.573  17.215  0.00  0.00    +0.000 C 
ATOM     13  H   UNL     1       3.520   0.834  19.237  0.00  0.00    +0.000 HD
ENDBRANCH   4   7
BRANCH   1  15
ATOM     14  C   UNL     1       0.330   9.673  19.657  0.00  0.00    +0.000 C 
ATOM     15  C   UNL     1       1.437   9.504  18.918  0.00  0.00    +0.000 C 
BRANCH  14  17
ATOM     16  O   UNL     1      -0.833  11.326  18.474  0.00  0.00    +0.000 OA
ATOM     17  C   UNL     1      -0.444  10.931  19.569  0.00  0.00    +0.000 C 
ATOM     18  N   UNL     1      -0.734  11.561  20.766  0.00  0.00    +0.000 N 
ATOM     19  C   UNL     1      -0.157  11.239  22.071  0.00  0.00    +0.000 C 
ATOM     20  C   UNL     1      -1.263  10.942  23.079  0.00  0.00    +0.000 C 
ATOM     21  C   UNL     1      -2.282  12.081  23.137  0.00  0.00    +0.000 C 
ATOM     22  C   UNL     1      -2.799  12.445  21.743  0.00  0.00    +0.000 C 
ATOM     23  C   UNL     1      -1.650  12.696  20.767  0.00  0.00    +0.000 C 
ENDBRANCH  14  17
ENDBRANCH   1  15
TORSDOF 3
ENDMDL
MODEL 5
REMARK VINA RESULT:      -7.4      5.784      8.442
REMARK  Name = 
REMARK  3 active torsions:
REMARK  status: ('A' for Active; 'I' for Inactive)
REMARK    1  A    between atoms: C_2  and  C_3
REMARK    2  A    between atoms: C_4  and  C_5
REMARK    3  A    between atoms: C_8  and  N_9
REMARK                            x       y       z     vdW  Elec       q    Type
REMARK                         _______ _______ _______ _____ _____    ______ ____
ROOT
ATOM      1  C   UNL     1       7.570   7.617  17.923  0.00  0.00    +0.000 A 
ATOM      2  C   UNL     1       7.919   6.543  18.745  0.00  0.00    +0.000 A 
ATOM      3  C   UNL     1       7.131   5.384  18.783  0.00  0.00    +0.000 A 
ATOM      4  C   UNL     1       5.958   5.256  18.024  0.00  0.00    +0.000 A 
ATOM      5  C   UNL     1       5.599   6.362  17.243  0.00  0.00    +0.000 A 
ATOM      6  C   UNL     1       6.380   7.523  17.197  0.00  0.00    +0.000 A 
ENDROOT
BRANCH   4   7
ATOM      7  N   UNL     1       5.194   4.112  18.083  0.00  0.00    +0.000 N 
ATOM      8  C   UNL     1       4.822   3.471  19.354  0.00  0.00    +0.000 C 
ATOM      9  C   UNL     1       3.300   3.576  19.603  0.00  0.00    +0.000 C 
ATOM     10  N   UNL     1       2.493   3.046  18.486  0.00  0.00    +0.000 NA
ATOM     11  C   UNL     1       2.876   3.744  17.242  0.00  0.00    +0.000 C 
ATOM     12  C   UNL     1       4.391   3.681  16.921  0.00  0.00    +0.000 C 
ATOM     13  H   UNL     1       1.507   3.217  18.674  0.00  0.00    +0.000 HD
ENDBRANCH   4   7
BRANCH   1  15
ATOM     14  C   UNL     1       8.811   9.520  18.900  0.00  0.00    +0.000 C 
ATOM     15  C   UNL     1       8.468   8.775  17.840  0.00  0.00    +0.000 C 
BRANCH  14  17
ATOM     16  O   UNL     1       9.952  11.095  17.594  0.00  0.00    +0.000 OA
ATOM     17  C   UNL     1       9.569  10.778  18.717  0.00  0.00    +0.000 C 
ATOM     18  N   UNL     1       9.745  11.561  19.843  0.00  0.00    +0.000 N 
ATOM     19  C   UNL     1       9.469  11.159  21.223  0.00  0.00    +0.000 C 
ATOM     20  C   UNL     1       8.508  12.147  21.878  0.00  0.00    +0.000 C 
ATOM     21  C   UNL     1       9.023  13.583  21.760  0.00  0.00    +0.000 C 
ATOM     22  C   UNL     1       9.380  13.936  20.315  0.00  0.00    +0.000 C 
ATOM     23  C   UNL     1      10.315  12.897  19.699  0.00  0.00    +0.000 C 
ENDBRANCH  14  17
ENDBRANCH   1  15
TORSDOF 3
ENDMDL
MODEL 6
REMARK VINA RESULT:      -7.3      6.028      7.253
REMARK  Name = 
REMARK  3 active torsions:
REMARK  status: ('A' for Active; 'I' for Inactive)
REMARK    1  A    between atoms: C_2  and  C_3
REMARK    2  A    between atoms: C_4  and  C_5
REMARK    3  A    between atoms: C_8  and  N_9
REMARK                            x       y       z     vdW  Elec       q    Type
REMARK                         _______ _______ _______ _____ _____    ______ ____
ROOT
ATOM      1  C   UNL     1       8.655   9.592  18.512  0.00  0.00    +0.000 A 
ATOM      2  C   UNL     1       8.228  10.549  17.588  0.00  0.00    +0.000 A 
ATOM      3  C   UNL     1       8.576  11.898  17.742  0.00  0.00    +0.000 A 
ATOM      4  C   UNL     1       9.341  12.351  18.828  0.00  0.00    +0.000 A 
ATOM      5  C   UNL     1       9.718  11.384  19.769  0.00  0.00    +0.000 A 
ATOM      6  C   UNL     1       9.377  10.034  19.623  0.00  0.00    +0.000 A 
ENDROOT
BRANCH   4   7
ATOM      7  N   UNL     1       9.664  13.682  18.964  0.00  0.00    +0.000 N 
ATOM      8  C   UNL     1      10.965  14.229  18.549  0.00  0.00    +0.000 C 
ATOM      9  C   UNL     1      10.806  15.185  17.345  0.00  0.00    +0.000 C 
ATOM     10  N   UNL     1       9.830  16.266  17.589  0.00  0.00    +0.000 NA
ATOM     11  C   UNL     1       8.534  15.667  17.966  0.00  0.00    +0.000 C 
ATOM     12  C   UNL     1       8.611  14.696  19.172  0.00  0.00    +0.000 C 
ATOM     13  H   UNL     1       9.712  16.809  16.736  0.00  0.00    +0.000 HD
ENDBRANCH   4   7
BRANCH   1  15
ATOM     14  C   UNL     1       7.367   7.764  17.454  0.00  0.00    +0.000 C 
ATOM     15  C   UNL     1       8.349   8.177  18.269  0.00  0.00    +0.000 C 
BRANCH  14  17
ATOM     16  O   UNL     1       7.857   5.476  17.568  0.00  0.00    +0.000 OA
ATOM     17  C   UNL     1       6.994   6.333  17.398  0.00  0.00    +0.000 C 
ATOM     18  N   UNL     1       5.652   6.052  17.214  0.00  0.00    +0.000 N 
ATOM     19  C   UNL     1       4.615   7.013  16.834  0.00  0.00    +0.000 C 
ATOM     20  C   UNL     1       3.480   6.993  17.853  0.00  0.00    +0.000 C 
ATOM     21  C   UNL     1       2.941   5.576  18.057  0.00  0.00    +0.000 C 
ATOM     22  C   UNL     1       4.066   4.586  18.368  0.00  0.00    +0.000 C 
ATOM     23  C   UNL     1       5.191   4.674  17.338  0.00  0.00    +0.000 C 
ENDBRANCH  14  17
ENDBRANCH   1  15
TORSDOF 3
ENDMDL
MODEL 7
REMARK VINA RESULT:      -7.3      3.102      8.637
REMARK  Name = 
REMARK  3 active torsions:
REMARK  status: ('A' for Active; 'I' for Inactive)
REMARK    1  A    between atoms: C_2  and  C_3
REMARK    2  A    between atoms: C_4  and  C_5
REMARK    3  A    between atoms: C_8  and  N_9
REMARK                            x       y       z     vdW  Elec       q    Type
REMARK                         _______ _______ _______ _____ _____    ______ ____
ROOT
ATOM      1  C   UNL     1       1.736   7.782  20.297  0.00  0.00    +0.000 A 
ATOM      2  C   UNL     1       1.663   6.526  20.904  0.00  0.00    +0.000 A 
ATOM      3  C   UNL     1       2.178   5.390  20.264  0.00  0.00    +0.000 A 
ATOM      4  C   UNL     1       2.763   5.455  18.990  0.00  0.00    +0.000 A 
ATOM      5  C   UNL     1       2.783   6.714  18.378  0.00  0.00    +0.000 A 
ATOM      6  C   UNL     1       2.273   7.855  19.010  0.00  0.00    +0.000 A 
ENDROOT
BRANCH   4   7
ATOM      7  N   UNL     1       3.254   4.324  18.375  0.00  0.00    +0.000 N 
ATOM      8  C   UNL     1       4.431   3.597  18.876  0.00  0.00    +0.000 C 
ATOM      9  C   UNL     1       4.034   2.201  19.406  0.00  0.00    +0.000 C 
ATOM     10  N   UNL     1       3.294   1.394  18.415  0.00  0.00    +0.000 NA
ATOM     11  C   UNL     1       2.106   2.149  17.971  0.00  0.00    +0.000 C 
ATOM     12  C   UNL     1       2.423   3.564  17.421  0.00  0.00    +0.000 C 
ATOM     13  H   UNL     1       2.993   0.524  18.850  0.00  0.00    +0.000 HD
ENDBRANCH   4   7
BRANCH   1  15
ATOM     14  C   UNL     1      -0.015   9.175  21.351  0.00  0.00    +0.000 C 
ATOM     15  C   UNL     1       1.271   8.961  21.037  0.00  0.00    +0.000 C 
BRANCH  14  17
ATOM     16  O   UNL     1      -0.316  10.657  23.140  0.00  0.00    +0.000 OA
ATOM     17  C   UNL     1      -0.438  10.469  21.933  0.00  0.00    +0.000 C 
ATOM     18  N   UNL     1      -0.895  11.425  21.044  0.00  0.00    +0.000 N 
ATOM     19  C   UNL     1      -1.224  11.203  19.635  0.00  0.00    +0.000 C 
ATOM     20  C   UNL     1      -0.433  12.163  18.752  0.00  0.00    +0.000 C 
ATOM     21  C   UNL     1      -0.629  13.615  19.194  0.00  0.00    +0.000 C 
ATOM     22  C   UNL     1      -0.357  13.788  20.690  0.00  0.00    +0.000 C 
ATOM     23  C   UNL     1      -1.147  12.779  21.524  0.00  0.00    +0.000 C 
ENDBRANCH  14  17
ENDBRANCH   1  15
TORSDOF 3
ENDMDL
MODEL 8
REMARK VINA RESULT:      -7.3      2.658      8.725
REMARK  Name = 
REMARK  3 active torsions:
REMARK  status: ('A' for Active; 'I' for Inactive)
REMARK    1  A    between atoms: C_2  and  C_3
REMARK    2  A    between atoms: C_4  and  C_5
REMARK    3  A    between atoms: C_8  and  N_9
REMARK                            x       y       z     vdW  Elec       q    Type
REMARK                         _______ _______ _______ _____ _____    ______ ____
ROOT
ATOM      1  C   UNL     1       1.599   6.932  20.513  0.00  0.00    +0.000 A 
ATOM      2  C   UNL     1       1.705   5.589  20.884  0.00  0.00    +0.000 A 
ATOM      3  C   UNL     1       2.582   4.727  20.211  0.00  0.00    +0.000 A 
ATOM      4  C   UNL     1       3.368   5.159  19.131  0.00  0.00    +0.000 A 
ATOM      5  C   UNL     1       3.212   6.495  18.744  0.00  0.00    +0.000 A 
ATOM      6  C   UNL     1       2.340   7.365  19.411  0.00  0.00    +0.000 A 
ENDROOT
BRANCH   4   7
ATOM      7  N   UNL     1       4.216   4.292  18.478  0.00  0.00    +0.000 N 
ATOM      8  C   UNL     1       3.930   3.764  17.135  0.00  0.00    +0.000 C 
ATOM      9  C   UNL     1       4.938   4.312  16.099  0.00  0.00    +0.000 C 
ATOM     10  N   UNL     1       6.344   4.069  16.476  0.00  0.00    +0.000 NA
ATOM     11  C   UNL     1       6.591   4.648  17.811  0.00  0.00    +0.000 C 
ATOM     12  C   UNL     1       5.620   4.144  18.910  0.00  0.00    +0.000 C 
ATOM     13  H   UNL     1       6.955   4.522  15.798  0.00  0.00    +0.000 HD
ENDBRANCH   4   7
BRANCH   1  15
ATOM     14  C   UNL     1       1.068   9.091  21.596  0.00  0.00    +0.000 C 
ATOM     15  C   UNL     1       0.740   7.825  21.300  0.00  0.00    +0.000 C 
BRANCH  14  17
ATOM     16  O   UNL     1       0.321   9.640  23.748  0.00  0.00    +0.000 OA
ATOM     17  C   UNL     1       0.245   9.874  22.545  0.00  0.00    +0.000 C 
ATOM     18  N   UNL     1      -0.527  10.885  22.002  0.00  0.00    +0.000 N 
ATOM     19  C   UNL     1      -0.792  11.097  20.578  0.00  0.00    +0.000 C 
ATOM     20  C   UNL     1      -0.391  12.513  20.172  0.00  0.00    +0.000 C 
ATOM     21  C   UNL     1      -1.057  13.557  21.070  0.00  0.00    +0.000 C 
ATOM     22  C   UNL     1      -0.829  13.253  22.552  0.00  0.00    +0.000 C 
ATOM     23  C   UNL     1      -1.212  11.814  22.895  0.00  0.00    +0.000 C 
ENDBRANCH  14  17
ENDBRANCH   1  15
TORSDOF 3
ENDMDL
MODEL 9
REMARK VINA RESULT:      -7.3      3.196      9.053
REMARK  Name = 
REMARK  3 active torsions:
REMARK  status: ('A' for Active; 'I' for Inactive)
REMARK    1  A    between atoms: C_2  and  C_3
REMARK    2  A    between atoms: C_4  and  C_5
REMARK    3  A    between atoms: C_8  and  N_9
REMARK                            x       y       z     vdW  Elec       q    Type
REMARK                         _______ _______ _______ _____ _____    ______ ____
ROOT
ATOM      1  C   UNL     1       1.449   9.152  19.028  0.00  0.00    +0.000 A 
ATOM      2  C   UNL     1       2.107   9.017  17.803  0.00  0.00    +0.000 A 
ATOM      3  C   UNL     1       2.854   7.867  17.513  0.00  0.00    +0.000 A 
ATOM      4  C   UNL     1       2.993   6.818  18.436  0.00  0.00    +0.000 A 
ATOM      5  C   UNL     1       2.366   6.993  19.676  0.00  0.00    +0.000 A 
ATOM      6  C   UNL     1       1.617   8.138  19.974  0.00  0.00    +0.000 A 
ENDROOT
BRANCH   4   7
ATOM      7  N   UNL     1       3.739   5.701  18.134  0.00  0.00    +0.000 N 
ATOM      8  C   UNL     1       5.198   5.746  17.952  0.00  0.00    +0.000 C 
ATOM      9  C   UNL     1       5.921   4.978  19.082  0.00  0.00    +0.000 C 
ATOM     10  N   UNL     1       5.449   3.587  19.230  0.00  0.00    +0.000 NA
ATOM     11  C   UNL     1       3.988   3.596  19.446  0.00  0.00    +0.000 C 
ATOM     12  C   UNL     1       3.190   4.347  18.350  0.00  0.00    +0.000 C 
ATOM     13  H   UNL     1       5.903   3.163  20.037  0.00  0.00    +0.000 HD
ENDBRANCH   4   7
BRANCH   1  15
ATOM     14  C   UNL     1      -0.694  10.249  19.597  0.00  0.00    +0.000 C 
ATOM     15  C   UNL     1       0.602  10.328  19.259  0.00  0.00    +0.000 C 
BRANCH  14  17
ATOM     16  O   UNL     1      -2.092  11.848  18.609  0.00  0.00    +0.000 OA
ATOM     17  C   UNL     1      -1.532  11.468  19.633  0.00  0.00    +0.000 C 
ATOM     18  N   UNL     1      -1.681  12.077  20.866  0.00  0.00    +0.000 N 
ATOM     19  C   UNL     1      -0.908  11.779  22.073  0.00  0.00    +0.000 C 
ATOM     20  C   UNL     1      -1.845  11.423  23.224  0.00  0.00    +0.000 C 
ATOM     21  C   UNL     1      -2.900  12.510  23.438  0.00  0.00    +0.000 C 
ATOM     22  C   UNL     1      -3.626  12.853  22.136  0.00  0.00    +0.000 C 
ATOM     23  C   UNL     1      -2.641  13.166  21.010  0.00  0.00    +0.000 C 
ENDBRANCH  14  17
ENDBRANCH   1  15
TORSDOF 3
ENDMDL
