MODEL 1
REMARK VINA RESULT:      -8.5      0.000      0.000
REMARK  Name = 
REMARK  10 active torsions:
REMARK  status: ('A' for Active; 'I' for Inactive)
REMARK    1  A    between atoms: C_1  and  O_2
REMARK    2  A    between atoms: O_2  and  C_3
REMARK    3  A    between atoms: C_3  and  C_5
REMARK    4  A    between atoms: C_5  and  C_6
REMARK    5  A    between atoms: C_6  and  C_7
REMARK    6  A    between atoms: C_6  and  C_18
REMARK    7  A    between atoms: C_7  and  C_8
REMARK    8  A    between atoms: C_8  and  C_9
REMARK    9  A    between atoms: C_12  and  C_13
REMARK   10  A    between atoms: C_22  and  C_23
REMARK                            x       y       z     vdW  Elec       q    Type
REMARK                         _______ _______ _______ _____ _____    ______ ____
ROOT
ATOM      1  C   UNL     1       3.064   3.823  17.834  0.00  0.00    +0.000 C 
ENDROOT
BRANCH   1   2
ATOM      2  C   UNL     1       4.556   4.036  17.604  0.00  0.00    +0.000 A 
ATOM      3  C   UNL     1       5.476   4.340  18.621  0.00  0.00    +0.000 A 
ATOM      4  C   UNL     1       6.796   4.679  18.311  0.00  0.00    +0.000 A 
ATOM      5  C   UNL     1       7.223   4.710  16.982  0.00  0.00    +0.000 A 
ATOM      6  C   UNL     1       6.329   4.380  15.961  0.00  0.00    +0.000 A 
ATOM      7  C   UNL     1       5.011   4.037  16.276  0.00  0.00    +0.000 A 
BRANCH   6   8
ATOM      8  C   UNL     1       6.726   4.437  14.528  0.00  0.00    +0.000 C 
ATOM      9  N   UNL     1       6.292   3.603  13.638  0.00  0.00    +0.000 NA
ATOM     10  N   UNL     1       7.594   5.397  14.094  0.00  0.00    +0.000 N 
ATOM     11  H   UNL     1       5.613   2.948  14.038  0.00  0.00    +0.000 HD
ATOM     12  H   UNL     1       8.330   5.665  14.733  0.00  0.00    +0.000 HD
ATOM     13  H   UNL     1       7.938   5.185  13.163  0.00  0.00    +0.000 HD
ENDBRANCH   6   8
ENDBRANCH   1   2
BRANCH   1  14
ATOM     14  C   UNL     1       2.748   2.914  19.019  0.00  0.00    +0.000 C 
BRANCH  14  15
ATOM     15  C   UNL     1       1.276   2.732  19.267  0.00  0.00    +0.000 C 
ATOM     16  O   UNL     1       0.538   2.198  18.442  0.00  0.00    +0.000 OA
BRANCH  15  18
ATOM     17  C   UNL     1       1.573   2.747  21.620  0.00  0.00    +0.000 C 
ATOM     18  O   UNL     1       0.906   3.252  20.457  0.00  0.00    +0.000 OA
ENDBRANCH  15  18
ENDBRANCH  14  15
ENDBRANCH   1  14
BRANCH   1  19
ATOM     19  C   UNL     1       2.353   5.202  17.921  0.00  0.00    +0.000 C 
BRANCH  19  20
ATOM     20  C   UNL     1       2.774   6.052  19.131  0.00  0.00    +0.000 C 
BRANCH  20  21
ATOM     21  C   UNL     1       2.214   7.449  19.100  0.00  0.00    +0.000 A 
ATOM     22  C   UNL     1       2.261   8.204  17.921  0.00  0.00    +0.000 A 
ATOM     23  C   UNL     1       1.707   9.486  17.884  0.00  0.00    +0.000 A 
ATOM     24  C   UNL     1       1.105  10.025  19.026  0.00  0.00    +0.000 A 
ATOM     25  C   UNL     1       1.064   9.277  20.207  0.00  0.00    +0.000 A 
ATOM     26  C   UNL     1       1.617   7.995  20.242  0.00  0.00    +0.000 A 
BRANCH  24  27
ATOM     27  C   UNL     1       0.533  11.400  18.985  0.00  0.00    +0.000 C 
ATOM     28  N   UNL     1       1.025  12.349  18.254  0.00  0.00    +0.000 NA
ATOM     29  N   UNL     1      -0.570  11.711  19.722  0.00  0.00    +0.000 N 
ATOM     30  H   UNL     1       1.874  12.049  17.771  0.00  0.00    +0.000 HD
ATOM     31  H   UNL     1      -1.262  10.979  19.827  0.00  0.00    +0.000 HD
ATOM     32  H   UNL     1      -0.971  12.591  19.413  0.00  0.00    +0.000 HD
ENDBRANCH  24  27
ENDBRANCH  20  21
ENDBRANCH  19  20
ENDBRANCH   1  19
TORSDOF 9
ENDMDL
MODEL 2
REMARK VINA RESULT:      -8.2      2.119      2.907
REMARK  Name = 
REMARK  10 active torsions:
REMARK  status: ('A' for Active; 'I' for Inactive)
REMARK    1  A    between atoms: C_1  and  O_2
REMARK    2  A    between atoms: O_2  and  C_3
REMARK    3  A    between atoms: C_3  and  C_5
REMARK    4  A    between atoms: C_5  and  C_6
REMARK    5  A    between atoms: C_6  and  C_7
REMARK    6  A    between atoms: C_6  and  C_18
REMARK    7  A    between atoms: C_7  and  C_8
REMARK    8  A    between atoms: C_8  and  C_9
REMARK    9  A    between atoms: C_12  and  C_13
REMARK   10  A    between atoms: C_22  and  C_23
REMARK                            x       y       z     vdW  Elec       q    Type
REMARK                         _______ _______ _______ _____ _____    ______ ____
ROOT
ATOM      1  C   UNL     1       3.134   5.086  17.622  0.00  0.00    +0.000 C 
ENDROOT
BRANCH   1   2
ATOM      2  C   UNL     1       4.609   5.020  17.242  0.00  0.00    +0.000 A 
ATOM      3  C   UNL     1       5.109   4.307  16.139  0.00  0.00    +0.000 A 
ATOM      4  C   UNL     1       6.487   4.162  15.949  0.00  0.00    +0.000 A 
ATOM      5  C   UNL     1       7.387   4.733  16.851  0.00  0.00    +0.000 A 
ATOM      6  C   UNL     1       6.906   5.470  17.935  0.00  0.00    +0.000 A 
ATOM      7  C   UNL     1       5.529   5.618  18.118  0.00  0.00    +0.000 A 
BRANCH   6   8
ATOM      8  C   UNL     1       7.826   6.064  18.943  0.00  0.00    +0.000 C 
ATOM      9  N   UNL     1       8.355   7.239  18.815  0.00  0.00    +0.000 NA
ATOM     10  N   UNL     1       8.157   5.364  20.066  0.00  0.00    +0.000 N 
ATOM     11  H   UNL     1       8.018   7.712  17.971  0.00  0.00    +0.000 HD
ATOM     12  H   UNL     1       8.254   4.362  19.964  0.00  0.00    +0.000 HD
ATOM     13  H   UNL     1       8.945   5.790  20.544  0.00  0.00    +0.000 HD
ENDBRANCH   6   8
ENDBRANCH   1   2
BRANCH   1  14
ATOM     14  C   UNL     1       2.526   3.727  17.961  0.00  0.00    +0.000 C 
BRANCH  14  15
ATOM     15  C   UNL     1       2.886   3.228  19.333  0.00  0.00    +0.000 C 
ATOM     16  O   UNL     1       4.015   2.824  19.603  0.00  0.00    +0.000 OA
BRANCH  15  18
ATOM     17  C   UNL     1       2.079   3.618  21.529  0.00  0.00    +0.000 C 
ATOM     18  O   UNL     1       1.824   3.259  20.166  0.00  0.00    +0.000 OA
ENDBRANCH  15  18
ENDBRANCH  14  15
ENDBRANCH   1  14
BRANCH   1  19
ATOM     19  C   UNL     1       2.938   6.136  18.750  0.00  0.00    +0.000 C 
BRANCH  19  20
ATOM     20  C   UNL     1       2.601   7.548  18.245  0.00  0.00    +0.000 C 
BRANCH  20  21
ATOM     21  C   UNL     1       1.824   8.366  19.242  0.00  0.00    +0.000 A 
ATOM     22  C   UNL     1       1.246   9.583  18.861  0.00  0.00    +0.000 A 
ATOM     23  C   UNL     1       0.494  10.323  19.776  0.00  0.00    +0.000 A 
ATOM     24  C   UNL     1       0.316   9.853  21.082  0.00  0.00    +0.000 A 
ATOM     25  C   UNL     1       0.899   8.641  21.468  0.00  0.00    +0.000 A 
ATOM     26  C   UNL     1       1.649   7.903  20.551  0.00  0.00    +0.000 A 
BRANCH  24  27
ATOM     27  C   UNL     1      -0.472  10.655  22.059  0.00  0.00    +0.000 C 
ATOM     28  N   UNL     1      -0.386  10.491  23.341  0.00  0.00    +0.000 NA
ATOM     29  N   UNL     1      -1.322  11.628  21.627  0.00  0.00    +0.000 N 
ATOM     30  H   UNL     1       0.234   9.714  23.579  0.00  0.00    +0.000 HD
ATOM     31  H   UNL     1      -1.033  12.146  20.807  0.00  0.00    +0.000 HD
ATOM     32  H   UNL     1      -1.597  12.231  22.397  0.00  0.00    +0.000 HD
ENDBRANCH  24  27
ENDBRANCH  20  21
ENDBRANCH  19  20
ENDBRANCH   1  19
TORSDOF 9
ENDMDL
MODEL 3
REMARK VINA RESULT:      -8.2      1.724      2.483
REMARK  Name = 
REMARK  10 active torsions:
REMARK  status: ('A' for Active; 'I' for Inactive)
REMARK    1  A    between atoms: C_1  and  O_2
REMARK    2  A    between atoms: O_2  and  C_3
REMARK    3  A    between atoms: C_3  and  C_5
REMARK    4  A    between atoms: C_5  and  C_6
REMARK    5  A    between atoms: C_6  and  C_7
REMARK    6  A    between atoms: C_6  and  C_18
REMARK    7  A    between atoms: C_7  and  C_8
REMARK    8  A    between atoms: C_8  and  C_9
REMARK    9  A    between atoms: C_12  and  C_13
REMARK   10  A    between atoms: C_22  and  C_23
REMARK                            x       y       z     vdW  Elec       q    Type
REMARK                         _______ _______ _______ _____ _____    ______ ____
ROOT
ATOM      1  C   UNL     1       3.183   4.268  17.888  0.00  0.00    +0.000 C 
ENDROOT
BRANCH   1   2
ATOM      2  C   UNL     1       4.619   4.514  17.437  0.00  0.00    +0.000 A 
ATOM      3  C   UNL     1       5.158   4.047  16.227  0.00  0.00    +0.000 A 
ATOM      4  C   UNL     1       6.524   4.174  15.958  0.00  0.00    +0.000 A 
ATOM      5  C   UNL     1       7.372   4.778  16.889  0.00  0.00    +0.000 A 
ATOM      6  C   UNL     1       6.847   5.274  18.083  0.00  0.00    +0.000 A 
ATOM      7  C   UNL     1       5.480   5.150  18.345  0.00  0.00    +0.000 A 
BRANCH   6   8
ATOM      8  C   UNL     1       7.718   5.889  19.122  0.00  0.00    +0.000 C 
ATOM      9  N   UNL     1       7.916   5.358  20.286  0.00  0.00    +0.000 NA
ATOM     10  N   UNL     1       8.349   7.073  18.875  0.00  0.00    +0.000 N 
ATOM     11  H   UNL     1       7.445   4.452  20.370  0.00  0.00    +0.000 HD
ATOM     12  H   UNL     1       7.846   7.747  18.312  0.00  0.00    +0.000 HD
ATOM     13  H   UNL     1       8.722   7.474  19.729  0.00  0.00    +0.000 HD
ENDBRANCH   6   8
ENDBRANCH   1   2
BRANCH   1  14
ATOM     14  C   UNL     1       3.074   3.457  19.177  0.00  0.00    +0.000 C 
BRANCH  14  15
ATOM     15  C   UNL     1       1.714   2.856  19.400  0.00  0.00    +0.000 C 
ATOM     16  O   UNL     1       1.193   2.103  18.581  0.00  0.00    +0.000 OA
BRANCH  15  18
ATOM     17  C   UNL     1       1.623   2.637  21.761  0.00  0.00    +0.000 C 
ATOM     18  O   UNL     1       1.170   3.278  20.562  0.00  0.00    +0.000 OA
ENDBRANCH  15  18
ENDBRANCH  14  15
ENDBRANCH   1  14
BRANCH   1  19
ATOM     19  C   UNL     1       2.424   5.622  17.957  0.00  0.00    +0.000 C 
BRANCH  19  20
ATOM     20  C   UNL     1       2.640   6.399  19.265  0.00  0.00    +0.000 C 
BRANCH  20  21
ATOM     21  C   UNL     1       2.047   7.782  19.239  0.00  0.00    +0.000 A 
ATOM     22  C   UNL     1       1.413   8.302  20.374  0.00  0.00    +0.000 A 
ATOM     23  C   UNL     1       0.896   9.600  20.360  0.00  0.00    +0.000 A 
ATOM     24  C   UNL     1       1.007  10.388  19.209  0.00  0.00    +0.000 A 
ATOM     25  C   UNL     1       1.633   9.869  18.071  0.00  0.00    +0.000 A 
ATOM     26  C   UNL     1       2.150   8.572  18.087  0.00  0.00    +0.000 A 
BRANCH  24  27
ATOM     27  C   UNL     1       0.439  11.765  19.194  0.00  0.00    +0.000 C 
ATOM     28  N   UNL     1      -0.300  12.235  20.147  0.00  0.00    +0.000 NA
ATOM     29  N   UNL     1       0.698  12.608  18.155  0.00  0.00    +0.000 N 
ATOM     30  H   UNL     1      -0.485  11.528  20.862  0.00  0.00    +0.000 HD
ATOM     31  H   UNL     1       1.617  12.537  17.737  0.00  0.00    +0.000 HD
ATOM     32  H   UNL     1       0.448  13.561  18.396  0.00  0.00    +0.000 HD
ENDBRANCH  24  27
ENDBRANCH  20  21
ENDBRANCH  19  20
ENDBRANCH   1  19
TORSDOF 9
ENDMDL
MODEL 4
REMARK VINA RESULT:      -8.2      1.066      1.757
REMARK  Name = 
REMARK  10 active torsions:
REMARK  status: ('A' for Active; 'I' for Inactive)
REMARK    1  A    between atoms: C_1  and  O_2
REMARK    2  A    between atoms: O_2  and  C_3
REMARK    3  A    between atoms: C_3  and  C_5
REMARK    4  A    between atoms: C_5  and  C_6
REMARK    5  A    between atoms: C_6  and  C_7
REMARK    6  A    between atoms: C_6  and  C_18
REMARK    7  A    between atoms: C_7  and  C_8
REMARK    8  A    between atoms: C_8  and  C_9
REMARK    9  A    between atoms: C_12  and  C_13
REMARK   10  A    between atoms: C_22  and  C_23
REMARK                            x       y       z     vdW  Elec       q    Type
REMARK                         _______ _______ _______ _____ _____    ______ ____
ROOT
ATOM      1  C   UNL     1       3.355   3.635  17.493  0.00  0.00    +0.000 C 
ENDROOT
BRANCH   1   2
ATOM      2  C   UNL     1       4.824   3.975  17.266  0.00  0.00    +0.000 A 
ATOM      3  C   UNL     1       5.711   4.362  18.284  0.00  0.00    +0.000 A 
ATOM      4  C   UNL     1       6.998   4.813  17.976  0.00  0.00    +0.000 A 
ATOM      5  C   UNL     1       7.423   4.876  16.647  0.00  0.00    +0.000 A 
ATOM      6  C   UNL     1       6.564   4.466  15.626  0.00  0.00    +0.000 A 
ATOM      7  C   UNL     1       5.280   4.011  15.939  0.00  0.00    +0.000 A 
BRANCH   6   8
ATOM      8  C   UNL     1       6.959   4.552  14.193  0.00  0.00    +0.000 C 
ATOM      9  N   UNL     1       7.826   5.405  13.747  0.00  0.00    +0.000 NA
ATOM     10  N   UNL     1       6.397   3.715  13.275  0.00  0.00    +0.000 N 
ATOM     11  H   UNL     1       8.230   5.961  14.507  0.00  0.00    +0.000 HD
ATOM     12  H   UNL     1       5.426   3.472  13.417  0.00  0.00    +0.000 HD
ATOM     13  H   UNL     1       6.591   4.026  12.328  0.00  0.00    +0.000 HD
ENDBRANCH   6   8
ENDBRANCH   1   2
BRANCH   1  14
ATOM     14  C   UNL     1       3.133   2.265  18.131  0.00  0.00    +0.000 C 
BRANCH  14  15
ATOM     15  C   UNL     1       2.991   2.311  19.627  0.00  0.00    +0.000 C 
ATOM     16  O   UNL     1       3.966   2.382  20.372  0.00  0.00    +0.000 OA
BRANCH  15  18
ATOM     17  C   UNL     1       1.337   2.880  21.229  0.00  0.00    +0.000 C 
ATOM     18  O   UNL     1       1.697   2.229  20.005  0.00  0.00    +0.000 OA
ENDBRANCH  15  18
ENDBRANCH  14  15
ENDBRANCH   1  14
BRANCH   1  19
ATOM     19  C   UNL     1       2.674   4.788  18.281  0.00  0.00    +0.000 C 
BRANCH  19  20
ATOM     20  C   UNL     1       3.124   6.194  17.855  0.00  0.00    +0.000 C 
BRANCH  20  21
ATOM     21  C   UNL     1       2.388   7.296  18.570  0.00  0.00    +0.000 A 
ATOM     22  C   UNL     1       2.133   7.201  19.943  0.00  0.00    +0.000 A 
ATOM     23  C   UNL     1       1.482   8.241  20.612  0.00  0.00    +0.000 A 
ATOM     24  C   UNL     1       1.078   9.383  19.912  0.00  0.00    +0.000 A 
ATOM     25  C   UNL     1       1.324   9.477  18.538  0.00  0.00    +0.000 A 
ATOM     26  C   UNL     1       1.975   8.437  17.871  0.00  0.00    +0.000 A 
BRANCH  24  27
ATOM     27  C   UNL     1       0.369  10.481  20.626  0.00  0.00    +0.000 C 
ATOM     28  N   UNL     1       0.635  10.818  21.848  0.00  0.00    +0.000 NA
ATOM     29  N   UNL     1      -0.602  11.201  19.996  0.00  0.00    +0.000 N 
ATOM     30  H   UNL     1       1.338  10.200  22.262  0.00  0.00    +0.000 HD
ATOM     31  H   UNL     1      -0.463  11.374  19.009  0.00  0.00    +0.000 HD
ATOM     32  H   UNL     1      -0.816  12.045  20.518  0.00  0.00    +0.000 HD
ENDBRANCH  24  27
ENDBRANCH  20  21
ENDBRANCH  19  20
ENDBRANCH   1  19
TORSDOF 9
ENDMDL
MODEL 5
REMARK VINA RESULT:      -8.2      1.365      1.947
REMARK  Name = 
REMARK  10 active torsions:
REMARK  status: ('A' for Active; 'I' for Inactive)
REMARK    1  A    between atoms: C_1  and  O_2
REMARK    2  A    between atoms: O_2  and  C_3
REMARK    3  A    between atoms: C_3  and  C_5
REMARK    4  A    between atoms: C_5  and  C_6
REMARK    5  A    between atoms: C_6  and  C_7
REMARK    6  A    between atoms: C_6  and  C_18
REMARK    7  A    between atoms: C_7  and  C_8
REMARK    8  A    between atoms: C_8  and  C_9
REMARK    9  A    between atoms: C_12  and  C_13
REMARK   10  A    between atoms: C_22  and  C_23
REMARK                            x       y       z     vdW  Elec       q    Type
REMARK                         _______ _______ _______ _____ _____    ______ ____
ROOT
ATOM      1  C   UNL     1       2.844   4.622  17.611  0.00  0.00    +0.000 C 
ENDROOT
BRANCH   1   2
ATOM      2  C   UNL     1       4.361   4.554  17.469  0.00  0.00    +0.000 A 
ATOM      3  C   UNL     1       5.261   4.721  18.534  0.00  0.00    +0.000 A 
ATOM      4  C   UNL     1       6.637   4.805  18.299  0.00  0.00    +0.000 A 
ATOM      5  C   UNL     1       7.136   4.716  16.999  0.00  0.00    +0.000 A 
ATOM      6  C   UNL     1       6.257   4.519  15.932  0.00  0.00    +0.000 A 
ATOM      7  C   UNL     1       4.883   4.430  16.172  0.00  0.00    +0.000 A 
BRANCH   6   8
ATOM      8  C   UNL     1       6.739   4.457  14.525  0.00  0.00    +0.000 C 
ATOM      9  N   UNL     1       6.349   3.555  13.681  0.00  0.00    +0.000 NA
ATOM     10  N   UNL     1       7.642   5.372  14.068  0.00  0.00    +0.000 N 
ATOM     11  H   UNL     1       5.640   2.940  14.091  0.00  0.00    +0.000 HD
ATOM     12  H   UNL     1       8.342   5.686  14.727  0.00  0.00    +0.000 HD
ATOM     13  H   UNL     1       8.038   5.082  13.179  0.00  0.00    +0.000 HD
ENDBRANCH   6   8
ENDBRANCH   1   2
BRANCH   1  14
ATOM     14  C   UNL     1       2.185   3.260  17.811  0.00  0.00    +0.000 C 
BRANCH  14  15
ATOM     15  C   UNL     1       2.979   2.325  18.681  0.00  0.00    +0.000 C 
ATOM     16  O   UNL     1       3.593   1.367  18.217  0.00  0.00    +0.000 OA
BRANCH  15  18
ATOM     17  C   UNL     1       1.590   2.590  20.585  0.00  0.00    +0.000 C 
ATOM     18  O   UNL     1       2.888   2.665  19.985  0.00  0.00    +0.000 OA
ENDBRANCH  15  18
ENDBRANCH  14  15
ENDBRANCH   1  14
BRANCH   1  19
ATOM     19  C   UNL     1       2.474   5.644  18.721  0.00  0.00    +0.000 C 
BRANCH  19  20
ATOM     20  C   UNL     1       2.573   7.114  18.283  0.00  0.00    +0.000 C 
BRANCH  20  21
ATOM     21  C   UNL     1       1.883   8.063  19.227  0.00  0.00    +0.000 A 
ATOM     22  C   UNL     1       1.734   7.732  20.579  0.00  0.00    +0.000 A 
ATOM     23  C   UNL     1       1.127   8.630  21.461  0.00  0.00    +0.000 A 
ATOM     24  C   UNL     1       0.661   9.864  20.996  0.00  0.00    +0.000 A 
ATOM     25  C   UNL     1       0.801  10.194  19.644  0.00  0.00    +0.000 A 
ATOM     26  C   UNL     1       1.409   9.296  18.765  0.00  0.00    +0.000 A 
BRANCH  24  27
ATOM     27  C   UNL     1      -0.002  10.810  21.937  0.00  0.00    +0.000 C 
ATOM     28  N   UNL     1      -0.330  10.489  23.148  0.00  0.00    +0.000 NA
ATOM     29  N   UNL     1      -0.279  12.088  21.552  0.00  0.00    +0.000 N 
ATOM     30  H   UNL     1      -0.133   9.504  23.341  0.00  0.00    +0.000 HD
ATOM     31  H   UNL     1       0.391  12.525  20.931  0.00  0.00    +0.000 HD
ATOM     32  H   UNL     1      -0.505  12.663  22.357  0.00  0.00    +0.000 HD
ENDBRANCH  24  27
ENDBRANCH  20  21
ENDBRANCH  19  20
ENDBRANCH   1  19
TORSDOF 9
ENDMDL
MODEL 6
REMARK VINA RESULT:      -8.2      3.534      5.358
REMARK  Name = 
REMARK  10 active torsions:
REMARK  status: ('A' for Active; 'I' for Inactive)
REMARK    1  A    between atoms: C_1  and  O_2
REMARK    2  A    between atoms: O_2  and  C_3
REMARK    3  A    between atoms: C_3  and  C_5
REMARK    4  A    between atoms: C_5  and  C_6
REMARK    5  A    between atoms: C_6  and  C_7
REMARK    6  A    between atoms: C_6  and  C_18
REMARK    7  A    between atoms: C_7  and  C_8
REMARK    8  A    between atoms: C_8  and  C_9
REMARK    9  A    between atoms: C_12  and  C_13
REMARK   10  A    between atoms: C_22  and  C_23
REMARK                            x       y       z     vdW  Elec       q    Type
REMARK                         _______ _______ _______ _____ _____    ______ ____
ROOT
ATOM      1  C   UNL     1       4.982   4.616  17.633  0.00  0.00    +0.000 C 
ENDROOT
BRANCH   1   2
ATOM      2  C   UNL     1       3.673   3.971  18.078  0.00  0.00    +0.000 A 
ATOM      3  C   UNL     1       2.502   3.945  17.303  0.00  0.00    +0.000 A 
ATOM      4  C   UNL     1       1.300   3.478  17.842  0.00  0.00    +0.000 A 
ATOM      5  C   UNL     1       1.248   3.023  19.161  0.00  0.00    +0.000 A 
ATOM      6  C   UNL     1       2.410   3.015  19.936  0.00  0.00    +0.000 A 
ATOM      7  C   UNL     1       3.611   3.476  19.391  0.00  0.00    +0.000 A 
BRANCH   6   8
ATOM      8  C   UNL     1       2.396   2.576  21.358  0.00  0.00    +0.000 C 
ATOM      9  N   UNL     1       3.396   1.982  21.927  0.00  0.00    +0.000 NA
ATOM     10  N   UNL     1       1.291   2.786  22.130  0.00  0.00    +0.000 N 
ATOM     11  H   UNL     1       4.197   1.906  21.292  0.00  0.00    +0.000 HD
ATOM     12  H   UNL     1       0.394   2.708  21.669  0.00  0.00    +0.000 HD
ATOM     13  H   UNL     1       1.340   2.252  22.992  0.00  0.00    +0.000 HD
ENDBRANCH   6   8
ENDBRANCH   1   2
BRANCH   1  14
ATOM     14  C   UNL     1       5.295   4.409  16.153  0.00  0.00    +0.000 C 
BRANCH  14  15
ATOM     15  C   UNL     1       6.764   4.442  15.836  0.00  0.00    +0.000 C 
ATOM     16  O   UNL     1       7.616   4.595  16.709  0.00  0.00    +0.000 OA
BRANCH  15  18
ATOM     17  C   UNL     1       5.878   3.914  13.700  0.00  0.00    +0.000 C 
ATOM     18  O   UNL     1       6.988   4.320  14.509  0.00  0.00    +0.000 OA
ENDBRANCH  15  18
ENDBRANCH  14  15
ENDBRANCH   1  14
BRANCH   1  19
ATOM     19  C   UNL     1       4.989   6.112  18.052  0.00  0.00    +0.000 C 
BRANCH  19  20
ATOM     20  C   UNL     1       3.978   6.984  17.290  0.00  0.00    +0.000 C 
BRANCH  20  21
ATOM     21  C   UNL     1       2.955   7.628  18.186  0.00  0.00    +0.000 A 
ATOM     22  C   UNL     1       2.645   7.062  19.428  0.00  0.00    +0.000 A 
ATOM     23  C   UNL     1       1.722   7.681  20.275  0.00  0.00    +0.000 A 
ATOM     24  C   UNL     1       1.098   8.871  19.884  0.00  0.00    +0.000 A 
ATOM     25  C   UNL     1       1.399   9.435  18.639  0.00  0.00    +0.000 A 
ATOM     26  C   UNL     1       2.323   8.815  17.795  0.00  0.00    +0.000 A 
BRANCH  24  27
ATOM     27  C   UNL     1       0.101   9.517  20.782  0.00  0.00    +0.000 C 
ATOM     28  N   UNL     1      -0.076   9.160  22.015  0.00  0.00    +0.000 NA
ATOM     29  N   UNL     1      -0.670  10.546  20.332  0.00  0.00    +0.000 N 
ATOM     30  H   UNL     1       0.505   8.354  22.258  0.00  0.00    +0.000 HD
ATOM     31  H   UNL     1      -0.232  11.182  19.676  0.00  0.00    +0.000 HD
ATOM     32  H   UNL     1      -1.116  11.025  21.107  0.00  0.00    +0.000 HD
ENDBRANCH  24  27
ENDBRANCH  20  21
ENDBRANCH  19  20
ENDBRANCH   1  19
TORSDOF 9
ENDMDL
MODEL 7
REMARK VINA RESULT:      -8.2      0.739      1.225
REMARK  Name = 
REMARK  10 active torsions:
REMARK  status: ('A' for Active; 'I' for Inactive)
REMARK    1  A    between atoms: C_1  and  O_2
REMARK    2  A    between atoms: O_2  and  C_3
REMARK    3  A    between atoms: C_3  and  C_5
REMARK    4  A    between atoms: C_5  and  C_6
REMARK    5  A    between atoms: C_6  and  C_7
REMARK    6  A    between atoms: C_6  and  C_18
REMARK    7  A    between atoms: C_7  and  C_8
REMARK    8  A    between atoms: C_8  and  C_9
REMARK    9  A    between atoms: C_12  and  C_13
REMARK   10  A    between atoms: C_22  and  C_23
REMARK                            x       y       z     vdW  Elec       q    Type
REMARK                         _______ _______ _______ _____ _____    ______ ____
ROOT
ATOM      1  C   UNL     1       3.179   3.597  17.962  0.00  0.00    +0.000 C 
ENDROOT
BRANCH   1   2
ATOM      2  C   UNL     1       4.647   3.927  17.709  0.00  0.00    +0.000 A 
ATOM      3  C   UNL     1       5.546   4.337  18.707  0.00  0.00    +0.000 A 
ATOM      4  C   UNL     1       6.831   4.775  18.373  0.00  0.00    +0.000 A 
ATOM      5  C   UNL     1       7.241   4.804  17.038  0.00  0.00    +0.000 A 
ATOM      6  C   UNL     1       6.369   4.371  16.037  0.00  0.00    +0.000 A 
ATOM      7  C   UNL     1       5.088   3.928  16.377  0.00  0.00    +0.000 A 
BRANCH   6   8
ATOM      8  C   UNL     1       6.748   4.420  14.599  0.00  0.00    +0.000 C 
ATOM      9  N   UNL     1       6.259   3.615  13.709  0.00  0.00    +0.000 NA
ATOM     10  N   UNL     1       7.656   5.337  14.159  0.00  0.00    +0.000 N 
ATOM     11  H   UNL     1       5.553   2.992  14.115  0.00  0.00    +0.000 HD
ATOM     12  H   UNL     1       8.414   5.563  14.789  0.00  0.00    +0.000 HD
ATOM     13  H   UNL     1       7.975   5.116  13.221  0.00  0.00    +0.000 HD
ENDBRANCH   6   8
ENDBRANCH   1   2
BRANCH   1  14
ATOM     14  C   UNL     1       2.947   2.745  19.208  0.00  0.00    +0.000 C 
BRANCH  14  15
ATOM     15  C   UNL     1       1.494   2.525  19.528  0.00  0.00    +0.000 C 
ATOM     16  O   UNL     1       0.673   2.238  18.660  0.00  0.00    +0.000 OA
BRANCH  15  18
ATOM     17  C   UNL     1       2.054   3.679  21.523  0.00  0.00    +0.000 C 
ATOM     18  O   UNL     1       1.242   2.717  20.841  0.00  0.00    +0.000 OA
ENDBRANCH  15  18
ENDBRANCH  14  15
ENDBRANCH   1  14
BRANCH   1  19
ATOM     19  C   UNL     1       2.347   4.909  17.961  0.00  0.00    +0.000 C 
BRANCH  19  20
ATOM     20  C   UNL     1       3.185   6.186  18.132  0.00  0.00    +0.000 C 
BRANCH  20  21
ATOM     21  C   UNL     1       2.384   7.360  18.628  0.00  0.00    +0.000 A 
ATOM     22  C   UNL     1       2.024   7.451  19.978  0.00  0.00    +0.000 A 
ATOM     23  C   UNL     1       1.312   8.559  20.445  0.00  0.00    +0.000 A 
ATOM     24  C   UNL     1       0.952   9.585  19.563  0.00  0.00    +0.000 A 
ATOM     25  C   UNL     1       1.302   9.493  18.212  0.00  0.00    +0.000 A 
ATOM     26  C   UNL     1       2.015   8.385  17.748  0.00  0.00    +0.000 A 
BRANCH  24  27
ATOM     27  C   UNL     1       0.178  10.755  20.062  0.00  0.00    +0.000 C 
ATOM     28  N   UNL     1      -0.887  11.201  19.475  0.00  0.00    +0.000 NA
ATOM     29  N   UNL     1       0.563  11.405  21.197  0.00  0.00    +0.000 N 
ATOM     30  H   UNL     1      -1.080  10.691  18.611  0.00  0.00    +0.000 HD
ATOM     31  H   UNL     1       0.963  10.832  21.929  0.00  0.00    +0.000 HD
ATOM     32  H   UNL     1      -0.179  12.012  21.531  0.00  0.00    +0.000 HD
ENDBRANCH  24  27
ENDBRANCH  20  21
ENDBRANCH  19  20
ENDBRANCH   1  19
TORSDOF 9
ENDMDL
MODEL 8
REMARK VINA RESULT:      -8.2      1.251      7.268
REMARK  Name = 
REMARK  10 active torsions:
REMARK  status: ('A' for Active; 'I' for Inactive)
REMARK    1  A    between atoms: C_1  and  O_2
REMARK    2  A    between atoms: O_2  and  C_3
REMARK    3  A    between atoms: C_3  and  C_5
REMARK    4  A    between atoms: C_5  and  C_6
REMARK    5  A    between atoms: C_6  and  C_7
REMARK    6  A    between atoms: C_6  and  C_18
REMARK    7  A    between atoms: C_7  and  C_8
REMARK    8  A    between atoms: C_8  and  C_9
REMARK    9  A    between atoms: C_12  and  C_13
REMARK   10  A    between atoms: C_22  and  C_23
REMARK                            x       y       z     vdW  Elec       q    Type
REMARK                         _______ _______ _______ _____ _____    ______ ____
ROOT
ATOM      1  C   UNL     1       2.753   5.550  19.577  0.00  0.00    +0.000 C 
ENDROOT
BRANCH   1   2
ATOM      2  C   UNL     1       2.198   6.947  19.319  0.00  0.00    +0.000 A 
ATOM      3  C   UNL     1       2.323   7.633  18.100  0.00  0.00    +0.000 A 
ATOM      4  C   UNL     1       1.931   8.971  17.991  0.00  0.00    +0.000 A 
ATOM      5  C   UNL     1       1.400   9.642  19.095  0.00  0.00    +0.000 A 
ATOM      6  C   UNL     1       1.241   8.965  20.305  0.00  0.00    +0.000 A 
ATOM      7  C   UNL     1       1.629   7.626  20.408  0.00  0.00    +0.000 A 
BRANCH   6   8
ATOM      8  C   UNL     1       0.716   9.649  21.518  0.00  0.00    +0.000 C 
ATOM      9  N   UNL     1       1.234   9.500  22.696  0.00  0.00    +0.000 NA
ATOM     10  N   UNL     1      -0.365  10.475  21.427  0.00  0.00    +0.000 N 
ATOM     11  H   UNL     1       2.067   8.904  22.667  0.00  0.00    +0.000 HD
ATOM     12  H   UNL     1      -1.083  10.211  20.764  0.00  0.00    +0.000 HD
ATOM     13  H   UNL     1      -0.739  10.692  22.345  0.00  0.00    +0.000 HD
ENDBRANCH   6   8
ENDBRANCH   1   2
BRANCH   1  14
ATOM     14  C   UNL     1       2.079   4.459  18.747  0.00  0.00    +0.000 C 
BRANCH  14  15
ATOM     15  C   UNL     1       1.241   3.512  19.561  0.00  0.00    +0.000 C 
ATOM     16  O   UNL     1       0.545   2.645  19.038  0.00  0.00    +0.000 OA
BRANCH  15  18
ATOM     17  C   UNL     1       1.678   2.671  21.736  0.00  0.00    +0.000 C 
ATOM     18  O   UNL     1       1.342   3.771  20.883  0.00  0.00    +0.000 OA
ENDBRANCH  15  18
ENDBRANCH  14  15
ENDBRANCH   1  14
BRANCH   1  19
ATOM     19  C   UNL     1       4.298   5.569  19.412  0.00  0.00    +0.000 C 
BRANCH  19  20
ATOM     20  C   UNL     1       4.894   4.245  18.909  0.00  0.00    +0.000 C 
BRANCH  20  21
ATOM     21  C   UNL     1       5.500   4.350  17.535  0.00  0.00    +0.000 A 
ATOM     22  C   UNL     1       4.704   4.181  16.396  0.00  0.00    +0.000 A 
ATOM     23  C   UNL     1       5.259   4.315  15.121  0.00  0.00    +0.000 A 
ATOM     24  C   UNL     1       6.618   4.617  14.975  0.00  0.00    +0.000 A 
ATOM     25  C   UNL     1       7.418   4.778  16.111  0.00  0.00    +0.000 A 
ATOM     26  C   UNL     1       6.860   4.645  17.384  0.00  0.00    +0.000 A 
BRANCH  24  27
ATOM     27  C   UNL     1       7.209   4.741  13.614  0.00  0.00    +0.000 C 
ATOM     28  N   UNL     1       6.852   3.996  12.617  0.00  0.00    +0.000 NA
ATOM     29  N   UNL     1       8.162   5.682  13.358  0.00  0.00    +0.000 N 
ATOM     30  H   UNL     1       6.171   3.289  12.903  0.00  0.00    +0.000 HD
ATOM     31  H   UNL     1       8.067   6.562  13.848  0.00  0.00    +0.000 HD
ATOM     32  H   UNL     1       8.288   5.800  12.358  0.00  0.00    +0.000 HD
ENDBRANCH  24  27
ENDBRANCH  20  21
ENDBRANCH  19  20
ENDBRANCH   1  19
TORSDOF 9
ENDMDL
MODEL 9
REMARK VINA RESULT:      -8.2      1.917      2.514
REMARK  Name = 
REMARK  10 active torsions:
REMARK  status: ('A' for Active; 'I' for Inactive)
REMARK    1  A    between atoms: C_1  and  O_2
REMARK    2  A    between atoms: O_2  and  C_3
REMARK    3  A    between atoms: C_3  and  C_5
REMARK    4  A    between atoms: C_5  and  C_6
REMARK    5  A    between atoms: C_6  and  C_7
REMARK    6  A    between atoms: C_6  and  C_18
REMARK    7  A    between atoms: C_7  and  C_8
REMARK    8  A    between atoms: C_8  and  C_9
REMARK    9  A    between atoms: C_12  and  C_13
REMARK   10  A    between atoms: C_22  and  C_23
REMARK                            x       y       z     vdW  Elec       q    Type
REMARK                         _______ _______ _______ _____ _____    ______ ____
ROOT
ATOM      1  C   UNL     1       3.405   3.830  18.007  0.00  0.00    +0.000 C 
ENDROOT
BRANCH   1   2
ATOM      2  C   UNL     1       4.761   4.277  17.471  0.00  0.00    +0.000 A 
ATOM      3  C   UNL     1       5.251   3.956  16.195  0.00  0.00    +0.000 A 
ATOM      4  C   UNL     1       6.566   4.266  15.837  0.00  0.00    +0.000 A 
ATOM      5  C   UNL     1       7.411   4.909  16.744  0.00  0.00    +0.000 A 
ATOM      6  C   UNL     1       6.930   5.262  18.006  0.00  0.00    +0.000 A 
ATOM      7  C   UNL     1       5.612   4.956  18.358  0.00  0.00    +0.000 A 
BRANCH   6   8
ATOM      8  C   UNL     1       7.804   5.913  19.019  0.00  0.00    +0.000 C 
ATOM      9  N   UNL     1       8.323   7.089  18.858  0.00  0.00    +0.000 NA
ATOM     10  N   UNL     1       8.103   5.268  20.184  0.00  0.00    +0.000 N 
ATOM     11  H   UNL     1       8.011   7.519  17.982  0.00  0.00    +0.000 HD
ATOM     12  H   UNL     1       8.217   4.264  20.130  0.00  0.00    +0.000 HD
ATOM     13  H   UNL     1       8.868   5.726  20.670  0.00  0.00    +0.000 HD
ENDBRANCH   6   8
ENDBRANCH   1   2
BRANCH   1  14
ATOM     14  C   UNL     1       3.469   3.208  19.399  0.00  0.00    +0.000 C 
BRANCH  14  15
ATOM     15  C   UNL     1       2.249   2.405  19.760  0.00  0.00    +0.000 C 
ATOM     16  O   UNL     1       1.714   1.640  18.961  0.00  0.00    +0.000 OA
BRANCH  15  18
ATOM     17  C   UNL     1       2.213   3.936  21.572  0.00  0.00    +0.000 C 
ATOM     18  O   UNL     1       1.837   2.669  21.018  0.00  0.00    +0.000 OA
ENDBRANCH  15  18
ENDBRANCH  14  15
ENDBRANCH   1  14
BRANCH   1  19
ATOM     19  C   UNL     1       2.399   5.012  17.916  0.00  0.00    +0.000 C 
BRANCH  19  20
ATOM     20  C   UNL     1       3.060   6.392  17.779  0.00  0.00    +0.000 C 
BRANCH  20  21
ATOM     21  C   UNL     1       2.355   7.469  18.560  0.00  0.00    +0.000 A 
ATOM     22  C   UNL     1       1.908   8.630  17.919  0.00  0.00    +0.000 A 
ATOM     23  C   UNL     1       1.221   9.612  18.638  0.00  0.00    +0.000 A 
ATOM     24  C   UNL     1       0.979   9.441  20.006  0.00  0.00    +0.000 A 
ATOM     25  C   UNL     1       1.433   8.286  20.651  0.00  0.00    +0.000 A 
ATOM     26  C   UNL     1       2.118   7.305  19.930  0.00  0.00    +0.000 A 
BRANCH  24  27
ATOM     27  C   UNL     1       0.262  10.499  20.771  0.00  0.00    +0.000 C 
ATOM     28  N   UNL     1       0.404  10.668  22.047  0.00  0.00    +0.000 NA
ATOM     29  N   UNL     1      -0.578  11.363  20.134  0.00  0.00    +0.000 N 
ATOM     30  H   UNL     1       1.011   9.953  22.454  0.00  0.00    +0.000 HD
ATOM     31  H   UNL     1      -0.313  11.639  19.197  0.00  0.00    +0.000 HD
ATOM     32  H   UNL     1      -0.799  12.153  20.731  0.00  0.00    +0.000 HD
ENDBRANCH  24  27
ENDBRANCH  20  21
ENDBRANCH  19  20
ENDBRANCH   1  19
TORSDOF 9
ENDMDL
