MODEL 1
REMARK VINA RESULT:      -7.7      0.000      0.000
REMARK  Name = 
REMARK  2 active torsions:
REMARK  status: ('A' for Active; 'I' for Inactive)
REMARK    1  A    between atoms: C_2  and  C_3
REMARK    2  A    between atoms: C_6  and  C_8
REMARK                            x       y       z     vdW  Elec       q    Type
REMARK                         _______ _______ _______ _____ _____    ______ ____
ROOT
ATOM      1  C   UNL     1       3.661   5.185  19.045  0.00  0.00    +0.000 A 
ATOM      2  C   UNL     1       3.918   5.946  17.895  0.00  0.00    +0.000 A 
ATOM      3  N   UNL     1       4.711   5.664  16.797  0.00  0.00    +0.000 N 
ATOM      4  C   UNL     1       5.049   4.382  16.275  0.00  0.00    +0.000 C 
ATOM      5  O   UNL     1       4.595   3.386  16.809  0.00  0.00    +0.000 OA
ATOM      6  N   UNL     1       3.327   7.225  17.806  0.00  0.00    +0.000 N 
ATOM      7  O   UNL     1       3.629   7.931  16.770  0.00  0.00    +0.000 OA
ATOM      8  C   UNL     1       2.442   7.706  18.791  0.00  0.00    +0.000 A 
ATOM      9  C   UNL     1       1.813   8.973  18.690  0.00  0.00    +0.000 A 
ATOM     10  C   UNL     1       0.927   9.413  19.679  0.00  0.00    +0.000 A 
ATOM     11  C   UNL     1       0.671   8.608  20.778  0.00  0.00    +0.000 A 
ATOM     12  F   UNL     1      -0.174   9.028  21.726  0.00  0.00    +0.000 F 
ATOM     13  C   UNL     1       1.282   7.369  20.906  0.00  0.00    +0.000 A 
ATOM     14  C   UNL     1       2.169   6.898  19.911  0.00  0.00    +0.000 A 
ATOM     15  N   UNL     1       2.793   5.644  20.034  0.00  0.00    +0.000 N 
ATOM     16  O   UNL     1       2.560   4.938  21.068  0.00  0.00    +0.000 OA
ATOM     17  H   UNL     1       4.867   6.482  16.192  0.00  0.00    +0.000 HD
ENDROOT
BRANCH   4  18
ATOM     18  C   UNL     1       5.835   4.397  15.069  0.00  0.00    +0.000 A 
ATOM     19  C   UNL     1       5.672   3.714  13.878  0.00  0.00    +0.000 A 
ATOM     20  C   UNL     1       6.674   4.185  12.997  0.00  0.00    +0.000 A 
ATOM     21  C   UNL     1       7.403   5.109  13.708  0.00  0.00    +0.000 A 
ATOM     22  O   UNL     1       6.915   5.234  14.974  0.00  0.00    +0.000 OA
ENDBRANCH   4  18
BRANCH   1  24
ATOM     23  N   UNL     1       4.850   2.972  19.674  0.00  0.00    +0.000 NA
ATOM     24  C   UNL     1       4.339   3.969  19.378  0.00  0.00    +0.000 C 
ENDBRANCH   1  24
TORSDOF 2
ENDMDL
MODEL 2
REMARK VINA RESULT:      -7.3      3.029      6.936
REMARK  Name = 
REMARK  2 active torsions:
REMARK  status: ('A' for Active; 'I' for Inactive)
REMARK    1  A    between atoms: C_2  and  C_3
REMARK    2  A    between atoms: C_6  and  C_8
REMARK                            x       y       z     vdW  Elec       q    Type
REMARK                         _______ _______ _______ _____ _____    ______ ____
ROOT
ATOM      1  C   UNL     1       2.536   5.093  18.959  0.00  0.00    +0.000 A 
ATOM      2  C   UNL     1       2.607   6.480  18.757  0.00  0.00    +0.000 A 
ATOM      3  N   UNL     1       1.940   7.509  19.396  0.00  0.00    +0.000 N 
ATOM      4  C   UNL     1       1.429   7.522  20.725  0.00  0.00    +0.000 C 
ATOM      5  O   UNL     1       1.591   6.543  21.432  0.00  0.00    +0.000 OA
ATOM      6  N   UNL     1       3.451   6.952  17.728  0.00  0.00    +0.000 N 
ATOM      7  O   UNL     1       3.451   8.225  17.520  0.00  0.00    +0.000 OA
ATOM      8  C   UNL     1       4.263   6.083  16.973  0.00  0.00    +0.000 A 
ATOM      9  C   UNL     1       5.143   6.554  15.965  0.00  0.00    +0.000 A 
ATOM     10  C   UNL     1       5.947   5.665  15.245  0.00  0.00    +0.000 A 
ATOM     11  C   UNL     1       5.873   4.306  15.508  0.00  0.00    +0.000 A 
ATOM     12  F   UNL     1       6.639   3.453  14.819  0.00  0.00    +0.000 F 
ATOM     13  C   UNL     1       5.012   3.819  16.482  0.00  0.00    +0.000 A 
ATOM     14  C   UNL     1       4.202   4.701  17.232  0.00  0.00    +0.000 A 
ATOM     15  N   UNL     1       3.327   4.215  18.220  0.00  0.00    +0.000 N 
ATOM     16  O   UNL     1       3.259   2.959  18.420  0.00  0.00    +0.000 OA
ATOM     17  H   UNL     1       2.043   8.414  18.915  0.00  0.00    +0.000 HD
ENDROOT
BRANCH   4  18
ATOM     18  C   UNL     1       0.846   8.768  21.149  0.00  0.00    +0.000 A 
ATOM     19  C   UNL     1       0.106   9.081  22.274  0.00  0.00    +0.000 A 
ATOM     20  C   UNL     1      -0.122  10.477  22.236  0.00  0.00    +0.000 A 
ATOM     21  C   UNL     1       0.470  10.929  21.081  0.00  0.00    +0.000 A 
ATOM     22  O   UNL     1       1.046   9.899  20.402  0.00  0.00    +0.000 OA
ENDBRANCH   4  18
BRANCH   1  24
ATOM     23  N   UNL     1       0.793   3.909  20.465  0.00  0.00    +0.000 NA
ATOM     24  C   UNL     1       1.585   4.449  19.813  0.00  0.00    +0.000 C 
ENDBRANCH   1  24
TORSDOF 2
ENDMDL
MODEL 3
REMARK VINA RESULT:      -7.3      2.494      3.886
REMARK  Name = 
REMARK  2 active torsions:
REMARK  status: ('A' for Active; 'I' for Inactive)
REMARK    1  A    between atoms: C_2  and  C_3
REMARK    2  A    between atoms: C_6  and  C_8
REMARK                            x       y       z     vdW  Elec       q    Type
REMARK                         _______ _______ _______ _____ _____    ______ ____
ROOT
ATOM      1  C   UNL     1       3.610   5.698  17.957  0.00  0.00    +0.000 A 
ATOM      2  C   UNL     1       4.064   4.557  17.280  0.00  0.00    +0.000 A 
ATOM      3  N   UNL     1       4.812   4.446  16.121  0.00  0.00    +0.000 N 
ATOM      4  C   UNL     1       5.750   5.382  15.598  0.00  0.00    +0.000 C 
ATOM      5  O   UNL     1       5.972   6.408  16.218  0.00  0.00    +0.000 OA
ATOM      6  N   UNL     1       3.701   3.295  17.798  0.00  0.00    +0.000 N 
ATOM      7  O   UNL     1       4.076   2.262  17.122  0.00  0.00    +0.000 OA
ATOM      8  C   UNL     1       2.976   3.164  18.999  0.00  0.00    +0.000 A 
ATOM      9  C   UNL     1       2.641   1.900  19.547  0.00  0.00    +0.000 A 
ATOM     10  C   UNL     1       1.934   1.806  20.750  0.00  0.00    +0.000 A 
ATOM     11  C   UNL     1       1.542   2.962  21.407  0.00  0.00    +0.000 A 
ATOM     12  F   UNL     1       0.863   2.875  22.556  0.00  0.00    +0.000 F 
ATOM     13  C   UNL     1       1.848   4.211  20.886  0.00  0.00    +0.000 A 
ATOM     14  C   UNL     1       2.575   4.329  19.680  0.00  0.00    +0.000 A 
ATOM     15  N   UNL     1       2.888   5.591  19.144  0.00  0.00    +0.000 N 
ATOM     16  O   UNL     1       2.490   6.636  19.755  0.00  0.00    +0.000 OA
ATOM     17  H   UNL     1       4.836   3.487  15.748  0.00  0.00    +0.000 HD
ENDROOT
BRANCH   4  18
ATOM     18  C   UNL     1       6.440   4.963  14.406  0.00  0.00    +0.000 A 
ATOM     19  C   UNL     1       6.104   4.017  13.455  0.00  0.00    +0.000 A 
ATOM     20  C   UNL     1       7.090   4.090  12.443  0.00  0.00    +0.000 A 
ATOM     21  C   UNL     1       7.981   5.056  12.847  0.00  0.00    +0.000 A 
ATOM     22  O   UNL     1       7.608   5.582  14.046  0.00  0.00    +0.000 OA
ENDBRANCH   4  18
BRANCH   1  24
ATOM     23  N   UNL     1       3.757   8.122  17.057  0.00  0.00    +0.000 NA
ATOM     24  C   UNL     1       3.717   7.033  17.454  0.00  0.00    +0.000 C 
ENDBRANCH   1  24
TORSDOF 2
ENDMDL
MODEL 4
REMARK VINA RESULT:      -7.2      3.242      3.701
REMARK  Name = 
REMARK  2 active torsions:
REMARK  status: ('A' for Active; 'I' for Inactive)
REMARK    1  A    between atoms: C_2  and  C_3
REMARK    2  A    between atoms: C_6  and  C_8
REMARK                            x       y       z     vdW  Elec       q    Type
REMARK                         _______ _______ _______ _____ _____    ______ ____
ROOT
ATOM      1  C   UNL     1       5.181   4.762  18.135  0.00  0.00    +0.000 A 
ATOM      2  C   UNL     1       4.652   4.236  16.947  0.00  0.00    +0.000 A 
ATOM      3  N   UNL     1       5.148   4.274  15.656  0.00  0.00    +0.000 N 
ATOM      4  C   UNL     1       6.511   4.366  15.251  0.00  0.00    +0.000 C 
ATOM      5  O   UNL     1       7.382   4.398  16.103  0.00  0.00    +0.000 OA
ATOM      6  N   UNL     1       3.399   3.587  17.015  0.00  0.00    +0.000 N 
ATOM      7  O   UNL     1       2.905   3.168  15.899  0.00  0.00    +0.000 OA
ATOM      8  C   UNL     1       2.727   3.392  18.237  0.00  0.00    +0.000 A 
ATOM      9  C   UNL     1       1.489   2.706  18.318  0.00  0.00    +0.000 A 
ATOM     10  C   UNL     1       0.855   2.516  19.551  0.00  0.00    +0.000 A 
ATOM     11  C   UNL     1       1.437   3.017  20.705  0.00  0.00    +0.000 A 
ATOM     12  F   UNL     1       0.832   2.840  21.885  0.00  0.00    +0.000 F 
ATOM     13  C   UNL     1       2.643   3.702  20.651  0.00  0.00    +0.000 A 
ATOM     14  C   UNL     1       3.308   3.891  19.418  0.00  0.00    +0.000 A 
ATOM     15  N   UNL     1       4.529   4.585  19.354  0.00  0.00    +0.000 N 
ATOM     16  O   UNL     1       5.026   5.059  20.427  0.00  0.00    +0.000 OA
ATOM     17  H   UNL     1       4.460   3.975  14.952  0.00  0.00    +0.000 HD
ENDROOT
BRANCH   4  18
ATOM     18  C   UNL     1       6.736   4.306  13.830  0.00  0.00    +0.000 A 
ATOM     19  C   UNL     1       6.218   3.457  12.870  0.00  0.00    +0.000 A 
ATOM     20  C   UNL     1       6.699   3.915  11.620  0.00  0.00    +0.000 A 
ATOM     21  C   UNL     1       7.499   4.999  11.893  0.00  0.00    +0.000 A 
ATOM     22  O   UNL     1       7.544   5.237  13.233  0.00  0.00    +0.000 OA
ENDBRANCH   4  18
BRANCH   1  24
ATOM     23  N   UNL     1       7.239   6.325  18.297  0.00  0.00    +0.000 NA
ATOM     24  C   UNL     1       6.326   5.617  18.201  0.00  0.00    +0.000 C 
ENDBRANCH   1  24
TORSDOF 2
ENDMDL
MODEL 5
REMARK VINA RESULT:      -7.1      4.650      6.411
REMARK  Name = 
REMARK  2 active torsions:
REMARK  status: ('A' for Active; 'I' for Inactive)
REMARK    1  A    between atoms: C_2  and  C_3
REMARK    2  A    between atoms: C_6  and  C_8
REMARK                            x       y       z     vdW  Elec       q    Type
REMARK                         _______ _______ _______ _____ _____    ______ ____
ROOT
ATOM      1  C   UNL     1       1.142   9.522  19.711  0.00  0.00    +0.000 A 
ATOM      2  C   UNL     1       0.641   8.655  20.693  0.00  0.00    +0.000 A 
ATOM      3  N   UNL     1       0.746   7.280  20.806  0.00  0.00    +0.000 N 
ATOM      4  C   UNL     1       1.783   6.443  20.303  0.00  0.00    +0.000 C 
ATOM      5  O   UNL     1       2.721   6.950  19.714  0.00  0.00    +0.000 OA
ATOM      6  N   UNL     1      -0.131   9.215  21.735  0.00  0.00    +0.000 N 
ATOM      7  O   UNL     1      -0.634   8.390  22.589  0.00  0.00    +0.000 OA
ATOM      8  C   UNL     1      -0.333  10.605  21.846  0.00  0.00    +0.000 A 
ATOM      9  C   UNL     1      -1.073  11.178  22.911  0.00  0.00    +0.000 A 
ATOM     10  C   UNL     1      -1.242  12.564  23.001  0.00  0.00    +0.000 A 
ATOM     11  C   UNL     1      -0.692  13.385  22.029  0.00  0.00    +0.000 A 
ATOM     12  F   UNL     1      -0.854  14.711  22.111  0.00  0.00    +0.000 F 
ATOM     13  C   UNL     1       0.028  12.848  20.971  0.00  0.00    +0.000 A 
ATOM     14  C   UNL     1       0.223  11.452  20.870  0.00  0.00    +0.000 A 
ATOM     15  N   UNL     1       0.950  10.900  19.800  0.00  0.00    +0.000 N 
ATOM     16  O   UNL     1       1.420  11.677  18.907  0.00  0.00    +0.000 OA
ATOM     17  H   UNL     1       0.120   6.887  21.522  0.00  0.00    +0.000 HD
ENDROOT
BRANCH   4  18
ATOM     18  C   UNL     1       1.667   5.048  20.642  0.00  0.00    +0.000 A 
ATOM     19  C   UNL     1       0.869   4.054  20.107  0.00  0.00    +0.000 A 
ATOM     20  C   UNL     1       1.238   2.847  20.747  0.00  0.00    +0.000 A 
ATOM     21  C   UNL     1       2.221   3.179  21.650  0.00  0.00    +0.000 A 
ATOM     22  O   UNL     1       2.478   4.516  21.608  0.00  0.00    +0.000 OA
ENDBRANCH   4  18
BRANCH   1  24
ATOM     23  N   UNL     1       2.252   8.790  17.489  0.00  0.00    +0.000 NA
ATOM     24  C   UNL     1       1.762   9.094  18.494  0.00  0.00    +0.000 C 
ENDBRANCH   1  24
TORSDOF 2
ENDMDL
MODEL 6
REMARK VINA RESULT:      -6.9      7.283     10.795
REMARK  Name = 
REMARK  2 active torsions:
REMARK  status: ('A' for Active; 'I' for Inactive)
REMARK    1  A    between atoms: C_2  and  C_3
REMARK    2  A    between atoms: C_6  and  C_8
REMARK                            x       y       z     vdW  Elec       q    Type
REMARK                         _______ _______ _______ _____ _____    ______ ____
ROOT
ATOM      1  C   UNL     1      -0.826  11.238  20.276  0.00  0.00    +0.000 A 
ATOM      2  C   UNL     1      -1.895  12.066  20.650  0.00  0.00    +0.000 A 
ATOM      3  N   UNL     1      -2.084  12.815  21.797  0.00  0.00    +0.000 N 
ATOM      4  C   UNL     1      -1.086  13.375  22.645  0.00  0.00    +0.000 C 
ATOM      5  O   UNL     1       0.089  13.222  22.359  0.00  0.00    +0.000 OA
ATOM      6  N   UNL     1      -2.995  12.158  19.769  0.00  0.00    +0.000 N 
ATOM      7  O   UNL     1      -3.993  12.874  20.163  0.00  0.00    +0.000 OA
ATOM      8  C   UNL     1      -3.002  11.513  18.517  0.00  0.00    +0.000 A 
ATOM      9  C   UNL     1      -4.085  11.633  17.609  0.00  0.00    +0.000 A 
ATOM     10  C   UNL     1      -4.053  10.992  16.367  0.00  0.00    +0.000 A 
ATOM     11  C   UNL     1      -2.955  10.218  16.024  0.00  0.00    +0.000 A 
ATOM     12  F   UNL     1      -2.923   9.601  14.837  0.00  0.00    +0.000 F 
ATOM     13  C   UNL     1      -1.887  10.076  16.898  0.00  0.00    +0.000 A 
ATOM     14  C   UNL     1      -1.892  10.727  18.152  0.00  0.00    +0.000 A 
ATOM     15  N   UNL     1      -0.815  10.587  19.044  0.00  0.00    +0.000 N 
ATOM     16  O   UNL     1       0.168   9.846  18.713  0.00  0.00    +0.000 OA
ATOM     17  H   UNL     1      -3.045  13.174  21.889  0.00  0.00    +0.000 HD
ENDROOT
BRANCH   4  18
ATOM     18  C   UNL     1      -1.581  14.178  23.732  0.00  0.00    +0.000 A 
ATOM     19  C   UNL     1      -2.859  14.320  24.240  0.00  0.00    +0.000 A 
ATOM     20  C   UNL     1      -2.755  15.155  25.377  0.00  0.00    +0.000 A 
ATOM     21  C   UNL     1      -1.426  15.493  25.483  0.00  0.00    +0.000 A 
ATOM     22  O   UNL     1      -0.705  14.920  24.480  0.00  0.00    +0.000 OA
ENDBRANCH   4  18
BRANCH   1  24
ATOM     23  N   UNL     1       1.158  10.568  21.800  0.00  0.00    +0.000 NA
ATOM     24  C   UNL     1       0.258  10.879  21.139  0.00  0.00    +0.000 C 
ENDBRANCH   1  24
TORSDOF 2
ENDMDL
MODEL 7
REMARK VINA RESULT:      -6.8      3.942      7.205
REMARK  Name = 
REMARK  2 active torsions:
REMARK  status: ('A' for Active; 'I' for Inactive)
REMARK    1  A    between atoms: C_2  and  C_3
REMARK    2  A    between atoms: C_6  and  C_8
REMARK                            x       y       z     vdW  Elec       q    Type
REMARK                         _______ _______ _______ _____ _____    ______ ____
ROOT
ATOM      1  C   UNL     1       6.188   5.047  17.549  0.00  0.00    +0.000 A 
ATOM      2  C   UNL     1       5.044   4.249  17.389  0.00  0.00    +0.000 A 
ATOM      3  N   UNL     1       4.119   3.818  18.323  0.00  0.00    +0.000 N 
ATOM      4  C   UNL     1       3.756   4.455  19.544  0.00  0.00    +0.000 C 
ATOM      5  O   UNL     1       4.277   5.516  19.838  0.00  0.00    +0.000 OA
ATOM      6  N   UNL     1       4.766   3.750  16.097  0.00  0.00    +0.000 N 
ATOM      7  O   UNL     1       3.746   2.968  15.988  0.00  0.00    +0.000 OA
ATOM      8  C   UNL     1       5.550   4.097  14.981  0.00  0.00    +0.000 A 
ATOM      9  C   UNL     1       5.253   3.633  13.674  0.00  0.00    +0.000 A 
ATOM     10  C   UNL     1       6.045   4.009  12.583  0.00  0.00    +0.000 A 
ATOM     11  C   UNL     1       7.140   4.833  12.784  0.00  0.00    +0.000 A 
ATOM     12  F   UNL     1       7.900   5.193  11.743  0.00  0.00    +0.000 F 
ATOM     13  C   UNL     1       7.458   5.293  14.054  0.00  0.00    +0.000 A 
ATOM     14  C   UNL     1       6.663   4.937  15.168  0.00  0.00    +0.000 A 
ATOM     15  N   UNL     1       6.980   5.398  16.458  0.00  0.00    +0.000 N 
ATOM     16  O   UNL     1       8.009   6.131  16.616  0.00  0.00    +0.000 OA
ATOM     17  H   UNL     1       3.491   3.088  17.960  0.00  0.00    +0.000 HD
ENDROOT
BRANCH   4  18
ATOM     18  C   UNL     1       2.701   3.812  20.283  0.00  0.00    +0.000 A 
ATOM     19  C   UNL     1       1.335   3.787  20.069  0.00  0.00    +0.000 A 
ATOM     20  C   UNL     1       0.786   2.917  21.041  0.00  0.00    +0.000 A 
ATOM     21  C   UNL     1       1.844   2.481  21.804  0.00  0.00    +0.000 A 
ATOM     22  O   UNL     1       3.010   3.031  21.365  0.00  0.00    +0.000 OA
ENDBRANCH   4  18
BRANCH   1  24
ATOM     23  N   UNL     1       7.182   5.756  19.833  0.00  0.00    +0.000 NA
ATOM     24  C   UNL     1       6.716   5.456  18.814  0.00  0.00    +0.000 C 
ENDBRANCH   1  24
TORSDOF 2
ENDMDL
MODEL 8
REMARK VINA RESULT:      -6.4      5.415      7.680
REMARK  Name = 
REMARK  2 active torsions:
REMARK  status: ('A' for Active; 'I' for Inactive)
REMARK    1  A    between atoms: C_2  and  C_3
REMARK    2  A    between atoms: C_6  and  C_8
REMARK                            x       y       z     vdW  Elec       q    Type
REMARK                         _______ _______ _______ _____ _____    ______ ____
ROOT
ATOM      1  C   UNL     1      -1.277  11.577  20.003  0.00  0.00    +0.000 A 
ATOM      2  C   UNL     1      -1.136  10.654  18.955  0.00  0.00    +0.000 A 
ATOM      3  N   UNL     1      -0.071   9.835  18.626  0.00  0.00    +0.000 N 
ATOM      4  C   UNL     1       0.922   9.307  19.500  0.00  0.00    +0.000 C 
ATOM      5  O   UNL     1       0.860   9.561  20.690  0.00  0.00    +0.000 OA
ATOM      6  N   UNL     1      -2.205  10.527  18.041  0.00  0.00    +0.000 N 
ATOM      7  O   UNL     1      -2.026   9.720  17.051  0.00  0.00    +0.000 OA
ATOM      8  C   UNL     1      -3.412  11.233  18.205  0.00  0.00    +0.000 A 
ATOM      9  C   UNL     1      -4.505  11.080  17.315  0.00  0.00    +0.000 A 
ATOM     10  C   UNL     1      -5.697  11.786  17.515  0.00  0.00    +0.000 A 
ATOM     11  C   UNL     1      -5.805  12.655  18.589  0.00  0.00    +0.000 A 
ATOM     12  F   UNL     1      -6.942  13.333  18.782  0.00  0.00    +0.000 F 
ATOM     13  C   UNL     1      -4.747  12.831  19.469  0.00  0.00    +0.000 A 
ATOM     14  C   UNL     1      -3.540  12.116  19.294  0.00  0.00    +0.000 A 
ATOM     15  N   UNL     1      -2.462  12.290  20.180  0.00  0.00    +0.000 N 
ATOM     16  O   UNL     1      -2.581  13.117  21.141  0.00  0.00    +0.000 OA
ATOM     17  H   UNL     1      -0.169   9.402  17.698  0.00  0.00    +0.000 HD
ENDROOT
BRANCH   4  18
ATOM     18  C   UNL     1       1.871   8.415  18.886  0.00  0.00    +0.000 A 
ATOM     19  C   UNL     1       2.581   8.526  17.705  0.00  0.00    +0.000 A 
ATOM     20  C   UNL     1       3.447   7.409  17.644  0.00  0.00    +0.000 A 
ATOM     21  C   UNL     1       3.199   6.671  18.777  0.00  0.00    +0.000 A 
ATOM     22  O   UNL     1       2.231   7.261  19.532  0.00  0.00    +0.000 OA
ENDBRANCH   4  18
BRANCH   1  24
ATOM     23  N   UNL     1       0.630  12.333  21.583  0.00  0.00    +0.000 NA
ATOM     24  C   UNL     1      -0.219  11.969  20.882  0.00  0.00    +0.000 C 
ENDBRANCH   1  24
TORSDOF 2
ENDMDL
MODEL 9
REMARK VINA RESULT:      -6.3      4.676      9.397
REMARK  Name = 
REMARK  2 active torsions:
REMARK  status: ('A' for Active; 'I' for Inactive)
REMARK    1  A    between atoms: C_2  and  C_3
REMARK    2  A    between atoms: C_6  and  C_8
REMARK                            x       y       z     vdW  Elec       q    Type
REMARK                         _______ _______ _______ _____ _____    ______ ____
ROOT
ATOM      1  C   UNL     1       0.911  10.624  19.367  0.00  0.00    +0.000 A 
ATOM      2  C   UNL     1       0.395  10.244  20.616  0.00  0.00    +0.000 A 
ATOM      3  N   UNL     1      -0.352  10.966  21.529  0.00  0.00    +0.000 N 
ATOM      4  C   UNL     1      -1.234  12.053  21.266  0.00  0.00    +0.000 C 
ATOM      5  O   UNL     1      -1.400  12.417  20.114  0.00  0.00    +0.000 OA
ATOM      6  N   UNL     1       0.684   8.942  21.078  0.00  0.00    +0.000 N 
ATOM      7  O   UNL     1       0.253   8.638  22.256  0.00  0.00    +0.000 OA
ATOM      8  C   UNL     1       1.395   8.014  20.293  0.00  0.00    +0.000 A 
ATOM      9  C   UNL     1       1.655   6.691  20.734  0.00  0.00    +0.000 A 
ATOM     10  C   UNL     1       2.351   5.789  19.922  0.00  0.00    +0.000 A 
ATOM     11  C   UNL     1       2.805   6.197  18.678  0.00  0.00    +0.000 A 
ATOM     12  F   UNL     1       3.473   5.338  17.900  0.00  0.00    +0.000 F 
ATOM     13  C   UNL     1       2.573   7.489  18.227  0.00  0.00    +0.000 A 
ATOM     14  C   UNL     1       1.859   8.412  19.025  0.00  0.00    +0.000 A 
ATOM     15  N   UNL     1       1.621   9.723  18.576  0.00  0.00    +0.000 N 
ATOM     16  O   UNL     1       2.075  10.078  17.440  0.00  0.00    +0.000 OA
ATOM     17  H   UNL     1      -0.430  10.499  22.443  0.00  0.00    +0.000 HD
ENDROOT
BRANCH   4  18
ATOM     18  C   UNL     1      -1.941  12.564  22.411  0.00  0.00    +0.000 A 
ATOM     19  C   UNL     1      -1.722  13.694  23.176  0.00  0.00    +0.000 A 
ATOM     20  C   UNL     1      -2.782  13.765  24.111  0.00  0.00    +0.000 A 
ATOM     21  C   UNL     1      -3.571  12.663  23.877  0.00  0.00    +0.000 A 
ATOM     22  O   UNL     1      -3.062  11.916  22.859  0.00  0.00    +0.000 OA
ENDBRANCH   4  18
BRANCH   1  24
ATOM     23  N   UNL     1       0.890  13.054  18.472  0.00  0.00    +0.000 NA
ATOM     24  C   UNL     1       0.882  11.960  18.854  0.00  0.00    +0.000 C 
ENDBRANCH   1  24
TORSDOF 2
ENDMDL
