MODEL 1
REMARK VINA RESULT:      -8.0      0.000      0.000
REMARK  Name = 
REMARK  0 active torsions:
REMARK  status: ('A' for Active; 'I' for Inactive)
REMARK                            x       y       z     vdW  Elec       q    Type
REMARK                         _______ _______ _______ _____ _____    ______ ____
ROOT
ATOM      1  O   UNL     1       2.280   3.485  16.539  0.00  0.00    +0.000 OA
ATOM      2  C   UNL     1       2.990   3.557  17.538  0.00  0.00    +0.000 A 
ATOM      3  C   UNL     1       2.399   3.290  18.884  0.00  0.00    +0.000 A 
ATOM      4  C   UNL     1       1.041   2.969  19.001  0.00  0.00    +0.000 A 
ATOM      5  C   UNL     1       0.490   2.721  20.259  0.00  0.00    +0.000 A 
ATOM      6  C   UNL     1       1.293   2.792  21.398  0.00  0.00    +0.000 A 
ATOM      7  C   UNL     1       2.648   3.112  21.287  0.00  0.00    +0.000 A 
ATOM      8  C   UNL     1       3.211   3.364  20.030  0.00  0.00    +0.000 A 
ATOM      9  C   UNL     1       4.632   3.705  19.908  0.00  0.00    +0.000 A 
ATOM     10  C   UNL     1       5.134   3.949  18.695  0.00  0.00    +0.000 A 
ATOM     11  N   UNL     1       6.422   4.295  18.349  0.00  0.00    +0.000 N 
ATOM     12  C   UNL     1       6.460   4.400  16.956  0.00  0.00    +0.000 A 
ATOM     13  C   UNL     1       7.508   4.727  16.129  0.00  0.00    +0.000 A 
ATOM     14  C   UNL     1       7.247   4.797  14.755  0.00  0.00    +0.000 A 
ATOM     15  C   UNL     1       5.955   4.550  14.243  0.00  0.00    +0.000 A 
ATOM     16  C   UNL     1       4.891   4.226  15.091  0.00  0.00    +0.000 A 
ATOM     17  C   UNL     1       5.163   4.160  16.440  0.00  0.00    +0.000 A 
ATOM     18  N   UNL     1       4.337   3.871  17.552  0.00  0.00    +0.000 N 
ATOM     19  H   UNL     1       7.199   4.332  18.981  0.00  0.00    +0.000 HD
ENDROOT
TORSDOF 0
ENDMDL
MODEL 2
REMARK VINA RESULT:      -7.3      2.399      3.254
REMARK  Name = 
REMARK  0 active torsions:
REMARK  status: ('A' for Active; 'I' for Inactive)
REMARK                            x       y       z     vdW  Elec       q    Type
REMARK                         _______ _______ _______ _____ _____    ______ ____
ROOT
ATOM      1  O   UNL     1       5.389   3.373  19.867  0.00  0.00    +0.000 OA
ATOM      2  C   UNL     1       4.573   3.974  19.176  0.00  0.00    +0.000 A 
ATOM      3  C   UNL     1       3.182   3.442  19.045  0.00  0.00    +0.000 A 
ATOM      4  C   UNL     1       2.821   2.260  19.704  0.00  0.00    +0.000 A 
ATOM      5  C   UNL     1       1.523   1.764  19.580  0.00  0.00    +0.000 A 
ATOM      6  C   UNL     1       0.586   2.446  18.803  0.00  0.00    +0.000 A 
ATOM      7  C   UNL     1       0.942   3.626  18.144  0.00  0.00    +0.000 A 
ATOM      8  C   UNL     1       2.242   4.132  18.260  0.00  0.00    +0.000 A 
ATOM      9  C   UNL     1       2.622   5.367  17.568  0.00  0.00    +0.000 A 
ATOM     10  C   UNL     1       3.873   5.816  17.692  0.00  0.00    +0.000 A 
ATOM     11  N   UNL     1       4.446   6.935  17.128  0.00  0.00    +0.000 N 
ATOM     12  C   UNL     1       5.763   7.000  17.591  0.00  0.00    +0.000 A 
ATOM     13  C   UNL     1       6.747   7.920  17.314  0.00  0.00    +0.000 A 
ATOM     14  C   UNL     1       8.004   7.713  17.894  0.00  0.00    +0.000 A 
ATOM     15  C   UNL     1       8.253   6.598  18.722  0.00  0.00    +0.000 A 
ATOM     16  C   UNL     1       7.250   5.661  18.993  0.00  0.00    +0.000 A 
ATOM     17  C   UNL     1       6.018   5.878  18.417  0.00  0.00    +0.000 A 
ATOM     18  N   UNL     1       4.811   5.142  18.475  0.00  0.00    +0.000 N 
ATOM     19  H   UNL     1       3.957   7.628  16.594  0.00  0.00    +0.000 HD
ENDROOT
TORSDOF 0
ENDMDL
MODEL 3
REMARK VINA RESULT:      -7.3      1.427      6.095
REMARK  Name = 
REMARK  0 active torsions:
REMARK  status: ('A' for Active; 'I' for Inactive)
REMARK                            x       y       z     vdW  Elec       q    Type
REMARK                         _______ _______ _______ _____ _____    ______ ____
ROOT
ATOM      1  O   UNL     1       5.958   4.370  19.325  0.00  0.00    +0.000 OA
ATOM      2  C   UNL     1       5.255   4.192  18.335  0.00  0.00    +0.000 A 
ATOM      3  C   UNL     1       5.834   4.397  16.972  0.00  0.00    +0.000 A 
ATOM      4  C   UNL     1       7.168   4.796  16.832  0.00  0.00    +0.000 A 
ATOM      5  C   UNL     1       7.707   4.987  15.559  0.00  0.00    +0.000 A 
ATOM      6  C   UNL     1       6.917   4.779  14.428  0.00  0.00    +0.000 A 
ATOM      7  C   UNL     1       5.584   4.380  14.563  0.00  0.00    +0.000 A 
ATOM      8  C   UNL     1       5.033   4.187  15.836  0.00  0.00    +0.000 A 
ATOM      9  C   UNL     1       3.634   3.773  15.983  0.00  0.00    +0.000 A 
ATOM     10  C   UNL     1       3.138   3.608  17.211  0.00  0.00    +0.000 A 
ATOM     11  N   UNL     1       1.864   3.238  17.583  0.00  0.00    +0.000 N 
ATOM     12  C   UNL     1       1.848   3.160  18.978  0.00  0.00    +0.000 A 
ATOM     13  C   UNL     1       0.815   2.841  19.828  0.00  0.00    +0.000 A 
ATOM     14  C   UNL     1       1.077   2.881  21.203  0.00  0.00    +0.000 A 
ATOM     15  C   UNL     1       2.349   3.244  21.695  0.00  0.00    +0.000 A 
ATOM     16  C   UNL     1       3.393   3.576  20.825  0.00  0.00    +0.000 A 
ATOM     17  C   UNL     1       3.121   3.531  19.475  0.00  0.00    +0.000 A 
ATOM     18  N   UNL     1       3.927   3.807  18.345  0.00  0.00    +0.000 N 
ATOM     19  H   UNL     1       1.137   2.958  16.952  0.00  0.00    +0.000 HD
ENDROOT
TORSDOF 0
ENDMDL
MODEL 4
REMARK VINA RESULT:      -7.1      5.246      5.740
REMARK  Name = 
REMARK  0 active torsions:
REMARK  status: ('A' for Active; 'I' for Inactive)
REMARK                            x       y       z     vdW  Elec       q    Type
REMARK                         _______ _______ _______ _____ _____    ______ ____
ROOT
ATOM      1  O   UNL     1       2.320   8.942  17.287  0.00  0.00    +0.000 OA
ATOM      2  C   UNL     1       1.985   8.605  18.418  0.00  0.00    +0.000 A 
ATOM      3  C   UNL     1       1.082   9.489  19.214  0.00  0.00    +0.000 A 
ATOM      4  C   UNL     1       0.630  10.698  18.671  0.00  0.00    +0.000 A 
ATOM      5  C   UNL     1      -0.214  11.523  19.417  0.00  0.00    +0.000 A 
ATOM      6  C   UNL     1      -0.606  11.143  20.700  0.00  0.00    +0.000 A 
ATOM      7  C   UNL     1      -0.157   9.938  21.247  0.00  0.00    +0.000 A 
ATOM      8  C   UNL     1       0.690   9.102  20.508  0.00  0.00    +0.000 A 
ATOM      9  C   UNL     1       1.168   7.839  21.079  0.00  0.00    +0.000 A 
ATOM     10  C   UNL     1       1.982   7.072  20.351  0.00  0.00    +0.000 A 
ATOM     11  N   UNL     1       2.555   5.864  20.685  0.00  0.00    +0.000 N 
ATOM     12  C   UNL     1       3.291   5.436  19.577  0.00  0.00    +0.000 A 
ATOM     13  C   UNL     1       4.049   4.301  19.411  0.00  0.00    +0.000 A 
ATOM     14  C   UNL     1       4.719   4.146  18.192  0.00  0.00    +0.000 A 
ATOM     15  C   UNL     1       4.626   5.124  17.178  0.00  0.00    +0.000 A 
ATOM     16  C   UNL     1       3.860   6.281  17.356  0.00  0.00    +0.000 A 
ATOM     17  C   UNL     1       3.206   6.418  18.560  0.00  0.00    +0.000 A 
ATOM     18  N   UNL     1       2.371   7.444  19.063  0.00  0.00    +0.000 N 
ATOM     19  H   UNL     1       2.363   5.346  21.522  0.00  0.00    +0.000 HD
ENDROOT
TORSDOF 0
ENDMDL
MODEL 5
REMARK VINA RESULT:      -7.1      4.455      6.504
REMARK  Name = 
REMARK  0 active torsions:
REMARK  status: ('A' for Active; 'I' for Inactive)
REMARK                            x       y       z     vdW  Elec       q    Type
REMARK                         _______ _______ _______ _____ _____    ______ ____
ROOT
ATOM      1  O   UNL     1       3.044   8.604  17.033  0.00  0.00    +0.000 OA
ATOM      2  C   UNL     1       3.152   7.658  17.807  0.00  0.00    +0.000 A 
ATOM      3  C   UNL     1       4.061   6.523  17.463  0.00  0.00    +0.000 A 
ATOM      4  C   UNL     1       4.776   6.540  16.259  0.00  0.00    +0.000 A 
ATOM      5  C   UNL     1       5.624   5.479  15.938  0.00  0.00    +0.000 A 
ATOM      6  C   UNL     1       5.760   4.404  16.816  0.00  0.00    +0.000 A 
ATOM      7  C   UNL     1       5.048   4.382  18.019  0.00  0.00    +0.000 A 
ATOM      8  C   UNL     1       4.194   5.440  18.351  0.00  0.00    +0.000 A 
ATOM      9  C   UNL     1       3.442   5.420  19.609  0.00  0.00    +0.000 A 
ATOM     10  C   UNL     1       2.628   6.441  19.889  0.00  0.00    +0.000 A 
ATOM     11  N   UNL     1       1.826   6.625  20.994  0.00  0.00    +0.000 N 
ATOM     12  C   UNL     1       1.199   7.866  20.846  0.00  0.00    +0.000 A 
ATOM     13  C   UNL     1       0.301   8.500  21.671  0.00  0.00    +0.000 A 
ATOM     14  C   UNL     1      -0.201   9.736  21.247  0.00  0.00    +0.000 A 
ATOM     15  C   UNL     1       0.194  10.303  20.016  0.00  0.00    +0.000 A 
ATOM     16  C   UNL     1       1.102   9.648  19.177  0.00  0.00    +0.000 A 
ATOM     17  C   UNL     1       1.588   8.433  19.608  0.00  0.00    +0.000 A 
ATOM     18  N   UNL     1       2.496   7.523  19.017  0.00  0.00    +0.000 N 
ATOM     19  H   UNL     1       1.808   6.030  21.800  0.00  0.00    +0.000 HD
ENDROOT
TORSDOF 0
ENDMDL
MODEL 6
REMARK VINA RESULT:      -7.0      6.919      7.442
REMARK  Name = 
REMARK  0 active torsions:
REMARK  status: ('A' for Active; 'I' for Inactive)
REMARK                            x       y       z     vdW  Elec       q    Type
REMARK                         _______ _______ _______ _____ _____    ______ ____
ROOT
ATOM      1  O   UNL     1       0.700  11.026  18.742  0.00  0.00    +0.000 OA
ATOM      2  C   UNL     1       0.570  10.387  19.781  0.00  0.00    +0.000 A 
ATOM      3  C   UNL     1      -0.248  10.951  20.897  0.00  0.00    +0.000 A 
ATOM      4  C   UNL     1      -0.853  12.206  20.755  0.00  0.00    +0.000 A 
ATOM      5  C   UNL     1      -1.616  12.732  21.799  0.00  0.00    +0.000 A 
ATOM      6  C   UNL     1      -1.776  12.008  22.980  0.00  0.00    +0.000 A 
ATOM      7  C   UNL     1      -1.174  10.756  23.127  0.00  0.00    +0.000 A 
ATOM      8  C   UNL     1      -0.405  10.218  22.087  0.00  0.00    +0.000 A 
ATOM      9  C   UNL     1       0.233   8.907  22.237  0.00  0.00    +0.000 A 
ATOM     10  C   UNL     1       0.967   8.429  21.230  0.00  0.00    +0.000 A 
ATOM     11  N   UNL     1       1.658   7.240  21.156  0.00  0.00    +0.000 N 
ATOM     12  C   UNL     1       2.234   7.175  19.884  0.00  0.00    +0.000 A 
ATOM     13  C   UNL     1       3.023   6.198  19.326  0.00  0.00    +0.000 A 
ATOM     14  C   UNL     1       3.500   6.419  18.028  0.00  0.00    +0.000 A 
ATOM     15  C   UNL     1       3.188   7.603  17.326  0.00  0.00    +0.000 A 
ATOM     16  C   UNL     1       2.391   8.597  17.903  0.00  0.00    +0.000 A 
ATOM     17  C   UNL     1       1.929   8.366  19.180  0.00  0.00    +0.000 A 
ATOM     18  N   UNL     1       1.123   9.146  20.042  0.00  0.00    +0.000 N 
ATOM     19  H   UNL     1       1.633   6.514  21.847  0.00  0.00    +0.000 HD
ENDROOT
TORSDOF 0
ENDMDL
MODEL 7
REMARK VINA RESULT:      -6.9      4.909      6.737
REMARK  Name = 
REMARK  0 active torsions:
REMARK  status: ('A' for Active; 'I' for Inactive)
REMARK                            x       y       z     vdW  Elec       q    Type
REMARK                         _______ _______ _______ _____ _____    ______ ____
ROOT
ATOM      1  O   UNL     1       2.062   5.767  20.930  0.00  0.00    +0.000 OA
ATOM      2  C   UNL     1       2.401   6.342  19.901  0.00  0.00    +0.000 A 
ATOM      3  C   UNL     1       3.294   5.644  18.926  0.00  0.00    +0.000 A 
ATOM      4  C   UNL     1       3.745   4.346  19.196  0.00  0.00    +0.000 A 
ATOM      5  C   UNL     1       4.580   3.697  18.286  0.00  0.00    +0.000 A 
ATOM      6  C   UNL     1       4.963   4.340  17.109  0.00  0.00    +0.000 A 
ATOM      7  C   UNL     1       4.515   5.635  16.835  0.00  0.00    +0.000 A 
ATOM      8  C   UNL     1       3.678   6.297  17.742  0.00  0.00    +0.000 A 
ATOM      9  C   UNL     1       3.210   7.658  17.462  0.00  0.00    +0.000 A 
ATOM     10  C   UNL     1       2.421   8.263  18.353  0.00  0.00    +0.000 A 
ATOM     11  N   UNL     1       1.879   9.528  18.304  0.00  0.00    +0.000 N 
ATOM     12  C   UNL     1       1.092   9.684  19.448  0.00  0.00    +0.000 A 
ATOM     13  C   UNL     1       0.352  10.765  19.865  0.00  0.00    +0.000 A 
ATOM     14  C   UNL     1      -0.315  10.655  21.091  0.00  0.00    +0.000 A 
ATOM     15  C   UNL     1      -0.223   9.483  21.871  0.00  0.00    +0.000 A 
ATOM     16  C   UNL     1       0.539   8.389  21.445  0.00  0.00    +0.000 A 
ATOM     17  C   UNL     1       1.189   8.512  20.237  0.00  0.00    +0.000 A 
ATOM     18  N   UNL     1       2.029   7.620  19.528  0.00  0.00    +0.000 N 
ATOM     19  H   UNL     1       1.944  10.154  17.524  0.00  0.00    +0.000 HD
ENDROOT
TORSDOF 0
ENDMDL
MODEL 8
REMARK VINA RESULT:      -6.9      2.463      5.883
REMARK  Name = 
REMARK  0 active torsions:
REMARK  status: ('A' for Active; 'I' for Inactive)
REMARK                            x       y       z     vdW  Elec       q    Type
REMARK                         _______ _______ _______ _____ _____    ______ ____
ROOT
ATOM      1  O   UNL     1       5.840   3.793  19.800  0.00  0.00    +0.000 OA
ATOM      2  C   UNL     1       5.337   4.631  19.060  0.00  0.00    +0.000 A 
ATOM      3  C   UNL     1       6.168   5.767  18.558  0.00  0.00    +0.000 A 
ATOM      4  C   UNL     1       7.511   5.874  18.940  0.00  0.00    +0.000 A 
ATOM      5  C   UNL     1       8.286   6.935  18.472  0.00  0.00    +0.000 A 
ATOM      6  C   UNL     1       7.723   7.888  17.623  0.00  0.00    +0.000 A 
ATOM      7  C   UNL     1       6.383   7.787  17.238  0.00  0.00    +0.000 A 
ATOM      8  C   UNL     1       5.596   6.726  17.703  0.00  0.00    +0.000 A 
ATOM      9  C   UNL     1       4.189   6.618  17.307  0.00  0.00    +0.000 A 
ATOM     10  C   UNL     1       3.464   5.599  17.777  0.00  0.00    +0.000 A 
ATOM     11  N   UNL     1       2.137   5.309  17.548  0.00  0.00    +0.000 N 
ATOM     12  C   UNL     1       1.854   4.119  18.225  0.00  0.00    +0.000 A 
ATOM     13  C   UNL     1       0.673   3.420  18.315  0.00  0.00    +0.000 A 
ATOM     14  C   UNL     1       0.668   2.264  19.105  0.00  0.00    +0.000 A 
ATOM     15  C   UNL     1       1.828   1.840  19.788  0.00  0.00    +0.000 A 
ATOM     16  C   UNL     1       3.024   2.561  19.699  0.00  0.00    +0.000 A 
ATOM     17  C   UNL     1       3.014   3.695  18.917  0.00  0.00    +0.000 A 
ATOM     18  N   UNL     1       4.026   4.639  18.620  0.00  0.00    +0.000 N 
ATOM     19  H   UNL     1       1.540   5.800  16.911  0.00  0.00    +0.000 HD
ENDROOT
TORSDOF 0
ENDMDL
MODEL 9
REMARK VINA RESULT:      -6.8      5.727      7.114
REMARK  Name = 
REMARK  0 active torsions:
REMARK  status: ('A' for Active; 'I' for Inactive)
REMARK                            x       y       z     vdW  Elec       q    Type
REMARK                         _______ _______ _______ _____ _____    ______ ____
ROOT
ATOM      1  O   UNL     1       1.389   7.010  21.157  0.00  0.00    +0.000 OA
ATOM      2  C   UNL     1       1.849   7.325  20.064  0.00  0.00    +0.000 A 
ATOM      3  C   UNL     1       2.757   6.381  19.345  0.00  0.00    +0.000 A 
ATOM      4  C   UNL     1       3.084   5.148  19.924  0.00  0.00    +0.000 A 
ATOM      5  C   UNL     1       3.933   4.268  19.252  0.00  0.00    +0.000 A 
ATOM      6  C   UNL     1       4.453   4.615  18.005  0.00  0.00    +0.000 A 
ATOM      7  C   UNL     1       4.130   5.844  17.423  0.00  0.00    +0.000 A 
ATOM      8  C   UNL     1       3.280   6.736  18.089  0.00  0.00    +0.000 A 
ATOM      9  C   UNL     1       2.942   8.028  17.486  0.00  0.00    +0.000 A 
ATOM     10  C   UNL     1       2.136   8.859  18.153  0.00  0.00    +0.000 A 
ATOM     11  N   UNL     1       1.699  10.113  17.787  0.00  0.00    +0.000 N 
ATOM     12  C   UNL     1       0.842  10.561  18.796  0.00  0.00    +0.000 A 
ATOM     13  C   UNL     1       0.158  11.749  18.905  0.00  0.00    +0.000 A 
ATOM     14  C   UNL     1      -0.607  11.948  20.061  0.00  0.00    +0.000 A 
ATOM     15  C   UNL     1      -0.665  10.970  21.077  0.00  0.00    +0.000 A 
ATOM     16  C   UNL     1       0.039   9.767  20.963  0.00  0.00    +0.000 A 
ATOM     17  C   UNL     1       0.787   9.584  19.821  0.00  0.00    +0.000 A 
ATOM     18  N   UNL     1       1.607   8.512  19.397  0.00  0.00    +0.000 N 
ATOM     19  H   UNL     1       1.872  10.549  16.901  0.00  0.00    +0.000 HD
ENDROOT
TORSDOF 0
ENDMDL
