MODEL 1
REMARK VINA RESULT:      -7.8      0.000      0.000
REMARK  Name = 
REMARK  6 active torsions:
REMARK  status: ('A' for Active; 'I' for Inactive)
REMARK    1  A    between atoms: C_1  and  C_2
REMARK    2  A    between atoms: C_2  and  C_3
REMARK    3  A    between atoms: C_3  and  O_4
REMARK    4  A    between atoms: C_24  and  O_25
REMARK    5  A    between atoms: O_25  and  C_26
REMARK    6  A    between atoms: C_29  and  C_30
REMARK                            x       y       z     vdW  Elec       q    Type
REMARK                         _______ _______ _______ _____ _____    ______ ____
ROOT
ATOM      1  C   UNL     1      -2.249  12.642  20.268  0.00  0.00    +0.000 C 
ATOM      2  C   UNL     1      -2.541  12.320  21.795  0.00  0.00    +0.000 C 
ATOM      3  C   UNL     1      -1.754  13.131  22.782  0.00  0.00    +0.000 C 
ATOM      4  O   UNL     1      -2.207  14.120  23.339  0.00  0.00    +0.000 OA
ATOM      5  O   UNL     1      -0.533  12.628  23.047  0.00  0.00    +0.000 OA
ATOM      6  C   UNL     1       0.303  12.639  21.906  0.00  0.00    +0.000 C 
ATOM      7  C   UNL     1      -0.028  11.612  20.886  0.00  0.00    +0.000 A 
ATOM      8  C   UNL     1      -0.937  11.704  19.862  0.00  0.00    +0.000 A 
ATOM      9  C   UNL     1      -0.218  10.990  18.615  0.00  0.00    +0.000 A 
ATOM     10  C   UNL     1       0.609   9.881  18.823  0.00  0.00    +0.000 A 
ATOM     11  N   UNL     1       0.517   9.440  20.130  0.00  0.00    +0.000 N 
ATOM     12  C   UNL     1       0.236  10.215  21.207  0.00  0.00    +0.000 A 
ATOM     13  O   UNL     1       0.216   9.807  22.371  0.00  0.00    +0.000 OA
ATOM     14  C   UNL     1       0.677   8.025  20.258  0.00  0.00    +0.000 C 
ATOM     15  C   UNL     1       1.456   7.645  19.070  0.00  0.00    +0.000 A 
ATOM     16  C   UNL     1       1.594   8.761  18.206  0.00  0.00    +0.000 A 
ATOM     17  N   UNL     1       2.691   8.778  17.377  0.00  0.00    +0.000 NA
ATOM     18  C   UNL     1       3.501   7.580  17.265  0.00  0.00    +0.000 A 
ATOM     19  C   UNL     1       4.751   7.454  16.574  0.00  0.00    +0.000 A 
ATOM     20  C   UNL     1       5.489   6.230  16.404  0.00  0.00    +0.000 A 
ATOM     21  C   UNL     1       4.996   5.038  16.879  0.00  0.00    +0.000 A 
ATOM     22  C   UNL     1       3.842   5.123  17.637  0.00  0.00    +0.000 A 
ATOM     23  C   UNL     1       3.147   6.363  17.908  0.00  0.00    +0.000 A 
ATOM     24  C   UNL     1       2.129   6.418  18.885  0.00  0.00    +0.000 A 
ENDROOT
BRANCH  24  25
ATOM     25  C   UNL     1       1.896   5.226  19.821  0.00  0.00    +0.000 C 
ATOM     26  C   UNL     1       3.086   4.772  20.677  0.00  0.00    +0.000 C 
ATOM     27  C   UNL     1       2.639   3.753  21.718  0.00  0.00    +0.000 C 
ATOM     28  C   UNL     1       1.989   2.543  21.049  0.00  0.00    +0.000 C 
ATOM     29  C   UNL     1       0.843   2.943  20.121  0.00  0.00    +0.000 C 
ATOM     30  C   UNL     1       1.264   4.012  19.107  0.00  0.00    +0.000 C 
ENDBRANCH  24  25
BRANCH   1  32
ATOM     31  C   UNL     1      -4.371  11.872  18.659  0.00  0.00    +0.000 C 
ATOM     32  C   UNL     1      -3.755  12.795  19.724  0.00  0.00    +0.000 C 
ENDBRANCH   1  32
BRANCH   1  33
ATOM     33  O   UNL     1      -1.762  14.004  20.154  0.00  0.00    +0.000 OA
ATOM     34  H   UNL     1      -2.354  14.502  19.552  0.00  0.00    +0.000 HD
ENDBRANCH   1  33
BRANCH  21  35
ATOM     35  O   UNL     1       5.692   3.886  16.626  0.00  0.00    +0.000 OA
ATOM     36  C   UNL     1       6.258   3.682  15.311  0.00  0.00    +0.000 C 
ENDBRANCH  21  35
TORSDOF 4
ENDMDL
MODEL 2
REMARK VINA RESULT:      -7.7      0.584      1.018
REMARK  Name = 
REMARK  6 active torsions:
REMARK  status: ('A' for Active; 'I' for Inactive)
REMARK    1  A    between atoms: C_1  and  C_2
REMARK    2  A    between atoms: C_2  and  C_3
REMARK    3  A    between atoms: C_3  and  O_4
REMARK    4  A    between atoms: C_24  and  O_25
REMARK    5  A    between atoms: O_25  and  C_26
REMARK    6  A    between atoms: C_29  and  C_30
REMARK                            x       y       z     vdW  Elec       q    Type
REMARK                         _______ _______ _______ _____ _____    ______ ____
ROOT
ATOM      1  C   UNL     1      -1.983  12.176  20.224  0.00  0.00    +0.000 C 
ATOM      2  C   UNL     1      -2.295  11.755  21.722  0.00  0.00    +0.000 C 
ATOM      3  C   UNL     1      -1.539  12.518  22.771  0.00  0.00    +0.000 C 
ATOM      4  O   UNL     1      -2.021  13.462  23.380  0.00  0.00    +0.000 OA
ATOM      5  O   UNL     1      -0.314  12.021  23.028  0.00  0.00    +0.000 OA
ATOM      6  C   UNL     1       0.541  12.117  21.904  0.00  0.00    +0.000 C 
ATOM      7  C   UNL     1       0.247  11.150  20.817  0.00  0.00    +0.000 A 
ATOM      8  C   UNL     1      -0.646  11.288  19.785  0.00  0.00    +0.000 A 
ATOM      9  C   UNL     1       0.108  10.665  18.510  0.00  0.00    +0.000 A 
ATOM     10  C   UNL     1       0.951   9.560  18.665  0.00  0.00    +0.000 A 
ATOM     11  N   UNL     1       0.845   9.038  19.940  0.00  0.00    +0.000 N 
ATOM     12  C   UNL     1       0.532   9.740  21.057  0.00  0.00    +0.000 A 
ATOM     13  O   UNL     1       0.499   9.260  22.194  0.00  0.00    +0.000 OA
ATOM     14  C   UNL     1       1.029   7.621  19.984  0.00  0.00    +0.000 C 
ATOM     15  C   UNL     1       1.835   7.329  18.790  0.00  0.00    +0.000 A 
ATOM     16  C   UNL     1       1.967   8.498  17.998  0.00  0.00    +0.000 A 
ATOM     17  N   UNL     1       3.078   8.585  17.192  0.00  0.00    +0.000 NA
ATOM     18  C   UNL     1       3.912   7.411  17.022  0.00  0.00    +0.000 A 
ATOM     19  C   UNL     1       5.175   7.350  16.347  0.00  0.00    +0.000 A 
ATOM     20  C   UNL     1       5.939   6.151  16.116  0.00  0.00    +0.000 A 
ATOM     21  C   UNL     1       5.461   4.924  16.507  0.00  0.00    +0.000 A 
ATOM     22  C   UNL     1       4.292   4.942  17.249  0.00  0.00    +0.000 A 
ATOM     23  C   UNL     1       3.570   6.150  17.582  0.00  0.00    +0.000 A 
ATOM     24  C   UNL     1       2.534   6.127  18.543  0.00  0.00    +0.000 A 
ENDROOT
BRANCH  24  25
ATOM     25  C   UNL     1       2.308   4.876  19.399  0.00  0.00    +0.000 C 
ATOM     26  C   UNL     1       1.103   3.997  19.039  0.00  0.00    +0.000 C 
ATOM     27  C   UNL     1       1.152   2.681  19.808  0.00  0.00    +0.000 C 
ATOM     28  C   UNL     1       1.177   2.935  21.315  0.00  0.00    +0.000 C 
ATOM     29  C   UNL     1       2.314   3.870  21.723  0.00  0.00    +0.000 C 
ATOM     30  C   UNL     1       2.313   5.172  20.915  0.00  0.00    +0.000 C 
ENDBRANCH  24  25
BRANCH   1  32
ATOM     31  C   UNL     1      -4.034  11.531  18.474  0.00  0.00    +0.000 C 
ATOM     32  C   UNL     1      -3.481  12.336  19.663  0.00  0.00    +0.000 C 
ENDBRANCH   1  32
BRANCH   1  33
ATOM     33  O   UNL     1      -1.519  13.551  20.203  0.00  0.00    +0.000 OA
ATOM     34  H   UNL     1      -2.142  14.086  19.667  0.00  0.00    +0.000 HD
ENDBRANCH   1  33
BRANCH  21  35
ATOM     35  O   UNL     1       6.182   3.802  16.198  0.00  0.00    +0.000 OA
ATOM     36  C   UNL     1       6.471   3.514  14.810  0.00  0.00    +0.000 C 
ENDBRANCH  21  35
TORSDOF 4
ENDMDL
MODEL 3
REMARK VINA RESULT:      -7.4      2.253      9.147
REMARK  Name = 
REMARK  6 active torsions:
REMARK  status: ('A' for Active; 'I' for Inactive)
REMARK    1  A    between atoms: C_1  and  C_2
REMARK    2  A    between atoms: C_2  and  C_3
REMARK    3  A    between atoms: C_3  and  O_4
REMARK    4  A    between atoms: C_24  and  O_25
REMARK    5  A    between atoms: O_25  and  C_26
REMARK    6  A    between atoms: C_29  and  C_30
REMARK                            x       y       z     vdW  Elec       q    Type
REMARK                         _______ _______ _______ _____ _____    ______ ____
ROOT
ATOM      1  C   UNL     1       4.717   6.555  17.605  0.00  0.00    +0.000 C 
ATOM      2  C   UNL     1       5.219   6.209  19.071  0.00  0.00    +0.000 C 
ATOM      3  C   UNL     1       4.822   4.854  19.580  0.00  0.00    +0.000 C 
ATOM      4  O   UNL     1       5.572   3.889  19.549  0.00  0.00    +0.000 OA
ATOM      5  O   UNL     1       3.596   4.818  20.134  0.00  0.00    +0.000 OA
ATOM      6  C   UNL     1       2.580   5.100  19.190  0.00  0.00    +0.000 C 
ATOM      7  C   UNL     1       2.486   6.526  18.788  0.00  0.00    +0.000 A 
ATOM      8  C   UNL     1       3.183   7.169  17.797  0.00  0.00    +0.000 A 
ATOM      9  C   UNL     1       2.106   8.144  17.110  0.00  0.00    +0.000 A 
ATOM     10  C   UNL     1       1.118   8.755  17.888  0.00  0.00    +0.000 A 
ATOM     11  N   UNL     1       1.360   8.555  19.233  0.00  0.00    +0.000 N 
ATOM     12  C   UNL     1       1.998   7.485  19.770  0.00  0.00    +0.000 A 
ATOM     13  O   UNL     1       2.151   7.302  20.981  0.00  0.00    +0.000 OA
ATOM     14  C   UNL     1       0.931   9.647  20.050  0.00  0.00    +0.000 C 
ATOM     15  C   UNL     1      -0.121  10.296  19.255  0.00  0.00    +0.000 A 
ATOM     16  C   UNL     1      -0.181   9.712  17.964  0.00  0.00    +0.000 A 
ATOM     17  N   UNL     1      -1.386   9.772  17.305  0.00  0.00    +0.000 NA
ATOM     18  C   UNL     1      -2.438  10.611  17.848  0.00  0.00    +0.000 A 
ATOM     19  C   UNL     1      -3.794  10.686  17.388  0.00  0.00    +0.000 A 
ATOM     20  C   UNL     1      -4.794  11.594  17.889  0.00  0.00    +0.000 A 
ATOM     21  C   UNL     1      -4.484  12.520  18.856  0.00  0.00    +0.000 A 
ATOM     22  C   UNL     1      -3.215  12.421  19.400  0.00  0.00    +0.000 A 
ATOM     23  C   UNL     1      -2.235  11.443  18.982  0.00  0.00    +0.000 A 
ATOM     24  C   UNL     1      -1.062  11.230  19.740  0.00  0.00    +0.000 A 
ENDROOT
BRANCH  24  25
ATOM     25  C   UNL     1      -0.914  11.873  21.124  0.00  0.00    +0.000 C 
ATOM     26  C   UNL     1      -2.080  11.687  22.104  0.00  0.00    +0.000 C 
ATOM     27  C   UNL     1      -1.689  12.164  23.498  0.00  0.00    +0.000 C 
ATOM     28  C   UNL     1      -1.263  13.631  23.470  0.00  0.00    +0.000 C 
ATOM     29  C   UNL     1      -0.154  13.890  22.453  0.00  0.00    +0.000 C 
ATOM     30  C   UNL     1      -0.509  13.362  21.059  0.00  0.00    +0.000 C 
ENDBRANCH  24  25
BRANCH   1  32
ATOM     31  C   UNL     1       7.442   7.058  17.695  0.00  0.00    +0.000 C 
ATOM     32  C   UNL     1       6.090   7.092  16.962  0.00  0.00    +0.000 C 
ENDBRANCH   1  32
BRANCH   1  33
ATOM     33  O   UNL     1       4.517   5.321  16.867  0.00  0.00    +0.000 OA
ATOM     34  H   UNL     1       3.597   5.301  16.530  0.00  0.00    +0.000 HD
ENDBRANCH   1  33
BRANCH  21  35
ATOM     35  O   UNL     1      -5.443  13.415  19.247  0.00  0.00    +0.000 OA
ATOM     36  C   UNL     1      -6.569  13.664  18.374  0.00  0.00    +0.000 C 
ENDBRANCH  21  35
TORSDOF 4
ENDMDL
MODEL 4
REMARK VINA RESULT:      -7.3      2.017      9.298
REMARK  Name = 
REMARK  6 active torsions:
REMARK  status: ('A' for Active; 'I' for Inactive)
REMARK    1  A    between atoms: C_1  and  C_2
REMARK    2  A    between atoms: C_2  and  C_3
REMARK    3  A    between atoms: C_3  and  O_4
REMARK    4  A    between atoms: C_24  and  O_25
REMARK    5  A    between atoms: O_25  and  C_26
REMARK    6  A    between atoms: C_29  and  C_30
REMARK                            x       y       z     vdW  Elec       q    Type
REMARK                         _______ _______ _______ _____ _____    ______ ____
ROOT
ATOM      1  C   UNL     1       2.917   5.161  19.590  0.00  0.00    +0.000 C 
ATOM      2  C   UNL     1       2.920   4.961  18.015  0.00  0.00    +0.000 C 
ATOM      3  C   UNL     1       4.181   5.385  17.319  0.00  0.00    +0.000 C 
ATOM      4  O   UNL     1       5.059   4.598  16.999  0.00  0.00    +0.000 OA
ATOM      5  O   UNL     1       4.221   6.697  17.019  0.00  0.00    +0.000 OA
ATOM      6  C   UNL     1       4.225   7.506  18.180  0.00  0.00    +0.000 C 
ATOM      7  C   UNL     1       2.921   7.586  18.884  0.00  0.00    +0.000 A 
ATOM      8  C   UNL     1       2.422   6.731  19.834  0.00  0.00    +0.000 A 
ATOM      9  C   UNL     1       1.705   7.688  20.907  0.00  0.00    +0.000 A 
ATOM     10  C   UNL     1       1.047   8.847  20.483  0.00  0.00    +0.000 A 
ATOM     11  N   UNL     1       0.956   8.882  19.105  0.00  0.00    +0.000 N 
ATOM     12  C   UNL     1       1.836   8.317  18.240  0.00  0.00    +0.000 A 
ATOM     13  O   UNL     1       1.763   8.412  17.012  0.00  0.00    +0.000 OA
ATOM     14  C   UNL     1      -0.230   9.527  18.636  0.00  0.00    +0.000 C 
ATOM     15  C   UNL     1      -0.609  10.421  19.739  0.00  0.00    +0.000 A 
ATOM     16  C   UNL     1       0.220  10.179  20.864  0.00  0.00    +0.000 A 
ATOM     17  N   UNL     1       0.402  11.221  21.743  0.00  0.00    +0.000 NA
ATOM     18  C   UNL     1      -0.426  12.405  21.604  0.00  0.00    +0.000 A 
ATOM     19  C   UNL     1      -0.284  13.636  22.324  0.00  0.00    +0.000 A 
ATOM     20  C   UNL     1      -1.175  14.764  22.231  0.00  0.00    +0.000 A 
ATOM     21  C   UNL     1      -2.297  14.710  21.439  0.00  0.00    +0.000 A 
ATOM     22  C   UNL     1      -2.425  13.581  20.650  0.00  0.00    +0.000 A 
ATOM     23  C   UNL     1      -1.479  12.486  20.653  0.00  0.00    +0.000 A 
ATOM     24  C   UNL     1      -1.529  11.489  19.655  0.00  0.00    +0.000 A 
ENDROOT
BRANCH  24  25
ATOM     25  C   UNL     1      -2.442  11.667  18.436  0.00  0.00    +0.000 C 
ATOM     26  C   UNL     1      -3.943  11.431  18.652  0.00  0.00    +0.000 C 
ATOM     27  C   UNL     1      -4.736  11.880  17.429  0.00  0.00    +0.000 C 
ATOM     28  C   UNL     1      -4.269  11.138  16.178  0.00  0.00    +0.000 C 
ATOM     29  C   UNL     1      -2.764  11.274  15.955  0.00  0.00    +0.000 C 
ATOM     30  C   UNL     1      -1.956  10.884  17.197  0.00  0.00    +0.000 C 
ENDBRANCH  24  25
BRANCH   1  32
ATOM     31  C   UNL     1       0.933   3.426  20.450  0.00  0.00    +0.000 C 
ATOM     32  C   UNL     1       2.391   3.713  20.052  0.00  0.00    +0.000 C 
ENDBRANCH   1  32
BRANCH   1  33
ATOM     33  O   UNL     1       4.284   5.139  20.075  0.00  0.00    +0.000 OA
ATOM     34  H   UNL     1       4.660   6.041  19.998  0.00  0.00    +0.000 HD
ENDBRANCH   1  33
BRANCH  21  35
ATOM     35  O   UNL     1      -3.159  15.775  21.440  0.00  0.00    +0.000 OA
ATOM     36  C   UNL     1      -3.538  16.370  22.702  0.00  0.00    +0.000 C 
ENDBRANCH  21  35
TORSDOF 4
ENDMDL
MODEL 5
REMARK VINA RESULT:      -7.1      2.108      4.451
REMARK  Name = 
REMARK  6 active torsions:
REMARK  status: ('A' for Active; 'I' for Inactive)
REMARK    1  A    between atoms: C_1  and  C_2
REMARK    2  A    between atoms: C_2  and  C_3
REMARK    3  A    between atoms: C_3  and  O_4
REMARK    4  A    between atoms: C_24  and  O_25
REMARK    5  A    between atoms: O_25  and  C_26
REMARK    6  A    between atoms: C_29  and  C_30
REMARK                            x       y       z     vdW  Elec       q    Type
REMARK                         _______ _______ _______ _____ _____    ______ ____
ROOT
ATOM      1  C   UNL     1       0.674  13.072  20.820  0.00  0.00    +0.000 C 
ATOM      2  C   UNL     1       1.006  13.760  19.429  0.00  0.00    +0.000 C 
ATOM      3  C   UNL     1      -0.176  13.996  18.534  0.00  0.00    +0.000 C 
ATOM      4  O   UNL     1      -0.742  15.077  18.456  0.00  0.00    +0.000 OA
ATOM      5  O   UNL     1      -0.507  12.933  17.778  0.00  0.00    +0.000 OA
ATOM      6  C   UNL     1      -0.933  11.836  18.564  0.00  0.00    +0.000 C 
ATOM      7  C   UNL     1       0.156  11.132  19.287  0.00  0.00    +0.000 A 
ATOM      8  C   UNL     1       0.685  11.435  20.517  0.00  0.00    +0.000 A 
ATOM      9  C   UNL     1       0.918  10.011  21.221  0.00  0.00    +0.000 A 
ATOM     10  C   UNL     1       1.311   8.907  20.457  0.00  0.00    +0.000 A 
ATOM     11  N   UNL     1       1.635   9.293  19.170  0.00  0.00    +0.000 N 
ATOM     12  C   UNL     1       1.105  10.350  18.506  0.00  0.00    +0.000 A 
ATOM     13  O   UNL     1       1.370  10.639  17.335  0.00  0.00    +0.000 OA
ATOM     14  C   UNL     1       2.673   8.499  18.590  0.00  0.00    +0.000 C 
ATOM     15  C   UNL     1       2.598   7.225  19.321  0.00  0.00    +0.000 A 
ATOM     16  C   UNL     1       1.675   7.336  20.391  0.00  0.00    +0.000 A 
ATOM     17  N   UNL     1       1.070   6.177  20.817  0.00  0.00    +0.000 NA
ATOM     18  C   UNL     1       1.566   4.907  20.322  0.00  0.00    +0.000 A 
ATOM     19  C   UNL     1       0.977   3.617  20.535  0.00  0.00    +0.000 A 
ATOM     20  C   UNL     1       1.540   2.363  20.107  0.00  0.00    +0.000 A 
ATOM     21  C   UNL     1       2.759   2.318  19.475  0.00  0.00    +0.000 A 
ATOM     22  C   UNL     1       3.320   3.543  19.160  0.00  0.00    +0.000 A 
ATOM     23  C   UNL     1       2.713   4.814  19.488  0.00  0.00    +0.000 A 
ATOM     24  C   UNL     1       3.203   6.013  18.925  0.00  0.00    +0.000 A 
ENDROOT
BRANCH  24  25
ATOM     25  C   UNL     1       4.239   5.964  17.796  0.00  0.00    +0.000 C 
ATOM     26  C   UNL     1       4.134   4.795  16.807  0.00  0.00    +0.000 C 
ATOM     27  C   UNL     1       5.063   5.015  15.618  0.00  0.00    +0.000 C 
ATOM     28  C   UNL     1       6.510   5.173  16.082  0.00  0.00    +0.000 C 
ATOM     29  C   UNL     1       6.663   6.275  17.129  0.00  0.00    +0.000 C 
ATOM     30  C   UNL     1       5.692   6.099  18.302  0.00  0.00    +0.000 C 
ENDBRANCH  24  25
BRANCH   1  32
ATOM     31  C   UNL     1       2.604  14.989  21.353  0.00  0.00    +0.000 C 
ATOM     32  C   UNL     1       1.473  14.053  21.813  0.00  0.00    +0.000 C 
ENDBRANCH   1  32
BRANCH   1  33
ATOM     33  O   UNL     1      -0.703  13.359  21.177  0.00  0.00    +0.000 OA
ATOM     34  H   UNL     1      -0.952  12.803  21.945  0.00  0.00    +0.000 HD
ENDBRANCH   1  33
BRANCH  21  35
ATOM     35  O   UNL     1       3.295   1.098  19.155  0.00  0.00    +0.000 OA
ATOM     36  C   UNL     1       4.219   1.006  18.047  0.00  0.00    +0.000 C 
ENDBRANCH  21  35
TORSDOF 4
ENDMDL
MODEL 6
REMARK VINA RESULT:      -7.0      1.911      9.357
REMARK  Name = 
REMARK  6 active torsions:
REMARK  status: ('A' for Active; 'I' for Inactive)
REMARK    1  A    between atoms: C_1  and  C_2
REMARK    2  A    between atoms: C_2  and  C_3
REMARK    3  A    between atoms: C_3  and  O_4
REMARK    4  A    between atoms: C_24  and  O_25
REMARK    5  A    between atoms: O_25  and  C_26
REMARK    6  A    between atoms: C_29  and  C_30
REMARK                            x       y       z     vdW  Elec       q    Type
REMARK                         _______ _______ _______ _____ _____    ______ ____
ROOT
ATOM      1  C   UNL     1       4.817   3.974  17.808  0.00  0.00    +0.000 C 
ATOM      2  C   UNL     1       5.150   4.411  16.318  0.00  0.00    +0.000 C 
ATOM      3  C   UNL     1       6.466   5.108  16.135  0.00  0.00    +0.000 C 
ATOM      4  O   UNL     1       7.472   4.533  15.746  0.00  0.00    +0.000 OA
ATOM      5  O   UNL     1       6.418   6.433  16.372  0.00  0.00    +0.000 OA
ATOM      6  C   UNL     1       6.105   6.718  17.722  0.00  0.00    +0.000 C 
ATOM      7  C   UNL     1       4.688   6.480  18.094  0.00  0.00    +0.000 A 
ATOM      8  C   UNL     1       4.112   5.307  18.512  0.00  0.00    +0.000 A 
ATOM      9  C   UNL     1       3.097   5.746  19.678  0.00  0.00    +0.000 A 
ATOM     10  C   UNL     1       2.410   6.960  19.589  0.00  0.00    +0.000 A 
ATOM     11  N   UNL     1       2.586   7.533  18.344  0.00  0.00    +0.000 N 
ATOM     12  C   UNL     1       3.675   7.377  17.550  0.00  0.00    +0.000 A 
ATOM     13  O   UNL     1       3.833   7.946  16.466  0.00  0.00    +0.000 OA
ATOM     14  C   UNL     1       1.450   8.279  17.902  0.00  0.00    +0.000 C 
ATOM     15  C   UNL     1       0.765   8.656  19.148  0.00  0.00    +0.000 A 
ATOM     16  C   UNL     1       1.380   8.013  20.251  0.00  0.00    +0.000 A 
ATOM     17  N   UNL     1       1.270   8.629  21.476  0.00  0.00    +0.000 NA
ATOM     18  C   UNL     1       0.359   9.749  21.614  0.00  0.00    +0.000 A 
ATOM     19  C   UNL     1       0.220  10.601  22.759  0.00  0.00    +0.000 A 
ATOM     20  C   UNL     1      -0.756  11.650  22.903  0.00  0.00    +0.000 A 
ATOM     21  C   UNL     1      -1.689  11.884  21.922  0.00  0.00    +0.000 A 
ATOM     22  C   UNL     1      -1.534  11.153  20.757  0.00  0.00    +0.000 A 
ATOM     23  C   UNL     1      -0.491  10.171  20.556  0.00  0.00    +0.000 A 
ATOM     24  C   UNL     1      -0.234   9.646  19.270  0.00  0.00    +0.000 A 
ENDROOT
BRANCH  24  25
ATOM     25  C   UNL     1      -0.905  10.266  18.039  0.00  0.00    +0.000 C 
ATOM     26  C   UNL     1      -1.247  11.760  18.113  0.00  0.00    +0.000 C 
ATOM     27  C   UNL     1      -1.676  12.279  16.746  0.00  0.00    +0.000 C 
ATOM     28  C   UNL     1      -2.880  11.497  16.222  0.00  0.00    +0.000 C 
ATOM     29  C   UNL     1      -2.624   9.991  16.200  0.00  0.00    +0.000 C 
ATOM     30  C   UNL     1      -2.133   9.466  17.553  0.00  0.00    +0.000 C 
ENDBRANCH  24  25
BRANCH   1  32
ATOM     31  C   UNL     1       3.327   1.716  18.412  0.00  0.00    +0.000 C 
ATOM     32  C   UNL     1       4.375   2.448  17.557  0.00  0.00    +0.000 C 
ENDBRANCH   1  32
BRANCH   1  33
ATOM     33  O   UNL     1       6.057   3.799  18.541  0.00  0.00    +0.000 OA
ATOM     34  H   UNL     1       6.285   4.645  18.980  0.00  0.00    +0.000 HD
ENDBRANCH   1  33
BRANCH  21  35
ATOM     35  O   UNL     1      -2.648  12.839  22.133  0.00  0.00    +0.000 OA
ATOM     36  C   UNL     1      -3.880  12.775  21.380  0.00  0.00    +0.000 C 
ENDBRANCH  21  35
TORSDOF 4
ENDMDL
MODEL 7
REMARK VINA RESULT:      -6.7      1.969      4.235
REMARK  Name = 
REMARK  6 active torsions:
REMARK  status: ('A' for Active; 'I' for Inactive)
REMARK    1  A    between atoms: C_1  and  C_2
REMARK    2  A    between atoms: C_2  and  C_3
REMARK    3  A    between atoms: C_3  and  O_4
REMARK    4  A    between atoms: C_24  and  O_25
REMARK    5  A    between atoms: O_25  and  C_26
REMARK    6  A    between atoms: C_29  and  C_30
REMARK                            x       y       z     vdW  Elec       q    Type
REMARK                         _______ _______ _______ _____ _____    ______ ____
ROOT
ATOM      1  C   UNL     1      -0.622  12.108  21.471  0.00  0.00    +0.000 C 
ATOM      2  C   UNL     1      -0.113  13.058  20.305  0.00  0.00    +0.000 C 
ATOM      3  C   UNL     1      -1.101  13.305  19.204  0.00  0.00    +0.000 C 
ATOM      4  O   UNL     1      -1.795  14.310  19.149  0.00  0.00    +0.000 OA
ATOM      5  O   UNL     1      -1.101  12.356  18.249  0.00  0.00    +0.000 OA
ATOM      6  C   UNL     1      -1.512  11.099  18.753  0.00  0.00    +0.000 C 
ATOM      7  C   UNL     1      -0.507  10.413  19.602  0.00  0.00    +0.000 A 
ATOM      8  C   UNL     1      -0.301  10.560  20.951  0.00  0.00    +0.000 A 
ATOM      9  C   UNL     1      -0.008   9.073  21.483  0.00  0.00    +0.000 A 
ATOM     10  C   UNL     1       0.699   8.169  20.683  0.00  0.00    +0.000 A 
ATOM     11  N   UNL     1       1.225   8.804  19.574  0.00  0.00    +0.000 N 
ATOM     12  C   UNL     1       0.693   9.891  18.960  0.00  0.00    +0.000 A 
ATOM     13  O   UNL     1       1.151  10.404  17.936  0.00  0.00    +0.000 OA
ATOM     14  C   UNL     1       2.469   8.247  19.144  0.00  0.00    +0.000 C 
ATOM     15  C   UNL     1       2.435   6.867  19.651  0.00  0.00    +0.000 A 
ATOM     16  C   UNL     1       1.302   6.685  20.483  0.00  0.00    +0.000 A 
ATOM     17  N   UNL     1       0.803   5.408  20.589  0.00  0.00    +0.000 NA
ATOM     18  C   UNL     1       1.578   4.308  20.049  0.00  0.00    +0.000 A 
ATOM     19  C   UNL     1       1.158   2.941  19.936  0.00  0.00    +0.000 A 
ATOM     20  C   UNL     1       1.982   1.852  19.478  0.00  0.00    +0.000 A 
ATOM     21  C   UNL     1       3.300   2.057  19.146  0.00  0.00    +0.000 A 
ATOM     22  C   UNL     1       3.723   3.375  19.145  0.00  0.00    +0.000 A 
ATOM     23  C   UNL     1       2.875   4.492  19.499  0.00  0.00    +0.000 A 
ATOM     24  C   UNL     1       3.286   5.818  19.239  0.00  0.00    +0.000 A 
ENDROOT
BRANCH  24  25
ATOM     25  C   UNL     1       4.532   6.083  18.386  0.00  0.00    +0.000 C 
ATOM     26  C   UNL     1       4.484   5.618  16.924  0.00  0.00    +0.000 C 
ATOM     27  C   UNL     1       5.680   6.163  16.150  0.00  0.00    +0.000 C 
ATOM     28  C   UNL     1       6.991   5.718  16.794  0.00  0.00    +0.000 C 
ATOM     29  C   UNL     1       7.062   6.087  18.275  0.00  0.00    +0.000 C 
ATOM     30  C   UNL     1       5.837   5.597  19.054  0.00  0.00    +0.000 C 
ENDBRANCH  24  25
BRANCH   1  32
ATOM     31  C   UNL     1      -1.183  13.923  23.490  0.00  0.00    +0.000 C 
ATOM     32  C   UNL     1      -0.208  12.991  22.749  0.00  0.00    +0.000 C 
ENDBRANCH   1  32
BRANCH   1  33
ATOM     33  O   UNL     1      -2.070  12.169  21.535  0.00  0.00    +0.000 OA
ATOM     34  H   UNL     1      -2.382  11.549  22.228  0.00  0.00    +0.000 HD
ENDBRANCH   1  33
BRANCH  21  35
ATOM     35  O   UNL     1       4.068   0.981  18.791  0.00  0.00    +0.000 OA
ATOM     36  C   UNL     1       5.007   0.441  19.750  0.00  0.00    +0.000 C 
ENDBRANCH  21  35
TORSDOF 4
ENDMDL
MODEL 8
REMARK VINA RESULT:      -6.5      5.208      9.517
REMARK  Name = 
REMARK  6 active torsions:
REMARK  status: ('A' for Active; 'I' for Inactive)
REMARK    1  A    between atoms: C_1  and  C_2
REMARK    2  A    between atoms: C_2  and  C_3
REMARK    3  A    between atoms: C_3  and  O_4
REMARK    4  A    between atoms: C_24  and  O_25
REMARK    5  A    between atoms: O_25  and  C_26
REMARK    6  A    between atoms: C_29  and  C_30
REMARK                            x       y       z     vdW  Elec       q    Type
REMARK                         _______ _______ _______ _____ _____    ______ ____
ROOT
ATOM      1  C   UNL     1       7.040  14.909  20.711  0.00  0.00    +0.000 C 
ATOM      2  C   UNL     1       7.318  14.901  19.148  0.00  0.00    +0.000 C 
ATOM      3  C   UNL     1       7.337  16.252  18.495  0.00  0.00    +0.000 C 
ATOM      4  O   UNL     1       8.371  16.855  18.251  0.00  0.00    +0.000 OA
ATOM      5  O   UNL     1       6.118  16.702  18.141  0.00  0.00    +0.000 OA
ATOM      6  C   UNL     1       5.286  16.917  19.265  0.00  0.00    +0.000 C 
ATOM      7  C   UNL     1       4.774  15.679  19.903  0.00  0.00    +0.000 A 
ATOM      8  C   UNL     1       5.383  14.912  20.864  0.00  0.00    +0.000 A 
ATOM      9  C   UNL     1       4.195  14.490  21.860  0.00  0.00    +0.000 A 
ATOM     10  C   UNL     1       2.916  14.233  21.356  0.00  0.00    +0.000 A 
ATOM     11  N   UNL     1       2.931  14.201  19.975  0.00  0.00    +0.000 N 
ATOM     12  C   UNL     1       3.784  14.892  19.178  0.00  0.00    +0.000 A 
ATOM     13  O   UNL     1       3.739  14.890  17.945  0.00  0.00    +0.000 OA
ATOM     14  C   UNL     1       1.982  13.285  19.424  0.00  0.00    +0.000 C 
ATOM     15  C   UNL     1       0.955  13.163  20.469  0.00  0.00    +0.000 A 
ATOM     16  C   UNL     1       1.375  13.842  21.641  0.00  0.00    +0.000 A 
ATOM     17  N   UNL     1       0.391  14.307  22.481  0.00  0.00    +0.000 NA
ATOM     18  C   UNL     1      -0.978  13.888  22.253  0.00  0.00    +0.000 A 
ATOM     19  C   UNL     1      -2.146  14.378  22.925  0.00  0.00    +0.000 A 
ATOM     20  C   UNL     1      -3.484  13.879  22.742  0.00  0.00    +0.000 A 
ATOM     21  C   UNL     1      -3.732  12.820  21.901  0.00  0.00    +0.000 A 
ATOM     22  C   UNL     1      -2.653  12.377  21.156  0.00  0.00    +0.000 A 
ATOM     23  C   UNL     1      -1.324  12.940  21.251  0.00  0.00    +0.000 A 
ATOM     24  C   UNL     1      -0.336  12.618  20.295  0.00  0.00    +0.000 A 
ENDROOT
BRANCH  24  25
ATOM     25  C   UNL     1      -0.716  11.843  19.028  0.00  0.00    +0.000 C 
ATOM     26  C   UNL     1      -2.125  12.076  18.468  0.00  0.00    +0.000 C 
ATOM     27  C   UNL     1      -2.267  11.436  17.092  0.00  0.00    +0.000 C 
ATOM     28  C   UNL     1      -1.976   9.938  17.158  0.00  0.00    +0.000 C 
ATOM     29  C   UNL     1      -0.613   9.642  17.781  0.00  0.00    +0.000 C 
ATOM     30  C   UNL     1      -0.434  10.329  19.138  0.00  0.00    +0.000 C 
ENDBRANCH  24  25
BRANCH   1  32
ATOM     31  C   UNL     1       9.036  14.195  22.497  0.00  0.00    +0.000 C 
ATOM     32  C   UNL     1       8.230  13.950  21.210  0.00  0.00    +0.000 C 
ENDBRANCH   1  32
BRANCH   1  33
ATOM     33  O   UNL     1       7.450  16.188  21.261  0.00  0.00    +0.000 OA
ATOM     34  H   UNL     1       6.669  16.625  21.659  0.00  0.00    +0.000 HD
ENDBRANCH   1  33
BRANCH  21  35
ATOM     35  O   UNL     1      -5.007  12.326  21.816  0.00  0.00    +0.000 OA
ATOM     36  C   UNL     1      -5.899  12.857  20.809  0.00  0.00    +0.000 C 
ENDBRANCH  21  35
TORSDOF 4
ENDMDL
MODEL 9
REMARK VINA RESULT:      -6.4      6.012      9.335
REMARK  Name = 
REMARK  6 active torsions:
REMARK  status: ('A' for Active; 'I' for Inactive)
REMARK    1  A    between atoms: C_1  and  C_2
REMARK    2  A    between atoms: C_2  and  C_3
REMARK    3  A    between atoms: C_3  and  O_4
REMARK    4  A    between atoms: C_24  and  O_25
REMARK    5  A    between atoms: O_25  and  C_26
REMARK    6  A    between atoms: C_29  and  C_30
REMARK                            x       y       z     vdW  Elec       q    Type
REMARK                         _______ _______ _______ _____ _____    ______ ____
ROOT
ATOM      1  C   UNL     1       4.429  15.538  21.379  0.00  0.00    +0.000 C 
ATOM      2  C   UNL     1       4.982  15.610  19.893  0.00  0.00    +0.000 C 
ATOM      3  C   UNL     1       4.976  16.977  19.273  0.00  0.00    +0.000 C 
ATOM      4  O   UNL     1       5.968  17.689  19.230  0.00  0.00    +0.000 OA
ATOM      5  O   UNL     1       3.800  17.314  18.710  0.00  0.00    +0.000 OA
ATOM      6  C   UNL     1       2.762  17.407  19.668  0.00  0.00    +0.000 C 
ATOM      7  C   UNL     1       2.277  16.103  20.184  0.00  0.00    +0.000 A 
ATOM      8  C   UNL     1       2.780  15.369  21.228  0.00  0.00    +0.000 A 
ATOM      9  C   UNL     1       1.484  14.797  21.986  0.00  0.00    +0.000 A 
ATOM     10  C   UNL     1       0.350  14.430  21.254  0.00  0.00    +0.000 A 
ATOM     11  N   UNL     1       0.616  14.445  19.898  0.00  0.00    +0.000 N 
ATOM     12  C   UNL     1       1.521  15.245  19.280  0.00  0.00    +0.000 A 
ATOM     13  O   UNL     1       1.699  15.280  18.059  0.00  0.00    +0.000 OA
ATOM     14  C   UNL     1      -0.118  13.457  19.170  0.00  0.00    +0.000 C 
ATOM     15  C   UNL     1      -1.297  13.198  20.009  0.00  0.00    +0.000 A 
ATOM     16  C   UNL     1      -1.167  13.877  21.248  0.00  0.00    +0.000 A 
ATOM     17  N   UNL     1      -2.329  14.212  21.902  0.00  0.00    +0.000 NA
ATOM     18  C   UNL     1      -3.583  13.665  21.422  0.00  0.00    +0.000 A 
ATOM     19  C   UNL     1      -4.898  14.013  21.878  0.00  0.00    +0.000 A 
ATOM     20  C   UNL     1      -6.121  13.388  21.447  0.00  0.00    +0.000 A 
ATOM     21  C   UNL     1      -6.102  12.338  20.560  0.00  0.00    +0.000 A 
ATOM     22  C   UNL     1      -4.867  12.031  20.018  0.00  0.00    +0.000 A 
ATOM     23  C   UNL     1      -3.643  12.722  20.361  0.00  0.00    +0.000 A 
ATOM     24  C   UNL     1      -2.471  12.533  19.596  0.00  0.00    +0.000 A 
ENDROOT
BRANCH  24  25
ATOM     25  C   UNL     1      -2.534  11.766  18.270  0.00  0.00    +0.000 C 
ATOM     26  C   UNL     1      -3.895  11.713  17.563  0.00  0.00    +0.000 C 
ATOM     27  C   UNL     1      -3.747  11.137  16.159  0.00  0.00    +0.000 C 
ATOM     28  C   UNL     1      -3.133   9.739  16.208  0.00  0.00    +0.000 C 
ATOM     29  C   UNL     1      -1.809   9.717  16.970  0.00  0.00    +0.000 C 
ATOM     30  C   UNL     1      -1.930  10.348  18.361  0.00  0.00    +0.000 C 
ENDBRANCH  24  25
BRANCH   1  32
ATOM     31  C   UNL     1       6.466  15.216  23.231  0.00  0.00    +0.000 C 
ATOM     32  C   UNL     1       5.605  14.687  22.072  0.00  0.00    +0.000 C 
ENDBRANCH   1  32
BRANCH   1  33
ATOM     33  O   UNL     1       4.598  16.832  22.012  0.00  0.00    +0.000 OA
ATOM     34  H   UNL     1       5.382  17.274  21.623  0.00  0.00    +0.000 HD
ENDBRANCH   1  33
BRANCH  21  35
ATOM     35  O   UNL     1      -7.282  11.722  20.238  0.00  0.00    +0.000 OA
ATOM     36  C   UNL     1      -7.331  10.277  20.196  0.00  0.00    +0.000 C 
ENDBRANCH  21  35
TORSDOF 4
ENDMDL
