MODEL 1
REMARK VINA RESULT:      -6.9      0.000      0.000
REMARK  Name = 
REMARK  7 active torsions:
REMARK  status: ('A' for Active; 'I' for Inactive)
REMARK    1  A    between atoms: C_1  and  N_2
REMARK    2  A    between atoms: N_2  and  C_3
REMARK    3  A    between atoms: C_4  and  C_6
REMARK    4  A    between atoms: C_6  and  C_7
REMARK    5  A    between atoms: C_7  and  C_8
REMARK    6  A    between atoms: C_11  and  C_12
REMARK    7  A    between atoms: C_18  and  C_19
REMARK                            x       y       z     vdW  Elec       q    Type
REMARK                         _______ _______ _______ _____ _____    ______ ____
ROOT
ATOM      1  C   UNL     1       1.948   4.434  19.708  0.00  0.00    +0.000 C 
ATOM      2  C   UNL     1       2.939   3.593  20.496  0.00  0.00    +0.000 C 
ATOM      3  N   UNL     1       3.630   2.808  19.463  0.00  0.00    +0.000 NA
ATOM      4  C   UNL     1       3.751   3.703  18.277  0.00  0.00    +0.000 C 
ATOM      5  C   UNL     1       2.751   4.838  18.476  0.00  0.00    +0.000 C 
ATOM      6  H   UNL     1       3.027   2.026  19.210  0.00  0.00    +0.000 HD
ENDROOT
BRANCH   4   7
ATOM      7  C   UNL     1       5.219   4.184  18.144  0.00  0.00    +0.000 C 
ATOM      8  O   UNL     1       5.989   4.250  19.103  0.00  0.00    +0.000 OA
ATOM      9  N   UNL     1       5.645   4.506  16.868  0.00  0.00    +0.000 N 
ATOM     10  C   UNL     1       4.882   4.412  15.641  0.00  0.00    +0.000 C 
ATOM     11  C   UNL     1       5.924   4.009  14.620  0.00  0.00    +0.000 C 
ATOM     12  C   UNL     1       7.172   4.763  15.069  0.00  0.00    +0.000 C 
ATOM     13  C   UNL     1       7.025   4.913  16.597  0.00  0.00    +0.000 C 
BRANCH  13  14
ATOM     14  C   UNL     1       7.286   6.318  16.998  0.00  0.00    +0.000 C 
ATOM     15  N   UNL     1       7.541   7.412  17.279  0.00  0.00    +0.000 NA
ENDBRANCH  13  14
ENDBRANCH   4   7
BRANCH   1  16
ATOM     16  C   UNL     1       1.323   5.601  20.479  0.00  0.00    +0.000 C 
BRANCH  16  17
ATOM     17  C   UNL     1       2.176   6.868  20.488  0.00  0.00    +0.000 C 
BRANCH  17  21
ATOM     18  C   UNL     1       0.547  10.150  19.512  0.00  0.00    +0.000 C 
ATOM     19  N   UNL     1       1.337   8.936  19.458  0.00  0.00    +0.000 N 
ATOM     20  C   UNL     1       2.023   8.598  18.217  0.00  0.00    +0.000 C 
ATOM     21  C   UNL     1       1.358   8.139  20.599  0.00  0.00    +0.000 C 
ATOM     22  O   UNL     1       0.755   8.438  21.628  0.00  0.00    +0.000 OA
ENDBRANCH  17  21
ENDBRANCH  16  17
ENDBRANCH   1  16
TORSDOF 5
ENDMDL
MODEL 2
REMARK VINA RESULT:      -6.7      0.868      1.176
REMARK  Name = 
REMARK  7 active torsions:
REMARK  status: ('A' for Active; 'I' for Inactive)
REMARK    1  A    between atoms: C_1  and  N_2
REMARK    2  A    between atoms: N_2  and  C_3
REMARK    3  A    between atoms: C_4  and  C_6
REMARK    4  A    between atoms: C_6  and  C_7
REMARK    5  A    between atoms: C_7  and  C_8
REMARK    6  A    between atoms: C_11  and  C_12
REMARK    7  A    between atoms: C_18  and  C_19
REMARK                            x       y       z     vdW  Elec       q    Type
REMARK                         _______ _______ _______ _____ _____    ______ ____
ROOT
ATOM      1  C   UNL     1       1.921   4.424  19.681  0.00  0.00    +0.000 C 
ATOM      2  C   UNL     1       2.918   3.646  20.525  0.00  0.00    +0.000 C 
ATOM      3  N   UNL     1       3.655   2.841  19.540  0.00  0.00    +0.000 NA
ATOM      4  C   UNL     1       3.778   3.690  18.322  0.00  0.00    +0.000 C 
ATOM      5  C   UNL     1       2.740   4.801  18.452  0.00  0.00    +0.000 C 
ATOM      6  H   UNL     1       3.082   2.031  19.307  0.00  0.00    +0.000 HD
ENDROOT
BRANCH   4   7
ATOM      7  C   UNL     1       5.234   4.209  18.201  0.00  0.00    +0.000 C 
ATOM      8  O   UNL     1       5.983   4.325  19.171  0.00  0.00    +0.000 OA
ATOM      9  N   UNL     1       5.674   4.508  16.924  0.00  0.00    +0.000 N 
ATOM     10  C   UNL     1       4.936   4.358  15.687  0.00  0.00    +0.000 C 
ATOM     11  C   UNL     1       6.008   3.957  14.697  0.00  0.00    +0.000 C 
ATOM     12  C   UNL     1       7.226   4.759  15.145  0.00  0.00    +0.000 C 
ATOM     13  C   UNL     1       7.046   4.947  16.666  0.00  0.00    +0.000 C 
BRANCH  13  14
ATOM     14  C   UNL     1       7.260   6.369  17.031  0.00  0.00    +0.000 C 
ATOM     15  N   UNL     1       7.479   7.478  17.287  0.00  0.00    +0.000 NA
ENDBRANCH  13  14
ENDBRANCH   4   7
BRANCH   1  16
ATOM     16  C   UNL     1       1.245   5.601  20.389  0.00  0.00    +0.000 C 
BRANCH  16  17
ATOM     17  C   UNL     1       2.163   6.801  20.617  0.00  0.00    +0.000 C 
BRANCH  17  21
ATOM     18  C   UNL     1       0.719  10.252  19.998  0.00  0.00    +0.000 C 
ATOM     19  N   UNL     1       1.137   9.034  20.662  0.00  0.00    +0.000 N 
ATOM     20  C   UNL     1       0.967   8.927  22.107  0.00  0.00    +0.000 C 
ATOM     21  C   UNL     1       1.719   8.045  19.874  0.00  0.00    +0.000 C 
ATOM     22  O   UNL     1       1.868   8.167  18.660  0.00  0.00    +0.000 OA
ENDBRANCH  17  21
ENDBRANCH  16  17
ENDBRANCH   1  16
TORSDOF 5
ENDMDL
MODEL 3
REMARK VINA RESULT:      -6.6      2.697      6.769
REMARK  Name = 
REMARK  7 active torsions:
REMARK  status: ('A' for Active; 'I' for Inactive)
REMARK    1  A    between atoms: C_1  and  N_2
REMARK    2  A    between atoms: N_2  and  C_3
REMARK    3  A    between atoms: C_4  and  C_6
REMARK    4  A    between atoms: C_6  and  C_7
REMARK    5  A    between atoms: C_7  and  C_8
REMARK    6  A    between atoms: C_11  and  C_12
REMARK    7  A    between atoms: C_18  and  C_19
REMARK                            x       y       z     vdW  Elec       q    Type
REMARK                         _______ _______ _______ _____ _____    ______ ____
ROOT
ATOM      1  C   UNL     1       6.914   6.069  17.222  0.00  0.00    +0.000 C 
ATOM      2  C   UNL     1       7.581   4.885  17.904  0.00  0.00    +0.000 C 
ATOM      3  N   UNL     1       7.075   4.947  19.283  0.00  0.00    +0.000 NA
ATOM      4  C   UNL     1       5.666   5.421  19.185  0.00  0.00    +0.000 C 
ATOM      5  C   UNL     1       5.504   6.044  17.802  0.00  0.00    +0.000 C 
ATOM      6  H   UNL     1       7.615   5.655  19.781  0.00  0.00    +0.000 HD
ENDROOT
BRANCH   4   7
ATOM      7  C   UNL     1       4.705   4.232  19.449  0.00  0.00    +0.000 C 
ATOM      8  O   UNL     1       5.091   3.065  19.516  0.00  0.00    +0.000 OA
ATOM      9  N   UNL     1       3.374   4.553  19.646  0.00  0.00    +0.000 N 
ATOM     10  C   UNL     1       2.786   5.876  19.666  0.00  0.00    +0.000 C 
ATOM     11  C   UNL     1       1.696   5.750  20.708  0.00  0.00    +0.000 C 
ATOM     12  C   UNL     1       1.172   4.331  20.506  0.00  0.00    +0.000 C 
ATOM     13  C   UNL     1       2.376   3.531  19.965  0.00  0.00    +0.000 C 
BRANCH  13  14
ATOM     14  C   UNL     1       1.971   2.747  18.772  0.00  0.00    +0.000 C 
ATOM     15  N   UNL     1       1.654   2.186  17.810  0.00  0.00    +0.000 NA
ENDBRANCH  13  14
ENDBRANCH   4   7
BRANCH   1  16
ATOM     16  C   UNL     1       6.979   6.063  15.692  0.00  0.00    +0.000 C 
BRANCH  16  17
ATOM     17  C   UNL     1       7.190   4.678  15.083  0.00  0.00    +0.000 C 
BRANCH  17  21
ATOM     18  C   UNL     1       4.928   3.354  12.344  0.00  0.00    +0.000 C 
ATOM     19  N   UNL     1       6.078   3.902  13.033  0.00  0.00    +0.000 N 
ATOM     20  C   UNL     1       7.302   4.144  12.278  0.00  0.00    +0.000 C 
ATOM     21  C   UNL     1       5.953   4.129  14.401  0.00  0.00    +0.000 C 
ATOM     22  O   UNL     1       4.916   3.899  15.019  0.00  0.00    +0.000 OA
ENDBRANCH  17  21
ENDBRANCH  16  17
ENDBRANCH   1  16
TORSDOF 5
ENDMDL
MODEL 4
REMARK VINA RESULT:      -6.5      2.793      6.749
REMARK  Name = 
REMARK  7 active torsions:
REMARK  status: ('A' for Active; 'I' for Inactive)
REMARK    1  A    between atoms: C_1  and  N_2
REMARK    2  A    between atoms: N_2  and  C_3
REMARK    3  A    between atoms: C_4  and  C_6
REMARK    4  A    between atoms: C_6  and  C_7
REMARK    5  A    between atoms: C_7  and  C_8
REMARK    6  A    between atoms: C_11  and  C_12
REMARK    7  A    between atoms: C_18  and  C_19
REMARK                            x       y       z     vdW  Elec       q    Type
REMARK                         _______ _______ _______ _____ _____    ______ ____
ROOT
ATOM      1  C   UNL     1       6.870   6.456  17.728  0.00  0.00    +0.000 C 
ATOM      2  C   UNL     1       7.581   5.373  18.524  0.00  0.00    +0.000 C 
ATOM      3  N   UNL     1       6.823   5.310  19.782  0.00  0.00    +0.000 NA
ATOM      4  C   UNL     1       5.399   5.555  19.418  0.00  0.00    +0.000 C 
ATOM      5  C   UNL     1       5.400   6.188  18.030  0.00  0.00    +0.000 C 
ATOM      6  H   UNL     1       7.137   6.079  20.374  0.00  0.00    +0.000 HD
ENDROOT
BRANCH   4   7
ATOM      7  C   UNL     1       4.612   4.221  19.494  0.00  0.00    +0.000 C 
ATOM      8  O   UNL     1       5.161   3.119  19.449  0.00  0.00    +0.000 OA
ATOM      9  N   UNL     1       3.242   4.325  19.654  0.00  0.00    +0.000 N 
ATOM     10  C   UNL     1       2.467   5.541  19.792  0.00  0.00    +0.000 C 
ATOM     11  C   UNL     1       1.369   5.139  20.753  0.00  0.00    +0.000 C 
ATOM     12  C   UNL     1       1.066   3.696  20.363  0.00  0.00    +0.000 C 
ATOM     13  C   UNL     1       2.392   3.142  19.801  0.00  0.00    +0.000 C 
BRANCH  13  14
ATOM     14  C   UNL     1       2.150   2.459  18.507  0.00  0.00    +0.000 C 
ATOM     15  N   UNL     1       2.021   1.921  17.489  0.00  0.00    +0.000 NA
ENDBRANCH  13  14
ENDBRANCH   4   7
BRANCH   1  16
ATOM     16  C   UNL     1       7.221   6.509  16.239  0.00  0.00    +0.000 C 
BRANCH  16  17
ATOM     17  C   UNL     1       7.727   5.184  15.672  0.00  0.00    +0.000 C 
BRANCH  17  21
ATOM     18  C   UNL     1       5.593   3.697  12.913  0.00  0.00    +0.000 C 
ATOM     19  N   UNL     1       6.143   3.990  14.222  0.00  0.00    +0.000 N 
ATOM     20  C   UNL     1       5.536   3.369  15.394  0.00  0.00    +0.000 C 
ATOM     21  C   UNL     1       7.204   4.889  14.281  0.00  0.00    +0.000 C 
ATOM     22  O   UNL     1       7.685   5.414  13.278  0.00  0.00    +0.000 OA
ENDBRANCH  17  21
ENDBRANCH  16  17
ENDBRANCH   1  16
TORSDOF 5
ENDMDL
MODEL 5
REMARK VINA RESULT:      -6.4      3.122      7.143
REMARK  Name = 
REMARK  7 active torsions:
REMARK  status: ('A' for Active; 'I' for Inactive)
REMARK    1  A    between atoms: C_1  and  N_2
REMARK    2  A    between atoms: N_2  and  C_3
REMARK    3  A    between atoms: C_4  and  C_6
REMARK    4  A    between atoms: C_6  and  C_7
REMARK    5  A    between atoms: C_7  and  C_8
REMARK    6  A    between atoms: C_11  and  C_12
REMARK    7  A    between atoms: C_18  and  C_19
REMARK                            x       y       z     vdW  Elec       q    Type
REMARK                         _______ _______ _______ _____ _____    ______ ____
ROOT
ATOM      1  C   UNL     1       6.395   6.151  17.611  0.00  0.00    +0.000 C 
ATOM      2  C   UNL     1       6.961   5.127  18.583  0.00  0.00    +0.000 C 
ATOM      3  N   UNL     1       5.957   5.073  19.655  0.00  0.00    +0.000 NA
ATOM      4  C   UNL     1       4.634   5.242  18.990  0.00  0.00    +0.000 C 
ATOM      5  C   UNL     1       4.906   5.827  17.608  0.00  0.00    +0.000 C 
ATOM      6  H   UNL     1       6.110   5.874  20.267  0.00  0.00    +0.000 HD
ENDROOT
BRANCH   4   7
ATOM      7  C   UNL     1       3.898   3.877  18.955  0.00  0.00    +0.000 C 
ATOM      8  O   UNL     1       4.183   2.987  18.153  0.00  0.00    +0.000 OA
ATOM      9  N   UNL     1       2.913   3.687  19.907  0.00  0.00    +0.000 N 
ATOM     10  C   UNL     1       2.516   4.608  20.952  0.00  0.00    +0.000 C 
ATOM     11  C   UNL     1       2.164   3.688  22.101  0.00  0.00    +0.000 C 
ATOM     12  C   UNL     1       1.526   2.486  21.413  0.00  0.00    +0.000 C 
ATOM     13  C   UNL     1       2.187   2.421  20.020  0.00  0.00    +0.000 C 
BRANCH  13  14
ATOM     14  C   UNL     1       1.149   2.271  18.971  0.00  0.00    +0.000 C 
ATOM     15  N   UNL     1       0.303   2.190  18.184  0.00  0.00    +0.000 NA
ENDBRANCH  13  14
ENDBRANCH   4   7
BRANCH   1  16
ATOM     16  C   UNL     1       7.052   6.170  16.227  0.00  0.00    +0.000 C 
BRANCH  16  17
ATOM     17  C   UNL     1       6.608   5.029  15.312  0.00  0.00    +0.000 C 
BRANCH  17  21
ATOM     18  C   UNL     1       7.321   4.254  11.671  0.00  0.00    +0.000 C 
ATOM     19  N   UNL     1       6.704   4.258  12.981  0.00  0.00    +0.000 N 
ATOM     20  C   UNL     1       5.480   3.490  13.184  0.00  0.00    +0.000 C 
ATOM     21  C   UNL     1       7.304   5.036  13.966  0.00  0.00    +0.000 C 
ATOM     22  O   UNL     1       8.326   5.690  13.764  0.00  0.00    +0.000 OA
ENDBRANCH  17  21
ENDBRANCH  16  17
ENDBRANCH   1  16
TORSDOF 5
ENDMDL
MODEL 6
REMARK VINA RESULT:      -6.4      0.984      1.078
REMARK  Name = 
REMARK  7 active torsions:
REMARK  status: ('A' for Active; 'I' for Inactive)
REMARK    1  A    between atoms: C_1  and  N_2
REMARK    2  A    between atoms: N_2  and  C_3
REMARK    3  A    between atoms: C_4  and  C_6
REMARK    4  A    between atoms: C_6  and  C_7
REMARK    5  A    between atoms: C_7  and  C_8
REMARK    6  A    between atoms: C_11  and  C_12
REMARK    7  A    between atoms: C_18  and  C_19
REMARK                            x       y       z     vdW  Elec       q    Type
REMARK                         _______ _______ _______ _____ _____    ______ ____
ROOT
ATOM      1  C   UNL     1       1.688   5.519  20.286  0.00  0.00    +0.000 C 
ATOM      2  C   UNL     1       2.426   4.453  21.081  0.00  0.00    +0.000 C 
ATOM      3  N   UNL     1       2.993   3.576  20.046  0.00  0.00    +0.000 NA
ATOM      4  C   UNL     1       3.375   4.467  18.914  0.00  0.00    +0.000 C 
ATOM      5  C   UNL     1       2.633   5.784  19.119  0.00  0.00    +0.000 C 
ATOM      6  H   UNL     1       2.252   2.954  19.724  0.00  0.00    +0.000 HD
ENDROOT
BRANCH   4   7
ATOM      7  C   UNL     1       4.918   4.621  18.880  0.00  0.00    +0.000 C 
ATOM      8  O   UNL     1       5.613   4.604  19.897  0.00  0.00    +0.000 OA
ATOM      9  N   UNL     1       5.494   4.745  17.628  0.00  0.00    +0.000 N 
ATOM     10  C   UNL     1       4.819   4.713  16.347  0.00  0.00    +0.000 C 
ATOM     11  C   UNL     1       5.822   4.022  15.450  0.00  0.00    +0.000 C 
ATOM     12  C   UNL     1       7.167   4.535  15.957  0.00  0.00    +0.000 C 
ATOM     13  C   UNL     1       6.945   4.834  17.454  0.00  0.00    +0.000 C 
BRANCH  13  14
ATOM     14  C   UNL     1       7.469   6.182  17.787  0.00  0.00    +0.000 C 
ATOM     15  N   UNL     1       7.904   7.210  18.095  0.00  0.00    +0.000 NA
ENDBRANCH  13  14
ENDBRANCH   4   7
BRANCH   1  16
ATOM     16  C   UNL     1       1.284   6.764  21.081  0.00  0.00    +0.000 C 
BRANCH  16  17
ATOM     17  C   UNL     1       1.766   8.078  20.469  0.00  0.00    +0.000 C 
BRANCH  17  21
ATOM     18  C   UNL     1      -0.344  10.650  18.651  0.00  0.00    +0.000 C 
ATOM     19  N   UNL     1       0.723   9.723  18.971  0.00  0.00    +0.000 N 
ATOM     20  C   UNL     1       1.786   9.511  17.996  0.00  0.00    +0.000 C 
ATOM     21  C   UNL     1       0.642   9.055  20.189  0.00  0.00    +0.000 C 
ATOM     22  O   UNL     1      -0.276   9.238  20.987  0.00  0.00    +0.000 OA
ENDBRANCH  17  21
ENDBRANCH  16  17
ENDBRANCH   1  16
TORSDOF 5
ENDMDL
MODEL 7
REMARK VINA RESULT:      -6.4      3.112      7.003
REMARK  Name = 
REMARK  7 active torsions:
REMARK  status: ('A' for Active; 'I' for Inactive)
REMARK    1  A    between atoms: C_1  and  N_2
REMARK    2  A    between atoms: N_2  and  C_3
REMARK    3  A    between atoms: C_4  and  C_6
REMARK    4  A    between atoms: C_6  and  C_7
REMARK    5  A    between atoms: C_7  and  C_8
REMARK    6  A    between atoms: C_11  and  C_12
REMARK    7  A    between atoms: C_18  and  C_19
REMARK                            x       y       z     vdW  Elec       q    Type
REMARK                         _______ _______ _______ _____ _____    ______ ____
ROOT
ATOM      1  C   UNL     1       6.279   5.984  17.196  0.00  0.00    +0.000 C 
ATOM      2  C   UNL     1       6.950   4.830  17.924  0.00  0.00    +0.000 C 
ATOM      3  N   UNL     1       6.189   4.719  19.177  0.00  0.00    +0.000 NA
ATOM      4  C   UNL     1       4.775   5.037  18.831  0.00  0.00    +0.000 C 
ATOM      5  C   UNL     1       4.800   5.751  17.483  0.00  0.00    +0.000 C 
ATOM      6  H   UNL     1       6.530   5.439  19.814  0.00  0.00    +0.000 HD
ENDROOT
BRANCH   4   7
ATOM      7  C   UNL     1       3.941   3.730  18.827  0.00  0.00    +0.000 C 
ATOM      8  O   UNL     1       4.146   2.810  18.035  0.00  0.00    +0.000 OA
ATOM      9  N   UNL     1       2.960   3.626  19.797  0.00  0.00    +0.000 N 
ATOM     10  C   UNL     1       2.649   4.588  20.834  0.00  0.00    +0.000 C 
ATOM     11  C   UNL     1       2.250   3.714  22.003  0.00  0.00    +0.000 C 
ATOM     12  C   UNL     1       1.513   2.552  21.343  0.00  0.00    +0.000 C 
ATOM     13  C   UNL     1       2.145   2.419  19.941  0.00  0.00    +0.000 C 
BRANCH  13  14
ATOM     14  C   UNL     1       1.081   2.332  18.911  0.00  0.00    +0.000 C 
ATOM     15  N   UNL     1       0.212   2.249  18.149  0.00  0.00    +0.000 NA
ENDBRANCH  13  14
ENDBRANCH   4   7
BRANCH   1  16
ATOM     16  C   UNL     1       6.633   6.114  15.712  0.00  0.00    +0.000 C 
BRANCH  16  17
ATOM     17  C   UNL     1       7.163   4.826  15.084  0.00  0.00    +0.000 C 
BRANCH  17  21
ATOM     18  C   UNL     1       5.363   3.209  12.165  0.00  0.00    +0.000 C 
ATOM     19  N   UNL     1       6.333   3.955  12.941  0.00  0.00    +0.000 N 
ATOM     20  C   UNL     1       7.497   4.513  12.262  0.00  0.00    +0.000 C 
ATOM     21  C   UNL     1       6.109   4.059  14.310  0.00  0.00    +0.000 C 
ATOM     22  O   UNL     1       5.128   3.563  14.862  0.00  0.00    +0.000 OA
ENDBRANCH  17  21
ENDBRANCH  16  17
ENDBRANCH   1  16
TORSDOF 5
ENDMDL
MODEL 8
REMARK VINA RESULT:      -6.2      3.616      6.464
REMARK  Name = 
REMARK  7 active torsions:
REMARK  status: ('A' for Active; 'I' for Inactive)
REMARK    1  A    between atoms: C_1  and  N_2
REMARK    2  A    between atoms: N_2  and  C_3
REMARK    3  A    between atoms: C_4  and  C_6
REMARK    4  A    between atoms: C_6  and  C_7
REMARK    5  A    between atoms: C_7  and  C_8
REMARK    6  A    between atoms: C_11  and  C_12
REMARK    7  A    between atoms: C_18  and  C_19
REMARK                            x       y       z     vdW  Elec       q    Type
REMARK                         _______ _______ _______ _____ _____    ______ ____
ROOT
ATOM      1  C   UNL     1       7.772   7.655  17.650  0.00  0.00    +0.000 C 
ATOM      2  C   UNL     1       6.331   8.138  17.719  0.00  0.00    +0.000 C 
ATOM      3  N   UNL     1       5.564   7.029  17.135  0.00  0.00    +0.000 NA
ATOM      4  C   UNL     1       6.254   5.779  17.561  0.00  0.00    +0.000 C 
ATOM      5  C   UNL     1       7.653   6.181  18.019  0.00  0.00    +0.000 C 
ATOM      6  H   UNL     1       5.635   7.101  16.120  0.00  0.00    +0.000 HD
ENDROOT
BRANCH   4   7
ATOM      7  C   UNL     1       5.416   5.080  18.663  0.00  0.00    +0.000 C 
ATOM      8  O   UNL     1       5.468   5.406  19.849  0.00  0.00    +0.000 OA
ATOM      9  N   UNL     1       4.562   4.076  18.239  0.00  0.00    +0.000 N 
ATOM     10  C   UNL     1       4.342   3.632  16.879  0.00  0.00    +0.000 C 
ATOM     11  C   UNL     1       2.871   3.276  16.870  0.00  0.00    +0.000 C 
ATOM     12  C   UNL     1       2.640   2.685  18.258  0.00  0.00    +0.000 C 
ATOM     13  C   UNL     1       3.672   3.380  19.169  0.00  0.00    +0.000 C 
BRANCH  13  14
ATOM     14  C   UNL     1       4.389   2.372  19.988  0.00  0.00    +0.000 C 
ATOM     15  N   UNL     1       4.997   1.621  20.627  0.00  0.00    +0.000 NA
ENDBRANCH  13  14
ENDBRANCH   4   7
BRANCH   1  16
ATOM     16  C   UNL     1       8.769   8.452  18.497  0.00  0.00    +0.000 C 
BRANCH  16  17
ATOM     17  C   UNL     1       8.598   9.967  18.399  0.00  0.00    +0.000 C 
BRANCH  17  21
ATOM     18  C   UNL     1      11.142  12.284  19.990  0.00  0.00    +0.000 C 
ATOM     19  N   UNL     1      10.403  11.521  19.005  0.00  0.00    +0.000 N 
ATOM     20  C   UNL     1      10.760  11.657  17.598  0.00  0.00    +0.000 C 
ATOM     21  C   UNL     1       9.359  10.725  19.468  0.00  0.00    +0.000 C 
ATOM     22  O   UNL     1       9.065  10.643  20.659  0.00  0.00    +0.000 OA
ENDBRANCH  17  21
ENDBRANCH  16  17
ENDBRANCH   1  16
TORSDOF 5
ENDMDL
MODEL 9
REMARK VINA RESULT:      -6.2      3.733      6.575
REMARK  Name = 
REMARK  7 active torsions:
REMARK  status: ('A' for Active; 'I' for Inactive)
REMARK    1  A    between atoms: C_1  and  N_2
REMARK    2  A    between atoms: N_2  and  C_3
REMARK    3  A    between atoms: C_4  and  C_6
REMARK    4  A    between atoms: C_6  and  C_7
REMARK    5  A    between atoms: C_7  and  C_8
REMARK    6  A    between atoms: C_11  and  C_12
REMARK    7  A    between atoms: C_18  and  C_19
REMARK                            x       y       z     vdW  Elec       q    Type
REMARK                         _______ _______ _______ _____ _____    ______ ____
ROOT
ATOM      1  C   UNL     1       7.794   7.754  17.629  0.00  0.00    +0.000 C 
ATOM      2  C   UNL     1       6.328   8.161  17.619  0.00  0.00    +0.000 C 
ATOM      3  N   UNL     1       5.644   6.984  17.064  0.00  0.00    +0.000 NA
ATOM      4  C   UNL     1       6.381   5.796  17.581  0.00  0.00    +0.000 C 
ATOM      5  C   UNL     1       7.737   6.296  18.069  0.00  0.00    +0.000 C 
ATOM      6  H   UNL     1       5.752   7.009  16.051  0.00  0.00    +0.000 HD
ENDROOT
BRANCH   4   7
ATOM      7  C   UNL     1       5.537   5.108  18.685  0.00  0.00    +0.000 C 
ATOM      8  O   UNL     1       5.605   5.427  19.872  0.00  0.00    +0.000 OA
ATOM      9  N   UNL     1       4.660   4.125  18.262  0.00  0.00    +0.000 N 
ATOM     10  C   UNL     1       4.420   3.692  16.901  0.00  0.00    +0.000 C 
ATOM     11  C   UNL     1       2.942   3.367  16.902  0.00  0.00    +0.000 C 
ATOM     12  C   UNL     1       2.709   2.773  18.288  0.00  0.00    +0.000 C 
ATOM     13  C   UNL     1       3.762   3.442  19.195  0.00  0.00    +0.000 C 
BRANCH  13  14
ATOM     14  C   UNL     1       4.465   2.415  20.003  0.00  0.00    +0.000 C 
ATOM     15  N   UNL     1       4.998   1.572  20.592  0.00  0.00    +0.000 NA
ENDBRANCH  13  14
ENDBRANCH   4   7
BRANCH   1  16
ATOM     16  C   UNL     1       8.713   8.645  18.471  0.00  0.00    +0.000 C 
BRANCH  16  17
ATOM     17  C   UNL     1       8.501  10.142  18.251  0.00  0.00    +0.000 C 
BRANCH  17  21
ATOM     18  C   UNL     1      11.231  12.129  19.974  0.00  0.00    +0.000 C 
ATOM     19  N   UNL     1      10.021  11.366  19.744  0.00  0.00    +0.000 N 
ATOM     20  C   UNL     1       9.172  11.034  20.882  0.00  0.00    +0.000 C 
ATOM     21  C   UNL     1       9.763  10.959  18.438  0.00  0.00    +0.000 C 
ATOM     22  O   UNL     1      10.506  11.236  17.498  0.00  0.00    +0.000 OA
ENDBRANCH  17  21
ENDBRANCH  16  17
ENDBRANCH   1  16
TORSDOF 5
ENDMDL
