MODEL 1
REMARK VINA RESULT:      -9.1      0.000      0.000
REMARK  Name = 
REMARK  6 active torsions:
REMARK  status: ('A' for Active; 'I' for Inactive)
REMARK    1  A    between atoms: N_1  and  S_2
REMARK    2  A    between atoms: S_2  and  C_5
REMARK    3  A    between atoms: C_8  and  N_9
REMARK    4  A    between atoms: N_9  and  C_10
REMARK    5  A    between atoms: C_10  and  N_12
REMARK    6  A    between atoms: C_13  and  C_15
REMARK                            x       y       z     vdW  Elec       q    Type
REMARK                         _______ _______ _______ _____ _____    ______ ____
ROOT
ATOM      1  C   UNL     1       3.290   4.402  19.464  0.00  0.00    +0.000 C 
ATOM      2  S   UNL     1       3.143   2.750  19.677  0.00  0.00    +0.000 S 
ENDROOT
BRANCH   1   3
ATOM      3  N   UNL     1       4.062   4.853  18.401  0.00  0.00    +0.000 N 
ATOM      4  C   UNL     1       5.408   4.619  18.215  0.00  0.00    +0.000 C 
ATOM      5  O   UNL     1       6.133   4.231  19.138  0.00  0.00    +0.000 OA
ATOM      6  H   UNL     1       3.535   5.299  17.650  0.00  0.00    +0.000 HD
BRANCH   4   7
ATOM      7  C   UNL     1       5.992   4.878  16.872  0.00  0.00    +0.000 A 
ATOM      8  C   UNL     1       5.508   4.096  15.896  0.00  0.00    +0.000 A 
ATOM      9  C   UNL     1       6.012   4.184  14.539  0.00  0.00    +0.000 A 
ATOM     10  C   UNL     1       5.445   3.454  13.502  0.00  0.00    +0.000 A 
ATOM     11  C   UNL     1       6.008   3.511  12.226  0.00  0.00    +0.000 A 
ATOM     12  C   UNL     1       7.158   4.272  12.003  0.00  0.00    +0.000 A 
ATOM     13  C   UNL     1       7.724   5.015  13.042  0.00  0.00    +0.000 A 
ATOM     14  C   UNL     1       7.125   4.984  14.299  0.00  0.00    +0.000 A 
ATOM     15  O   UNL     1       7.640   5.812  15.322  0.00  0.00    +0.000 OA
ATOM     16  C   UNL     1       7.017   5.894  16.570  0.00  0.00    +0.000 A 
ATOM     17  O   UNL     1       7.318   6.754  17.395  0.00  0.00    +0.000 OA
ENDBRANCH   4   7
ENDBRANCH   1   3
BRANCH   1  18
ATOM     18  N   UNL     1       2.701   5.393  20.222  0.00  0.00    +0.000 N 
ATOM     19  H   UNL     1       2.561   5.142  21.201  0.00  0.00    +0.000 HD
BRANCH  18  23
ATOM     20  C   UNL     1       1.405   9.286  19.279  0.00  0.00    +0.000 A 
ATOM     21  C   UNL     1       2.057   8.531  18.301  0.00  0.00    +0.000 A 
ATOM     22  C   UNL     1       2.513   7.245  18.606  0.00  0.00    +0.000 A 
ATOM     23  C   UNL     1       2.318   6.707  19.882  0.00  0.00    +0.000 A 
ATOM     24  C   UNL     1       1.624   7.456  20.841  0.00  0.00    +0.000 A 
ATOM     25  C   UNL     1       1.189   8.754  20.554  0.00  0.00    +0.000 A 
BRANCH  20  26
ATOM     26  S   UNL     1       0.860  10.922  18.900  0.00  0.00    +0.000 S 
ATOM     27  O   UNL     1       1.052  11.766  20.057  0.00  0.00    +0.000 OA
ATOM     28  O   UNL     1      -0.393  10.860  18.185  0.00  0.00    +0.000 OA
BRANCH  26  29
ATOM     29  N   UNL     1       1.993  11.425  17.764  0.00  0.00    +0.000 NA
ATOM     30  H   UNL     1       2.744  11.930  18.236  0.00  0.00    +0.000 HD
ATOM     31  H   UNL     1       1.532  11.966  17.034  0.00  0.00    +0.000 HD
ENDBRANCH  26  29
ENDBRANCH  20  26
ENDBRANCH  18  23
ENDBRANCH   1  18
TORSDOF 6
ENDMDL
MODEL 2
REMARK VINA RESULT:      -9.0      0.424      1.019
REMARK  Name = 
REMARK  6 active torsions:
REMARK  status: ('A' for Active; 'I' for Inactive)
REMARK    1  A    between atoms: N_1  and  S_2
REMARK    2  A    between atoms: S_2  and  C_5
REMARK    3  A    between atoms: C_8  and  N_9
REMARK    4  A    between atoms: N_9  and  C_10
REMARK    5  A    between atoms: C_10  and  N_12
REMARK    6  A    between atoms: C_13  and  C_15
REMARK                            x       y       z     vdW  Elec       q    Type
REMARK                         _______ _______ _______ _____ _____    ______ ____
ROOT
ATOM      1  C   UNL     1       3.132   4.365  19.229  0.00  0.00    +0.000 C 
ATOM      2  S   UNL     1       2.622   2.773  19.220  0.00  0.00    +0.000 S 
ENDROOT
BRANCH   1   3
ATOM      3  N   UNL     1       3.919   4.801  18.170  0.00  0.00    +0.000 N 
ATOM      4  C   UNL     1       5.294   4.720  18.090  0.00  0.00    +0.000 C 
ATOM      5  O   UNL     1       5.991   4.519  19.091  0.00  0.00    +0.000 OA
ATOM      6  H   UNL     1       3.399   5.101  17.346  0.00  0.00    +0.000 HD
BRANCH   4   7
ATOM      7  C   UNL     1       5.937   4.914  16.764  0.00  0.00    +0.000 A 
ATOM      8  C   UNL     1       5.402   4.184  15.775  0.00  0.00    +0.000 A 
ATOM      9  C   UNL     1       5.949   4.216  14.432  0.00  0.00    +0.000 A 
ATOM     10  C   UNL     1       5.338   3.547  13.379  0.00  0.00    +0.000 A 
ATOM     11  C   UNL     1       5.938   3.542  12.120  0.00  0.00    +0.000 A 
ATOM     12  C   UNL     1       7.166   4.180  11.928  0.00  0.00    +0.000 A 
ATOM     13  C   UNL     1       7.778   4.864  12.983  0.00  0.00    +0.000 A 
ATOM     14  C   UNL     1       7.144   4.897  14.223  0.00  0.00    +0.000 A 
ATOM     15  O   UNL     1       7.714   5.670  15.260  0.00  0.00    +0.000 OA
ATOM     16  C   UNL     1       7.070   5.819  16.491  0.00  0.00    +0.000 A 
ATOM     17  O   UNL     1       7.435   6.644  17.324  0.00  0.00    +0.000 OA
ENDBRANCH   4   7
ENDBRANCH   1   3
BRANCH   1  18
ATOM     18  N   UNL     1       2.835   5.328  20.172  0.00  0.00    +0.000 N 
ATOM     19  H   UNL     1       3.147   5.095  21.117  0.00  0.00    +0.000 HD
BRANCH  18  23
ATOM     20  C   UNL     1       1.178   9.168  19.702  0.00  0.00    +0.000 A 
ATOM     21  C   UNL     1       0.983   8.487  20.906  0.00  0.00    +0.000 A 
ATOM     22  C   UNL     1       1.509   7.202  21.068  0.00  0.00    +0.000 A 
ATOM     23  C   UNL     1       2.231   6.594  20.037  0.00  0.00    +0.000 A 
ATOM     24  C   UNL     1       2.458   7.305  18.851  0.00  0.00    +0.000 A 
ATOM     25  C   UNL     1       1.911   8.580  18.668  0.00  0.00    +0.000 A 
BRANCH  20  26
ATOM     26  S   UNL     1       0.483  10.778  19.488  0.00  0.00    +0.000 S 
ATOM     27  O   UNL     1       1.014  11.661  20.501  0.00  0.00    +0.000 OA
ATOM     28  O   UNL     1      -0.932  10.662  19.225  0.00  0.00    +0.000 OA
BRANCH  26  29
ATOM     29  N   UNL     1       1.164  11.274  18.033  0.00  0.00    +0.000 NA
ATOM     30  H   UNL     1       0.864  10.645  17.288  0.00  0.00    +0.000 HD
ATOM     31  H   UNL     1       2.177  11.337  18.131  0.00  0.00    +0.000 HD
ENDBRANCH  26  29
ENDBRANCH  20  26
ENDBRANCH  18  23
ENDBRANCH   1  18
TORSDOF 6
ENDMDL
MODEL 3
REMARK VINA RESULT:      -8.9      1.182      1.525
REMARK  Name = 
REMARK  6 active torsions:
REMARK  status: ('A' for Active; 'I' for Inactive)
REMARK    1  A    between atoms: N_1  and  S_2
REMARK    2  A    between atoms: S_2  and  C_5
REMARK    3  A    between atoms: C_8  and  N_9
REMARK    4  A    between atoms: N_9  and  C_10
REMARK    5  A    between atoms: C_10  and  N_12
REMARK    6  A    between atoms: C_13  and  C_15
REMARK                            x       y       z     vdW  Elec       q    Type
REMARK                         _______ _______ _______ _____ _____    ______ ____
ROOT
ATOM      1  C   UNL     1       2.684   5.240  18.959  0.00  0.00    +0.000 C 
ATOM      2  S   UNL     1       1.781   3.834  18.918  0.00  0.00    +0.000 S 
ENDROOT
BRANCH   1   3
ATOM      3  N   UNL     1       3.546   5.490  17.899  0.00  0.00    +0.000 N 
ATOM      4  C   UNL     1       4.921   5.380  17.923  0.00  0.00    +0.000 C 
ATOM      5  O   UNL     1       5.549   5.335  18.986  0.00  0.00    +0.000 OA
ATOM      6  H   UNL     1       3.086   5.660  17.005  0.00  0.00    +0.000 HD
BRANCH   4   7
ATOM      7  C   UNL     1       5.651   5.351  16.628  0.00  0.00    +0.000 A 
ATOM      8  C   UNL     1       5.104   4.552  15.700  0.00  0.00    +0.000 A 
ATOM      9  C   UNL     1       5.723   4.368  14.402  0.00  0.00    +0.000 A 
ATOM     10  C   UNL     1       5.110   3.628  13.399  0.00  0.00    +0.000 A 
ATOM     11  C   UNL     1       5.775   3.414  12.191  0.00  0.00    +0.000 A 
ATOM     12  C   UNL     1       7.066   3.914  12.005  0.00  0.00    +0.000 A 
ATOM     13  C   UNL     1       7.681   4.669  13.009  0.00  0.00    +0.000 A 
ATOM     14  C   UNL     1       6.987   4.912  14.192  0.00  0.00    +0.000 A 
ATOM     15  O   UNL     1       7.570   5.757  15.164  0.00  0.00    +0.000 OA
ATOM     16  C   UNL     1       6.876   6.113  16.323  0.00  0.00    +0.000 A 
ATOM     17  O   UNL     1       7.272   7.002  17.074  0.00  0.00    +0.000 OA
ENDBRANCH   4   7
ENDBRANCH   1   3
BRANCH   1  18
ATOM     18  N   UNL     1       2.656   6.218  19.933  0.00  0.00    +0.000 N 
ATOM     19  H   UNL     1       3.253   6.022  20.737  0.00  0.00    +0.000 HD
BRANCH  18  23
ATOM     20  C   UNL     1       0.796   9.994  19.968  0.00  0.00    +0.000 A 
ATOM     21  C   UNL     1       0.801   9.228  21.136  0.00  0.00    +0.000 A 
ATOM     22  C   UNL     1       1.395   7.963  21.133  0.00  0.00    +0.000 A 
ATOM     23  C   UNL     1       1.989   7.459  19.972  0.00  0.00    +0.000 A 
ATOM     24  C   UNL     1       2.016   8.255  18.819  0.00  0.00    +0.000 A 
ATOM     25  C   UNL     1       1.399   9.510  18.804  0.00  0.00    +0.000 A 
BRANCH  20  26
ATOM     26  S   UNL     1       0.015  11.578  19.966  0.00  0.00    +0.000 S 
ATOM     27  O   UNL     1      -1.273  11.472  20.611  0.00  0.00    +0.000 OA
ATOM     28  O   UNL     1       0.186  12.198  18.673  0.00  0.00    +0.000 OA
BRANCH  26  29
ATOM     29  N   UNL     1       0.990  12.461  21.012  0.00  0.00    +0.000 NA
ATOM     30  H   UNL     1       1.953  12.134  20.934  0.00  0.00    +0.000 HD
ATOM     31  H   UNL     1       0.616  12.408  21.959  0.00  0.00    +0.000 HD
ENDBRANCH  26  29
ENDBRANCH  20  26
ENDBRANCH  18  23
ENDBRANCH   1  18
TORSDOF 6
ENDMDL
MODEL 4
REMARK VINA RESULT:      -8.9      1.179      1.403
REMARK  Name = 
REMARK  6 active torsions:
REMARK  status: ('A' for Active; 'I' for Inactive)
REMARK    1  A    between atoms: N_1  and  S_2
REMARK    2  A    between atoms: S_2  and  C_5
REMARK    3  A    between atoms: C_8  and  N_9
REMARK    4  A    between atoms: N_9  and  C_10
REMARK    5  A    between atoms: C_10  and  N_12
REMARK    6  A    between atoms: C_13  and  C_15
REMARK                            x       y       z     vdW  Elec       q    Type
REMARK                         _______ _______ _______ _____ _____    ______ ____
ROOT
ATOM      1  C   UNL     1       2.757   5.433  19.130  0.00  0.00    +0.000 C 
ATOM      2  S   UNL     1       1.938   3.977  19.118  0.00  0.00    +0.000 S 
ENDROOT
BRANCH   1   3
ATOM      3  N   UNL     1       3.701   5.656  18.136  0.00  0.00    +0.000 N 
ATOM      4  C   UNL     1       4.936   5.050  18.036  0.00  0.00    +0.000 C 
ATOM      5  O   UNL     1       5.450   4.463  18.994  0.00  0.00    +0.000 OA
ATOM      6  H   UNL     1       3.380   6.240  17.364  0.00  0.00    +0.000 HD
BRANCH   4   7
ATOM      7  C   UNL     1       5.667   5.143  16.744  0.00  0.00    +0.000 A 
ATOM      8  C   UNL     1       5.166   4.376  15.765  0.00  0.00    +0.000 A 
ATOM      9  C   UNL     1       5.794   4.310  14.461  0.00  0.00    +0.000 A 
ATOM     10  C   UNL     1       5.224   3.602  13.410  0.00  0.00    +0.000 A 
ATOM     11  C   UNL     1       5.900   3.503  12.194  0.00  0.00    +0.000 A 
ATOM     12  C   UNL     1       7.161   4.084  12.045  0.00  0.00    +0.000 A 
ATOM     13  C   UNL     1       7.733   4.807  13.097  0.00  0.00    +0.000 A 
ATOM     14  C   UNL     1       7.026   4.935  14.290  0.00  0.00    +0.000 A 
ATOM     15  O   UNL     1       7.561   5.746  15.316  0.00  0.00    +0.000 OA
ATOM     16  C   UNL     1       6.849   5.990  16.493  0.00  0.00    +0.000 A 
ATOM     17  O   UNL     1       7.194   6.849  17.300  0.00  0.00    +0.000 OA
ENDBRANCH   4   7
ENDBRANCH   1   3
BRANCH   1  18
ATOM     18  N   UNL     1       2.584   6.477  20.016  0.00  0.00    +0.000 N 
ATOM     19  H   UNL     1       3.009   6.322  20.931  0.00  0.00    +0.000 HD
BRANCH  18  23
ATOM     20  C   UNL     1       0.622  10.178  19.598  0.00  0.00    +0.000 A 
ATOM     21  C   UNL     1       1.257   9.617  18.488  0.00  0.00    +0.000 A 
ATOM     22  C   UNL     1       1.932   8.399  18.617  0.00  0.00    +0.000 A 
ATOM     23  C   UNL     1       1.972   7.736  19.847  0.00  0.00    +0.000 A 
ATOM     24  C   UNL     1       1.294   8.287  20.943  0.00  0.00    +0.000 A 
ATOM     25  C   UNL     1       0.641   9.519  20.830  0.00  0.00    +0.000 A 
BRANCH  20  26
ATOM     26  S   UNL     1      -0.201  11.733  19.439  0.00  0.00    +0.000 S 
ATOM     27  O   UNL     1      -1.017  11.718  18.247  0.00  0.00    +0.000 OA
ATOM     28  O   UNL     1       0.727  12.801  19.730  0.00  0.00    +0.000 OA
BRANCH  26  29
ATOM     29  N   UNL     1      -1.269  11.709  20.737  0.00  0.00    +0.000 NA
ATOM     30  H   UNL     1      -2.172  12.080  20.438  0.00  0.00    +0.000 HD
ATOM     31  H   UNL     1      -0.863  12.211  21.526  0.00  0.00    +0.000 HD
ENDBRANCH  26  29
ENDBRANCH  20  26
ENDBRANCH  18  23
ENDBRANCH   1  18
TORSDOF 6
ENDMDL
MODEL 5
REMARK VINA RESULT:      -8.4      3.540      5.306
REMARK  Name = 
REMARK  6 active torsions:
REMARK  status: ('A' for Active; 'I' for Inactive)
REMARK    1  A    between atoms: N_1  and  S_2
REMARK    2  A    between atoms: S_2  and  C_5
REMARK    3  A    between atoms: C_8  and  N_9
REMARK    4  A    between atoms: N_9  and  C_10
REMARK    5  A    between atoms: C_10  and  N_12
REMARK    6  A    between atoms: C_13  and  C_15
REMARK                            x       y       z     vdW  Elec       q    Type
REMARK                         _______ _______ _______ _____ _____    ______ ____
ROOT
ATOM      1  C   UNL     1       0.992   9.346  20.581  0.00  0.00    +0.000 C 
ATOM      2  S   UNL     1       1.016   9.321  22.252  0.00  0.00    +0.000 S 
ENDROOT
BRANCH   1   3
ATOM      3  N   UNL     1       1.469   8.229  19.907  0.00  0.00    +0.000 N 
ATOM      4  C   UNL     1       2.152   8.230  18.709  0.00  0.00    +0.000 C 
ATOM      5  O   UNL     1       2.147   9.214  17.960  0.00  0.00    +0.000 OA
ATOM      6  H   UNL     1       1.392   7.353  20.424  0.00  0.00    +0.000 HD
BRANCH   4   7
ATOM      7  C   UNL     1       2.880   6.997  18.308  0.00  0.00    +0.000 A 
ATOM      8  C   UNL     1       3.824   7.187  17.375  0.00  0.00    +0.000 A 
ATOM      9  C   UNL     1       4.587   6.079  16.836  0.00  0.00    +0.000 A 
ATOM     10  C   UNL     1       5.637   6.278  15.949  0.00  0.00    +0.000 A 
ATOM     11  C   UNL     1       6.295   5.179  15.396  0.00  0.00    +0.000 A 
ATOM     12  C   UNL     1       5.877   3.884  15.708  0.00  0.00    +0.000 A 
ATOM     13  C   UNL     1       4.827   3.680  16.609  0.00  0.00    +0.000 A 
ATOM     14  C   UNL     1       4.209   4.786  17.187  0.00  0.00    +0.000 A 
ATOM     15  O   UNL     1       3.216   4.576  18.171  0.00  0.00    +0.000 OA
ATOM     16  C   UNL     1       2.635   5.648  18.853  0.00  0.00    +0.000 A 
ATOM     17  O   UNL     1       1.931   5.486  19.847  0.00  0.00    +0.000 OA
ENDBRANCH   4   7
ENDBRANCH   1   3
BRANCH   1  18
ATOM     18  N   UNL     1       0.520  10.359  19.771  0.00  0.00    +0.000 N 
ATOM     19  H   UNL     1       1.252  10.943  19.364  0.00  0.00    +0.000 HD
BRANCH  18  23
ATOM     20  C   UNL     1      -3.349  11.310  18.414  0.00  0.00    +0.000 A 
ATOM     21  C   UNL     1      -2.783  12.071  19.439  0.00  0.00    +0.000 A 
ATOM     22  C   UNL     1      -1.508  11.753  19.915  0.00  0.00    +0.000 A 
ATOM     23  C   UNL     1      -0.793  10.682  19.371  0.00  0.00    +0.000 A 
ATOM     24  C   UNL     1      -1.353   9.954  18.314  0.00  0.00    +0.000 A 
ATOM     25  C   UNL     1      -2.640  10.246  17.850  0.00  0.00    +0.000 A 
BRANCH  20  26
ATOM     26  S   UNL     1      -4.974  11.694  17.838  0.00  0.00    +0.000 S 
ATOM     27  O   UNL     1      -5.904  10.715  18.354  0.00  0.00    +0.000 OA
ATOM     28  O   UNL     1      -4.918  12.048  16.438  0.00  0.00    +0.000 OA
BRANCH  26  29
ATOM     29  N   UNL     1      -5.312  13.129  18.644  0.00  0.00    +0.000 NA
ATOM     30  H   UNL     1      -5.527  13.857  17.962  0.00  0.00    +0.000 HD
ATOM     31  H   UNL     1      -4.539  13.366  19.264  0.00  0.00    +0.000 HD
ENDBRANCH  26  29
ENDBRANCH  20  26
ENDBRANCH  18  23
ENDBRANCH   1  18
TORSDOF 6
ENDMDL
MODEL 6
REMARK VINA RESULT:      -8.4      4.282      6.824
REMARK  Name = 
REMARK  6 active torsions:
REMARK  status: ('A' for Active; 'I' for Inactive)
REMARK    1  A    between atoms: N_1  and  S_2
REMARK    2  A    between atoms: S_2  and  C_5
REMARK    3  A    between atoms: C_8  and  N_9
REMARK    4  A    between atoms: N_9  and  C_10
REMARK    5  A    between atoms: C_10  and  N_12
REMARK    6  A    between atoms: C_13  and  C_15
REMARK                            x       y       z     vdW  Elec       q    Type
REMARK                         _______ _______ _______ _____ _____    ______ ____
ROOT
ATOM      1  C   UNL     1       0.355  11.224  18.952  0.00  0.00    +0.000 C 
ATOM      2  S   UNL     1       0.984  12.272  20.093  0.00  0.00    +0.000 S 
ENDROOT
BRANCH   1   3
ATOM      3  N   UNL     1       0.728   9.888  19.021  0.00  0.00    +0.000 N 
ATOM      4  C   UNL     1       1.738   9.287  18.299  0.00  0.00    +0.000 C 
ATOM      5  O   UNL     1       2.220   9.817  17.292  0.00  0.00    +0.000 OA
ATOM      6  H   UNL     1       0.272   9.355  19.760  0.00  0.00    +0.000 HD
BRANCH   4   7
ATOM      7  C   UNL     1       2.223   7.952  18.740  0.00  0.00    +0.000 A 
ATOM      8  C   UNL     1       2.928   7.284  17.815  0.00  0.00    +0.000 A 
ATOM      9  C   UNL     1       3.426   5.946  18.066  0.00  0.00    +0.000 A 
ATOM     10  C   UNL     1       4.246   5.289  17.157  0.00  0.00    +0.000 A 
ATOM     11  C   UNL     1       4.641   3.974  17.403  0.00  0.00    +0.000 A 
ATOM     12  C   UNL     1       4.185   3.310  18.545  0.00  0.00    +0.000 A 
ATOM     13  C   UNL     1       3.369   3.972  19.467  0.00  0.00    +0.000 A 
ATOM     14  C   UNL     1       3.020   5.299  19.229  0.00  0.00    +0.000 A 
ATOM     15  O   UNL     1       2.278   5.995  20.210  0.00  0.00    +0.000 OA
ATOM     16  C   UNL     1       1.986   7.354  20.067  0.00  0.00    +0.000 A 
ATOM     17  O   UNL     1       1.531   8.025  20.990  0.00  0.00    +0.000 OA
ENDBRANCH   4   7
ENDBRANCH   1   3
BRANCH   1  18
ATOM     18  N   UNL     1      -0.534  11.532  17.941  0.00  0.00    +0.000 N 
ATOM     19  H   UNL     1      -0.093  11.692  17.034  0.00  0.00    +0.000 HD
BRANCH  18  23
ATOM     20  C   UNL     1      -4.737  11.667  18.098  0.00  0.00    +0.000 A 
ATOM     21  C   UNL     1      -4.115  11.246  16.921  0.00  0.00    +0.000 A 
ATOM     22  C   UNL     1      -2.719  11.218  16.847  0.00  0.00    +0.000 A 
ATOM     23  C   UNL     1      -1.941  11.603  17.943  0.00  0.00    +0.000 A 
ATOM     24  C   UNL     1      -2.578  11.979  19.133  0.00  0.00    +0.000 A 
ATOM     25  C   UNL     1      -3.973  12.039  19.207  0.00  0.00    +0.000 A 
BRANCH  20  26
ATOM     26  S   UNL     1      -6.501  11.733  18.177  0.00  0.00    +0.000 S 
ATOM     27  O   UNL     1      -7.013  10.411  18.452  0.00  0.00    +0.000 OA
ATOM     28  O   UNL     1      -7.001  12.550  17.096  0.00  0.00    +0.000 OA
BRANCH  26  29
ATOM     29  N   UNL     1      -6.765  12.635  19.571  0.00  0.00    +0.000 NA
ATOM     30  H   UNL     1      -7.630  12.325  20.016  0.00  0.00    +0.000 HD
ATOM     31  H   UNL     1      -6.757  13.629  19.344  0.00  0.00    +0.000 HD
ENDBRANCH  26  29
ENDBRANCH  20  26
ENDBRANCH  18  23
ENDBRANCH   1  18
TORSDOF 6
ENDMDL
MODEL 7
REMARK VINA RESULT:      -8.4      3.106      8.163
REMARK  Name = 
REMARK  6 active torsions:
REMARK  status: ('A' for Active; 'I' for Inactive)
REMARK    1  A    between atoms: N_1  and  S_2
REMARK    2  A    between atoms: S_2  and  C_5
REMARK    3  A    between atoms: C_8  and  N_9
REMARK    4  A    between atoms: N_9  and  C_10
REMARK    5  A    between atoms: C_10  and  N_12
REMARK    6  A    between atoms: C_13  and  C_15
REMARK                            x       y       z     vdW  Elec       q    Type
REMARK                         _______ _______ _______ _____ _____    ______ ____
ROOT
ATOM      1  C   UNL     1       2.745   3.872  20.799  0.00  0.00    +0.000 C 
ATOM      2  S   UNL     1       1.604   2.960  21.612  0.00  0.00    +0.000 S 
ENDROOT
BRANCH   1   3
ATOM      3  N   UNL     1       2.583   5.252  20.784  0.00  0.00    +0.000 N 
ATOM      4  C   UNL     1       2.048   5.998  19.755  0.00  0.00    +0.000 C 
ATOM      5  O   UNL     1       1.932   5.539  18.613  0.00  0.00    +0.000 OA
ATOM      6  H   UNL     1       2.783   5.714  21.670  0.00  0.00    +0.000 HD
BRANCH   4   7
ATOM      7  C   UNL     1       1.638   7.399  20.037  0.00  0.00    +0.000 A 
ATOM      8  C   UNL     1       1.000   7.567  21.204  0.00  0.00    +0.000 A 
ATOM      9  C   UNL     1       0.485   8.862  21.604  0.00  0.00    +0.000 A 
ATOM     10  C   UNL     1      -0.082   9.067  22.856  0.00  0.00    +0.000 A 
ATOM     11  C   UNL     1      -0.633  10.309  23.172  0.00  0.00    +0.000 A 
ATOM     12  C   UNL     1      -0.644  11.332  22.220  0.00  0.00    +0.000 A 
ATOM     13  C   UNL     1      -0.064  11.131  20.963  0.00  0.00    +0.000 A 
ATOM     14  C   UNL     1       0.522   9.900  20.679  0.00  0.00    +0.000 A 
ATOM     15  O   UNL     1       1.193   9.733  19.446  0.00  0.00    +0.000 OA
ATOM     16  C   UNL     1       1.882   8.553  19.152  0.00  0.00    +0.000 A 
ATOM     17  O   UNL     1       2.640   8.463  18.189  0.00  0.00    +0.000 OA
ENDBRANCH   4   7
ENDBRANCH   1   3
BRANCH   1  18
ATOM     18  N   UNL     1       3.868   3.408  20.146  0.00  0.00    +0.000 N 
ATOM     19  H   UNL     1       4.302   2.596  20.589  0.00  0.00    +0.000 HD
BRANCH  18  23
ATOM     20  C   UNL     1       5.687   4.505  16.512  0.00  0.00    +0.000 A 
ATOM     21  C   UNL     1       6.176   5.042  17.705  0.00  0.00    +0.000 A 
ATOM     22  C   UNL     1       5.567   4.704  18.918  0.00  0.00    +0.000 A 
ATOM     23  C   UNL     1       4.477   3.829  18.946  0.00  0.00    +0.000 A 
ATOM     24  C   UNL     1       4.024   3.263  17.747  0.00  0.00    +0.000 A 
ATOM     25  C   UNL     1       4.607   3.617  16.527  0.00  0.00    +0.000 A 
BRANCH  20  26
ATOM     26  S   UNL     1       6.436   4.960  14.979  0.00  0.00    +0.000 S 
ATOM     27  O   UNL     1       7.847   5.188  15.190  0.00  0.00    +0.000 OA
ATOM     28  O   UNL     1       5.591   5.910  14.293  0.00  0.00    +0.000 OA
BRANCH  26  29
ATOM     29  N   UNL     1       6.321   3.541  14.086  0.00  0.00    +0.000 NA
ATOM     30  H   UNL     1       7.182   3.405  13.554  0.00  0.00    +0.000 HD
ATOM     31  H   UNL     1       5.483   3.565  13.507  0.00  0.00    +0.000 HD
ENDBRANCH  26  29
ENDBRANCH  20  26
ENDBRANCH  18  23
ENDBRANCH   1  18
TORSDOF 6
ENDMDL
MODEL 8
REMARK VINA RESULT:      -8.3      1.278      1.296
REMARK  Name = 
REMARK  6 active torsions:
REMARK  status: ('A' for Active; 'I' for Inactive)
REMARK    1  A    between atoms: N_1  and  S_2
REMARK    2  A    between atoms: S_2  and  C_5
REMARK    3  A    between atoms: C_8  and  N_9
REMARK    4  A    between atoms: N_9  and  C_10
REMARK    5  A    between atoms: C_10  and  N_12
REMARK    6  A    between atoms: C_13  and  C_15
REMARK                            x       y       z     vdW  Elec       q    Type
REMARK                         _______ _______ _______ _____ _____    ______ ____
ROOT
ATOM      1  C   UNL     1       3.078   4.525  19.797  0.00  0.00    +0.000 C 
ATOM      2  S   UNL     1       2.287   3.074  20.048  0.00  0.00    +0.000 S 
ENDROOT
BRANCH   1   3
ATOM      3  N   UNL     1       4.011   4.587  18.770  0.00  0.00    +0.000 N 
ATOM      4  C   UNL     1       3.793   4.251  17.450  0.00  0.00    +0.000 C 
ATOM      5  O   UNL     1       2.819   3.573  17.106  0.00  0.00    +0.000 OA
ATOM      6  H   UNL     1       4.894   5.030  19.022  0.00  0.00    +0.000 HD
BRANCH   4   7
ATOM      7  C   UNL     1       4.783   4.697  16.434  0.00  0.00    +0.000 A 
ATOM      8  C   UNL     1       4.813   3.948  15.322  0.00  0.00    +0.000 A 
ATOM      9  C   UNL     1       5.761   4.215  14.257  0.00  0.00    +0.000 A 
ATOM     10  C   UNL     1       5.729   3.513  13.059  0.00  0.00    +0.000 A 
ATOM     11  C   UNL     1       6.706   3.750  12.091  0.00  0.00    +0.000 A 
ATOM     12  C   UNL     1       7.731   4.666  12.342  0.00  0.00    +0.000 A 
ATOM     13  C   UNL     1       7.758   5.383  13.542  0.00  0.00    +0.000 A 
ATOM     14  C   UNL     1       6.751   5.167  14.480  0.00  0.00    +0.000 A 
ATOM     15  O   UNL     1       6.726   5.962  15.649  0.00  0.00    +0.000 OA
ATOM     16  C   UNL     1       5.684   5.856  16.573  0.00  0.00    +0.000 A 
ATOM     17  O   UNL     1       5.529   6.672  17.479  0.00  0.00    +0.000 OA
ENDBRANCH   4   7
ENDBRANCH   1   3
BRANCH   1  18
ATOM     18  N   UNL     1       2.891   5.704  20.489  0.00  0.00    +0.000 N 
ATOM     19  H   UNL     1       3.265   5.694  21.439  0.00  0.00    +0.000 HD
BRANCH  18  23
ATOM     20  C   UNL     1       1.057   9.321  19.360  0.00  0.00    +0.000 A 
ATOM     21  C   UNL     1       1.757   8.586  18.400  0.00  0.00    +0.000 A 
ATOM     22  C   UNL     1       2.390   7.394  18.766  0.00  0.00    +0.000 A 
ATOM     23  C   UNL     1       2.325   6.930  20.083  0.00  0.00    +0.000 A 
ATOM     24  C   UNL     1       1.582   7.653  21.026  0.00  0.00    +0.000 A 
ATOM     25  C   UNL     1       0.969   8.861  20.677  0.00  0.00    +0.000 A 
BRANCH  20  26
ATOM     26  S   UNL     1       0.287  10.843  18.902  0.00  0.00    +0.000 S 
ATOM     27  O   UNL     1       1.301  11.775  18.466  0.00  0.00    +0.000 OA
ATOM     28  O   UNL     1      -0.716  11.190  19.882  0.00  0.00    +0.000 OA
BRANCH  26  29
ATOM     29  N   UNL     1      -0.574  10.411  17.524  0.00  0.00    +0.000 NA
ATOM     30  H   UNL     1      -1.515  10.801  17.577  0.00  0.00    +0.000 HD
ATOM     31  H   UNL     1      -0.557   9.398  17.411  0.00  0.00    +0.000 HD
ENDBRANCH  26  29
ENDBRANCH  20  26
ENDBRANCH  18  23
ENDBRANCH   1  18
TORSDOF 6
ENDMDL
MODEL 9
REMARK VINA RESULT:      -8.3      1.063      1.434
REMARK  Name = 
REMARK  6 active torsions:
REMARK  status: ('A' for Active; 'I' for Inactive)
REMARK    1  A    between atoms: N_1  and  S_2
REMARK    2  A    between atoms: S_2  and  C_5
REMARK    3  A    between atoms: C_8  and  N_9
REMARK    4  A    between atoms: N_9  and  C_10
REMARK    5  A    between atoms: C_10  and  N_12
REMARK    6  A    between atoms: C_13  and  C_15
REMARK                            x       y       z     vdW  Elec       q    Type
REMARK                         _______ _______ _______ _____ _____    ______ ____
ROOT
ATOM      1  C   UNL     1       3.374   4.117  19.737  0.00  0.00    +0.000 C 
ATOM      2  S   UNL     1       2.644   2.641  20.025  0.00  0.00    +0.000 S 
ENDROOT
BRANCH   1   3
ATOM      3  N   UNL     1       4.257   4.208  18.668  0.00  0.00    +0.000 N 
ATOM      4  C   UNL     1       3.939   4.056  17.334  0.00  0.00    +0.000 C 
ATOM      5  O   UNL     1       2.882   3.526  16.975  0.00  0.00    +0.000 OA
ATOM      6  H   UNL     1       5.194   4.526  18.914  0.00  0.00    +0.000 HD
BRANCH   4   7
ATOM      7  C   UNL     1       4.921   4.519  16.317  0.00  0.00    +0.000 A 
ATOM      8  C   UNL     1       4.893   3.832  15.166  0.00  0.00    +0.000 A 
ATOM      9  C   UNL     1       5.823   4.121  14.092  0.00  0.00    +0.000 A 
ATOM     10  C   UNL     1       5.733   3.487  12.859  0.00  0.00    +0.000 A 
ATOM     11  C   UNL     1       6.694   3.739  11.878  0.00  0.00    +0.000 A 
ATOM     12  C   UNL     1       7.760   4.600  12.150  0.00  0.00    +0.000 A 
ATOM     13  C   UNL     1       7.846   5.248  13.386  0.00  0.00    +0.000 A 
ATOM     14  C   UNL     1       6.856   5.020  14.338  0.00  0.00    +0.000 A 
ATOM     15  O   UNL     1       6.891   5.750  15.548  0.00  0.00    +0.000 OA
ATOM     16  C   UNL     1       5.870   5.634  16.494  0.00  0.00    +0.000 A 
ATOM     17  O   UNL     1       5.771   6.404  17.446  0.00  0.00    +0.000 OA
ENDBRANCH   4   7
ENDBRANCH   1   3
BRANCH   1  18
ATOM     18  N   UNL     1       3.180   5.291  20.436  0.00  0.00    +0.000 N 
ATOM     19  H   UNL     1       3.631   5.310  21.352  0.00  0.00    +0.000 HD
BRANCH  18  23
ATOM     20  C   UNL     1       1.342   8.897  19.279  0.00  0.00    +0.000 A 
ATOM     21  C   UNL     1       1.128   8.409  20.570  0.00  0.00    +0.000 A 
ATOM     22  C   UNL     1       1.713   7.201  20.961  0.00  0.00    +0.000 A 
ATOM     23  C   UNL     1       2.516   6.480  20.072  0.00  0.00    +0.000 A 
ATOM     24  C   UNL     1       2.759   7.003  18.795  0.00  0.00    +0.000 A 
ATOM     25  C   UNL     1       2.155   8.195  18.385  0.00  0.00    +0.000 A 
BRANCH  20  26
ATOM     26  S   UNL     1       0.574  10.407  18.778  0.00  0.00    +0.000 S 
ATOM     27  O   UNL     1       0.414  11.263  19.931  0.00  0.00    +0.000 OA
ATOM     28  O   UNL     1      -0.512  10.116  17.871  0.00  0.00    +0.000 OA
BRANCH  26  29
ATOM     29  N   UNL     1       1.764  11.119  17.829  0.00  0.00    +0.000 NA
ATOM     30  H   UNL     1       1.323  11.681  17.100  0.00  0.00    +0.000 HD
ATOM     31  H   UNL     1       2.392  10.402  17.469  0.00  0.00    +0.000 HD
ENDBRANCH  26  29
ENDBRANCH  20  26
ENDBRANCH  18  23
ENDBRANCH   1  18
TORSDOF 6
ENDMDL
