MODEL 1
REMARK VINA RESULT:      -8.7      0.000      0.000
REMARK  Name = 
REMARK  4 active torsions:
REMARK  status: ('A' for Active; 'I' for Inactive)
REMARK    1  A    between atoms: C_6  and  C_7
REMARK    2  A    between atoms: N_9  and  C_10
REMARK    3  A    between atoms: C_10  and  C_11
REMARK    4  A    between atoms: C_11  and  C_12
REMARK                            x       y       z     vdW  Elec       q    Type
REMARK                         _______ _______ _______ _____ _____    ______ ____
ROOT
ATOM      1  C   UNL     1       6.138   5.937  18.335  0.00  0.00    +0.000 A 
ATOM      2  C   UNL     1       6.212   7.120  17.647  0.00  0.00    +0.000 A 
ATOM      3  N   UNL     1       7.481   7.556  17.877  0.00  0.00    +0.000 N 
ATOM      4  N   UNL     1       8.171   6.668  18.619  0.00  0.00    +0.000 NA
ATOM      5  N   UNL     1       7.344   5.669  18.917  0.00  0.00    +0.000 NA
ENDROOT
BRANCH   1  11
ATOM      6  C   UNL     1       1.060   2.697  18.542  0.00  0.00    +0.000 A 
ATOM      7  C   UNL     1       1.792   2.156  19.592  0.00  0.00    +0.000 A 
ATOM      8  N   UNL     1       3.039   2.527  19.964  0.00  0.00    +0.000 NA
ATOM      9  C   UNL     1       3.531   3.526  19.208  0.00  0.00    +0.000 A 
ATOM     10  N   UNL     1       4.771   4.084  19.362  0.00  0.00    +0.000 N 
ATOM     11  C   UNL     1       4.935   5.094  18.448  0.00  0.00    +0.000 A 
ATOM     12  C   UNL     1       3.788   5.172  17.685  0.00  0.00    +0.000 A 
ATOM     13  C   UNL     1       2.898   4.171  18.148  0.00  0.00    +0.000 A 
ATOM     14  C   UNL     1       1.614   3.734  17.793  0.00  0.00    +0.000 A 
ATOM     15  H   UNL     1       5.448   3.794  20.049  0.00  0.00    +0.000 HD
ENDBRANCH   1  11
BRANCH   3  16
ATOM     16  C   UNL     1       8.101   8.793  17.445  0.00  0.00    +0.000 C 
BRANCH  16  17
ATOM     17  C   UNL     1       8.672   9.605  18.607  0.00  0.00    +0.000 C 
BRANCH  17  18
ATOM     18  C   UNL     1       9.033  11.004  18.235  0.00  0.00    +0.000 A 
ATOM     19  C   UNL     1       8.253  11.882  17.503  0.00  0.00    +0.000 A 
ATOM     20  N   UNL     1       8.914  13.080  17.421  0.00  0.00    +0.000 N 
ATOM     21  C   UNL     1      10.107  12.996  18.079  0.00  0.00    +0.000 A 
ATOM     22  N   UNL     1      10.986  14.008  18.188  0.00  0.00    +0.000 NA
ATOM     23  C   UNL     1      12.088  13.672  18.895  0.00  0.00    +0.000 A 
ATOM     24  C   UNL     1      12.333  12.432  19.472  0.00  0.00    +0.000 A 
ATOM     25  C   UNL     1      11.385  11.418  19.331  0.00  0.00    +0.000 A 
ATOM     26  C   UNL     1      10.221  11.712  18.600  0.00  0.00    +0.000 A 
ATOM     27  H   UNL     1       8.588  13.920  16.964  0.00  0.00    +0.000 HD
ENDBRANCH  17  18
ENDBRANCH  16  17
ENDBRANCH   3  16
TORSDOF 4
ENDMDL
MODEL 2
REMARK VINA RESULT:      -8.6      1.731      9.303
REMARK  Name = 
REMARK  4 active torsions:
REMARK  status: ('A' for Active; 'I' for Inactive)
REMARK    1  A    between atoms: C_6  and  C_7
REMARK    2  A    between atoms: N_9  and  C_10
REMARK    3  A    between atoms: C_10  and  C_11
REMARK    4  A    between atoms: C_11  and  C_12
REMARK                            x       y       z     vdW  Elec       q    Type
REMARK                         _______ _______ _______ _____ _____    ______ ____
ROOT
ATOM      1  C   UNL     1       7.922   7.241  18.207  0.00  0.00    +0.000 A 
ATOM      2  C   UNL     1       7.324   6.755  17.074  0.00  0.00    +0.000 A 
ATOM      3  N   UNL     1       7.154   5.429  17.335  0.00  0.00    +0.000 N 
ATOM      4  N   UNL     1       7.572   5.122  18.578  0.00  0.00    +0.000 NA
ATOM      5  N   UNL     1       8.060   6.235  19.121  0.00  0.00    +0.000 NA
ENDROOT
BRANCH   1  11
ATOM      6  C   UNL     1       9.619  13.006  18.670  0.00  0.00    +0.000 A 
ATOM      7  C   UNL     1      10.165  12.449  19.821  0.00  0.00    +0.000 A 
ATOM      8  N   UNL     1      10.053  11.158  20.208  0.00  0.00    +0.000 NA
ATOM      9  C   UNL     1       9.349  10.413  19.334  0.00  0.00    +0.000 A 
ATOM     10  N   UNL     1       9.077   9.081  19.486  0.00  0.00    +0.000 N 
ATOM     11  C   UNL     1       8.368   8.632  18.401  0.00  0.00    +0.000 A 
ATOM     12  C   UNL     1       8.167   9.698  17.549  0.00  0.00    +0.000 A 
ATOM     13  C   UNL     1       8.771  10.836  18.140  0.00  0.00    +0.000 A 
ATOM     14  C   UNL     1       8.902  12.189  17.796  0.00  0.00    +0.000 A 
ATOM     15  H   UNL     1       9.365   8.524  20.275  0.00  0.00    +0.000 HD
ENDBRANCH   1  11
BRANCH   3  16
ATOM     16  C   UNL     1       6.623   4.400  16.462  0.00  0.00    +0.000 C 
BRANCH  16  17
ATOM     17  C   UNL     1       5.204   4.706  15.983  0.00  0.00    +0.000 C 
BRANCH  17  18
ATOM     18  C   UNL     1       4.222   4.867  17.094  0.00  0.00    +0.000 A 
ATOM     19  C   UNL     1       3.740   6.066  17.591  0.00  0.00    +0.000 A 
ATOM     20  N   UNL     1       2.820   5.788  18.569  0.00  0.00    +0.000 N 
ATOM     21  C   UNL     1       2.700   4.437  18.720  0.00  0.00    +0.000 A 
ATOM     22  N   UNL     1       1.871   3.843  19.597  0.00  0.00    +0.000 NA
ATOM     23  C   UNL     1       1.934   2.493  19.546  0.00  0.00    +0.000 A 
ATOM     24  C   UNL     1       2.744   1.751  18.697  0.00  0.00    +0.000 A 
ATOM     25  C   UNL     1       3.583   2.420  17.804  0.00  0.00    +0.000 A 
ATOM     26  C   UNL     1       3.563   3.825  17.818  0.00  0.00    +0.000 A 
ATOM     27  H   UNL     1       2.286   6.458  19.104  0.00  0.00    +0.000 HD
ENDBRANCH  17  18
ENDBRANCH  16  17
ENDBRANCH   3  16
TORSDOF 4
ENDMDL
MODEL 3
REMARK VINA RESULT:      -8.6      1.826      8.899
REMARK  Name = 
REMARK  4 active torsions:
REMARK  status: ('A' for Active; 'I' for Inactive)
REMARK    1  A    between atoms: C_6  and  C_7
REMARK    2  A    between atoms: N_9  and  C_10
REMARK    3  A    between atoms: C_10  and  C_11
REMARK    4  A    between atoms: C_11  and  C_12
REMARK                            x       y       z     vdW  Elec       q    Type
REMARK                         _______ _______ _______ _____ _____    ______ ____
ROOT
ATOM      1  C   UNL     1       7.818   7.047  18.078  0.00  0.00    +0.000 A 
ATOM      2  C   UNL     1       7.212   6.585  16.940  0.00  0.00    +0.000 A 
ATOM      3  N   UNL     1       7.044   5.254  17.173  0.00  0.00    +0.000 N 
ATOM      4  N   UNL     1       7.471   4.921  18.408  0.00  0.00    +0.000 NA
ATOM      5  N   UNL     1       7.962   6.023  18.970  0.00  0.00    +0.000 NA
ENDROOT
BRANCH   1  11
ATOM      6  C   UNL     1       9.505  12.804  18.657  0.00  0.00    +0.000 A 
ATOM      7  C   UNL     1      10.101  12.215  19.765  0.00  0.00    +0.000 A 
ATOM      8  N   UNL     1      10.012  10.911  20.115  0.00  0.00    +0.000 NA
ATOM      9  C   UNL     1       9.275  10.190  19.248  0.00  0.00    +0.000 A 
ATOM     10  N   UNL     1       9.016   8.852  19.368  0.00  0.00    +0.000 N 
ATOM     11  C   UNL     1       8.265   8.433  18.299  0.00  0.00    +0.000 A 
ATOM     12  C   UNL     1       8.024   9.525  17.491  0.00  0.00    +0.000 A 
ATOM     13  C   UNL     1       8.647  10.648  18.092  0.00  0.00    +0.000 A 
ATOM     14  C   UNL     1       8.757  12.012  17.788  0.00  0.00    +0.000 A 
ATOM     15  H   UNL     1       9.340   8.272  20.126  0.00  0.00    +0.000 HD
ENDBRANCH   1  11
BRANCH   3  16
ATOM     16  C   UNL     1       6.507   4.244  16.283  0.00  0.00    +0.000 C 
BRANCH  16  17
ATOM     17  C   UNL     1       5.018   4.437  16.000  0.00  0.00    +0.000 C 
BRANCH  17  18
ATOM     18  C   UNL     1       4.146   4.155  17.178  0.00  0.00    +0.000 A 
ATOM     19  C   UNL     1       3.842   2.905  17.690  0.00  0.00    +0.000 A 
ATOM     20  N   UNL     1       3.058   3.074  18.801  0.00  0.00    +0.000 N 
ATOM     21  C   UNL     1       2.842   4.405  19.018  0.00  0.00    +0.000 A 
ATOM     22  N   UNL     1       2.115   4.900  20.035  0.00  0.00    +0.000 NA
ATOM     23  C   UNL     1       2.060   6.251  20.031  0.00  0.00    +0.000 A 
ATOM     24  C   UNL     1       2.671   7.084  19.104  0.00  0.00    +0.000 A 
ATOM     25  C   UNL     1       3.416   6.516  18.069  0.00  0.00    +0.000 A 
ATOM     26  C   UNL     1       3.504   5.115  18.021  0.00  0.00    +0.000 A 
ATOM     27  H   UNL     1       2.692   2.347  19.399  0.00  0.00    +0.000 HD
ENDBRANCH  17  18
ENDBRANCH  16  17
ENDBRANCH   3  16
TORSDOF 4
ENDMDL
MODEL 4
REMARK VINA RESULT:      -8.6      1.716      9.644
REMARK  Name = 
REMARK  4 active torsions:
REMARK  status: ('A' for Active; 'I' for Inactive)
REMARK    1  A    between atoms: C_6  and  C_7
REMARK    2  A    between atoms: N_9  and  C_10
REMARK    3  A    between atoms: C_10  and  C_11
REMARK    4  A    between atoms: C_11  and  C_12
REMARK                            x       y       z     vdW  Elec       q    Type
REMARK                         _______ _______ _______ _____ _____    ______ ____
ROOT
ATOM      1  C   UNL     1       7.737   7.069  18.214  0.00  0.00    +0.000 A 
ATOM      2  C   UNL     1       6.822   6.651  17.284  0.00  0.00    +0.000 A 
ATOM      3  N   UNL     1       6.732   5.308  17.492  0.00  0.00    +0.000 N 
ATOM      4  N   UNL     1       7.506   4.925  18.526  0.00  0.00    +0.000 NA
ATOM      5  N   UNL     1       8.140   6.007  18.972  0.00  0.00    +0.000 NA
ENDROOT
BRANCH   1  11
ATOM      6  C   UNL     1       9.598  12.796  18.487  0.00  0.00    +0.000 A 
ATOM      7  C   UNL     1      10.204  12.240  19.608  0.00  0.00    +0.000 A 
ATOM      8  N   UNL     1      10.086  10.956  20.019  0.00  0.00    +0.000 NA
ATOM      9  C   UNL     1       9.310  10.219  19.203  0.00  0.00    +0.000 A 
ATOM     10  N   UNL     1       9.016   8.896  19.391  0.00  0.00    +0.000 N 
ATOM     11  C   UNL     1       8.228   8.451  18.360  0.00  0.00    +0.000 A 
ATOM     12  C   UNL     1       7.999   9.511  17.508  0.00  0.00    +0.000 A 
ATOM     13  C   UNL     1       8.667  10.641  18.043  0.00  0.00    +0.000 A 
ATOM     14  C   UNL     1       8.808  11.986  17.673  0.00  0.00    +0.000 A 
ATOM     15  H   UNL     1       9.341   8.342  20.168  0.00  0.00    +0.000 HD
ENDBRANCH   1  11
BRANCH   3  16
ATOM     16  C   UNL     1       5.957   4.332  16.752  0.00  0.00    +0.000 C 
BRANCH  16  17
ATOM     17  C   UNL     1       4.453   4.593  16.825  0.00  0.00    +0.000 C 
BRANCH  17  18
ATOM     18  C   UNL     1       3.712   3.584  17.637  0.00  0.00    +0.000 A 
ATOM     19  C   UNL     1       3.746   2.210  17.462  0.00  0.00    +0.000 A 
ATOM     20  N   UNL     1       2.975   1.633  18.437  0.00  0.00    +0.000 N 
ATOM     21  C   UNL     1       2.439   2.601  19.237  0.00  0.00    +0.000 A 
ATOM     22  N   UNL     1       1.639   2.358  20.291  0.00  0.00    +0.000 NA
ATOM     23  C   UNL     1       1.247   3.486  20.923  0.00  0.00    +0.000 A 
ATOM     24  C   UNL     1       1.604   4.780  20.567  0.00  0.00    +0.000 A 
ATOM     25  C   UNL     1       2.439   4.975  19.465  0.00  0.00    +0.000 A 
ATOM     26  C   UNL     1       2.874   3.836  18.767  0.00  0.00    +0.000 A 
ATOM     27  H   UNL     1       2.819   0.645  18.579  0.00  0.00    +0.000 HD
ENDBRANCH  17  18
ENDBRANCH  16  17
ENDBRANCH   3  16
TORSDOF 4
ENDMDL
MODEL 5
REMARK VINA RESULT:      -8.5      4.967      7.751
REMARK  Name = 
REMARK  4 active torsions:
REMARK  status: ('A' for Active; 'I' for Inactive)
REMARK    1  A    between atoms: C_6  and  C_7
REMARK    2  A    between atoms: N_9  and  C_10
REMARK    3  A    between atoms: C_10  and  C_11
REMARK    4  A    between atoms: C_11  and  C_12
REMARK                            x       y       z     vdW  Elec       q    Type
REMARK                         _______ _______ _______ _____ _____    ______ ____
ROOT
ATOM      1  C   UNL     1       2.154   7.224  19.502  0.00  0.00    +0.000 A 
ATOM      2  C   UNL     1       2.540   5.991  19.957  0.00  0.00    +0.000 A 
ATOM      3  N   UNL     1       3.115   5.404  18.871  0.00  0.00    +0.000 N 
ATOM      4  N   UNL     1       3.133   6.247  17.819  0.00  0.00    +0.000 NA
ATOM      5  N   UNL     1       2.531   7.371  18.198  0.00  0.00    +0.000 NA
ENDROOT
BRANCH   1  11
ATOM      6  C   UNL     1      -0.912  11.080  22.975  0.00  0.00    +0.000 A 
ATOM      7  C   UNL     1      -0.595  11.869  21.876  0.00  0.00    +0.000 A 
ATOM      8  N   UNL     1       0.119  11.476  20.796  0.00  0.00    +0.000 NA
ATOM      9  C   UNL     1       0.502  10.187  20.869  0.00  0.00    +0.000 A 
ATOM     10  N   UNL     1       1.243   9.538  19.918  0.00  0.00    +0.000 N 
ATOM     11  C   UNL     1       1.426   8.232  20.294  0.00  0.00    +0.000 A 
ATOM     12  C   UNL     1       0.808   8.045  21.513  0.00  0.00    +0.000 A 
ATOM     13  C   UNL     1       0.234   9.284  21.894  0.00  0.00    +0.000 A 
ATOM     14  C   UNL     1      -0.495   9.750  22.998  0.00  0.00    +0.000 A 
ATOM     15  H   UNL     1       1.588   9.964  19.073  0.00  0.00    +0.000 HD
ENDBRANCH   1  11
BRANCH   3  16
ATOM     16  C   UNL     1       3.649   4.063  18.748  0.00  0.00    +0.000 C 
BRANCH  16  17
ATOM     17  C   UNL     1       5.123   3.975  19.139  0.00  0.00    +0.000 C 
BRANCH  17  18
ATOM     18  C   UNL     1       6.027   4.735  18.227  0.00  0.00    +0.000 A 
ATOM     19  C   UNL     1       6.943   5.703  18.604  0.00  0.00    +0.000 A 
ATOM     20  N   UNL     1       7.611   6.122  17.483  0.00  0.00    +0.000 N 
ATOM     21  C   UNL     1       7.146   5.452  16.388  0.00  0.00    +0.000 A 
ATOM     22  N   UNL     1       7.604   5.633  15.137  0.00  0.00    +0.000 NA
ATOM     23  C   UNL     1       6.984   4.843  14.232  0.00  0.00    +0.000 A 
ATOM     24  C   UNL     1       5.979   3.926  14.511  0.00  0.00    +0.000 A 
ATOM     25  C   UNL     1       5.543   3.777  15.829  0.00  0.00    +0.000 A 
ATOM     26  C   UNL     1       6.151   4.577  16.811  0.00  0.00    +0.000 A 
ATOM     27  H   UNL     1       8.351   6.809  17.442  0.00  0.00    +0.000 HD
ENDBRANCH  17  18
ENDBRANCH  16  17
ENDBRANCH   3  16
TORSDOF 4
ENDMDL
MODEL 6
REMARK VINA RESULT:      -8.5      1.417      1.613
REMARK  Name = 
REMARK  4 active torsions:
REMARK  status: ('A' for Active; 'I' for Inactive)
REMARK    1  A    between atoms: C_6  and  C_7
REMARK    2  A    between atoms: N_9  and  C_10
REMARK    3  A    between atoms: C_10  and  C_11
REMARK    4  A    between atoms: C_11  and  C_12
REMARK                            x       y       z     vdW  Elec       q    Type
REMARK                         _______ _______ _______ _____ _____    ______ ____
ROOT
ATOM      1  C   UNL     1       6.077   6.259  17.348  0.00  0.00    +0.000 A 
ATOM      2  C   UNL     1       6.160   7.517  17.885  0.00  0.00    +0.000 A 
ATOM      3  N   UNL     1       7.357   7.987  17.437  0.00  0.00    +0.000 N 
ATOM      4  N   UNL     1       7.955   7.093  16.625  0.00  0.00    +0.000 NA
ATOM      5  N   UNL     1       7.175   6.016  16.574  0.00  0.00    +0.000 NA
ENDROOT
BRANCH   1  11
ATOM      6  C   UNL     1       1.355   2.639  18.316  0.00  0.00    +0.000 A 
ATOM      7  C   UNL     1       2.426   1.767  18.472  0.00  0.00    +0.000 A 
ATOM      8  N   UNL     1       3.735   2.084  18.336  0.00  0.00    +0.000 NA
ATOM      9  C   UNL     1       3.925   3.384  18.040  0.00  0.00    +0.000 A 
ATOM     10  N   UNL     1       5.147   3.967  17.838  0.00  0.00    +0.000 N 
ATOM     11  C   UNL     1       4.979   5.305  17.588  0.00  0.00    +0.000 A 
ATOM     12  C   UNL     1       3.627   5.580  17.610  0.00  0.00    +0.000 A 
ATOM     13  C   UNL     1       2.950   4.364  17.880  0.00  0.00    +0.000 A 
ATOM     14  C   UNL     1       1.609   3.977  18.014  0.00  0.00    +0.000 A 
ATOM     15  H   UNL     1       6.028   3.479  17.879  0.00  0.00    +0.000 HD
ENDBRANCH   1  11
BRANCH   3  16
ATOM     16  C   UNL     1       8.001   9.249  17.742  0.00  0.00    +0.000 C 
BRANCH  16  17
ATOM     17  C   UNL     1       9.034   9.131  18.861  0.00  0.00    +0.000 C 
BRANCH  17  18
ATOM     18  C   UNL     1       9.432  10.445  19.445  0.00  0.00    +0.000 A 
ATOM     19  C   UNL     1       9.143  10.894  20.723  0.00  0.00    +0.000 A 
ATOM     20  N   UNL     1       9.727  12.122  20.890  0.00  0.00    +0.000 N 
ATOM     21  C   UNL     1      10.384  12.483  19.749  0.00  0.00    +0.000 A 
ATOM     22  N   UNL     1      11.065  13.632  19.596  0.00  0.00    +0.000 NA
ATOM     23  C   UNL     1      11.632  13.747  18.374  0.00  0.00    +0.000 A 
ATOM     24  C   UNL     1      11.553  12.809  17.353  0.00  0.00    +0.000 A 
ATOM     25  C   UNL     1      10.835  11.631  17.567  0.00  0.00    +0.000 A 
ATOM     26  C   UNL     1      10.221  11.461  18.819  0.00  0.00    +0.000 A 
ATOM     27  H   UNL     1       9.706  12.693  21.724  0.00  0.00    +0.000 HD
ENDBRANCH  17  18
ENDBRANCH  16  17
ENDBRANCH   3  16
TORSDOF 4
ENDMDL
MODEL 7
REMARK VINA RESULT:      -8.5      1.447      9.968
REMARK  Name = 
REMARK  4 active torsions:
REMARK  status: ('A' for Active; 'I' for Inactive)
REMARK    1  A    between atoms: C_6  and  C_7
REMARK    2  A    between atoms: N_9  and  C_10
REMARK    3  A    between atoms: C_10  and  C_11
REMARK    4  A    between atoms: C_11  and  C_12
REMARK                            x       y       z     vdW  Elec       q    Type
REMARK                         _______ _______ _______ _____ _____    ______ ____
ROOT
ATOM      1  C   UNL     1       8.137   8.542  18.075  0.00  0.00    +0.000 A 
ATOM      2  C   UNL     1       8.187   7.353  18.752  0.00  0.00    +0.000 A 
ATOM      3  N   UNL     1       7.388   6.525  18.024  0.00  0.00    +0.000 N 
ATOM      4  N   UNL     1       6.914   7.151  16.928  0.00  0.00    +0.000 NA
ATOM      5  N   UNL     1       7.364   8.403  16.958  0.00  0.00    +0.000 NA
ENDROOT
BRANCH   1  11
ATOM      6  C   UNL     1      10.937  13.474  20.118  0.00  0.00    +0.000 A 
ATOM      7  C   UNL     1      10.361  13.935  18.940  0.00  0.00    +0.000 A 
ATOM      8  N   UNL     1       9.624  13.198  18.076  0.00  0.00    +0.000 NA
ATOM      9  C   UNL     1       9.472  11.923  18.480  0.00  0.00    +0.000 A 
ATOM     10  N   UNL     1       8.783  10.963  17.789  0.00  0.00    +0.000 N 
ATOM     11  C   UNL     1       8.800   9.789  18.498  0.00  0.00    +0.000 A 
ATOM     12  C   UNL     1       9.529   9.995  19.652  0.00  0.00    +0.000 A 
ATOM     13  C   UNL     1       9.973  11.341  19.641  0.00  0.00    +0.000 A 
ATOM     14  C   UNL     1      10.745  12.144  20.492  0.00  0.00    +0.000 A 
ATOM     15  H   UNL     1       8.330  11.111  16.902  0.00  0.00    +0.000 HD
ENDBRANCH   1  11
BRANCH   3  16
ATOM     16  C   UNL     1       7.018   5.152  18.305  0.00  0.00    +0.000 C 
BRANCH  16  17
ATOM     17  C   UNL     1       5.778   5.044  19.191  0.00  0.00    +0.000 C 
BRANCH  17  18
ATOM     18  C   UNL     1       4.590   4.479  18.487  0.00  0.00    +0.000 A 
ATOM     19  C   UNL     1       4.514   4.155  17.143  0.00  0.00    +0.000 A 
ATOM     20  N   UNL     1       3.277   3.617  16.899  0.00  0.00    +0.000 N 
ATOM     21  C   UNL     1       2.548   3.590  18.053  0.00  0.00    +0.000 A 
ATOM     22  N   UNL     1       1.294   3.113  18.146  0.00  0.00    +0.000 NA
ATOM     23  C   UNL     1       0.796   3.192  19.401  0.00  0.00    +0.000 A 
ATOM     24  C   UNL     1       1.465   3.697  20.508  0.00  0.00    +0.000 A 
ATOM     25  C   UNL     1       2.767   4.177  20.354  0.00  0.00    +0.000 A 
ATOM     26  C   UNL     1       3.333   4.123  19.069  0.00  0.00    +0.000 A 
ATOM     27  H   UNL     1       2.933   3.271  16.014  0.00  0.00    +0.000 HD
ENDBRANCH  17  18
ENDBRANCH  16  17
ENDBRANCH   3  16
TORSDOF 4
ENDMDL
MODEL 8
REMARK VINA RESULT:      -8.5      5.394      7.736
REMARK  Name = 
REMARK  4 active torsions:
REMARK  status: ('A' for Active; 'I' for Inactive)
REMARK    1  A    between atoms: C_6  and  C_7
REMARK    2  A    between atoms: N_9  and  C_10
REMARK    3  A    between atoms: C_10  and  C_11
REMARK    4  A    between atoms: C_11  and  C_12
REMARK                            x       y       z     vdW  Elec       q    Type
REMARK                         _______ _______ _______ _____ _____    ______ ____
ROOT
ATOM      1  C   UNL     1       2.507   6.235  19.725  0.00  0.00    +0.000 A 
ATOM      2  C   UNL     1       3.576   5.995  18.902  0.00  0.00    +0.000 A 
ATOM      3  N   UNL     1       3.804   4.659  19.040  0.00  0.00    +0.000 N 
ATOM      4  N   UNL     1       2.893   4.095  19.858  0.00  0.00    +0.000 NA
ATOM      5  N   UNL     1       2.094   5.065  20.295  0.00  0.00    +0.000 NA
ENDROOT
BRANCH   1  11
ATOM      6  C   UNL     1       0.084  11.715  20.382  0.00  0.00    +0.000 A 
ATOM      7  C   UNL     1       0.205  11.292  21.700  0.00  0.00    +0.000 A 
ATOM      8  N   UNL     1       0.687  10.095  22.108  0.00  0.00    +0.000 NA
ATOM      9  C   UNL     1       1.075   9.314  21.082  0.00  0.00    +0.000 A 
ATOM     10  N   UNL     1       1.588   8.052  21.212  0.00  0.00    +0.000 N 
ATOM     11  C   UNL     1       1.906   7.558  19.972  0.00  0.00    +0.000 A 
ATOM     12  C   UNL     1       1.574   8.511  19.032  0.00  0.00    +0.000 A 
ATOM     13  C   UNL     1       1.031   9.622  19.724  0.00  0.00    +0.000 A 
ATOM     14  C   UNL     1       0.506  10.869  19.357  0.00  0.00    +0.000 A 
ATOM     15  H   UNL     1       1.715   7.574  22.089  0.00  0.00    +0.000 HD
ENDBRANCH   1  11
BRANCH   3  16
ATOM     16  C   UNL     1       4.858   3.860  18.449  0.00  0.00    +0.000 C 
BRANCH  16  17
ATOM     17  C   UNL     1       4.748   3.768  16.928  0.00  0.00    +0.000 C 
BRANCH  17  18
ATOM     18  C   UNL     1       5.815   4.522  16.207  0.00  0.00    +0.000 A 
ATOM     19  C   UNL     1       6.678   5.450  16.764  0.00  0.00    +0.000 A 
ATOM     20  N   UNL     1       7.540   5.876  15.787  0.00  0.00    +0.000 N 
ATOM     21  C   UNL     1       7.251   5.250  14.608  0.00  0.00    +0.000 A 
ATOM     22  N   UNL     1       7.922   5.448  13.460  0.00  0.00    +0.000 NA
ATOM     23  C   UNL     1       7.444   4.701  12.438  0.00  0.00    +0.000 A 
ATOM     24  C   UNL     1       6.382   3.810  12.514  0.00  0.00    +0.000 A 
ATOM     25  C   UNL     1       5.723   3.641  13.733  0.00  0.00    +0.000 A 
ATOM     26  C   UNL     1       6.175   4.396  14.829  0.00  0.00    +0.000 A 
ATOM     27  H   UNL     1       8.294   6.540  15.894  0.00  0.00    +0.000 HD
ENDBRANCH  17  18
ENDBRANCH  16  17
ENDBRANCH   3  16
TORSDOF 4
ENDMDL
MODEL 9
REMARK VINA RESULT:      -8.5      5.453      7.824
REMARK  Name = 
REMARK  4 active torsions:
REMARK  status: ('A' for Active; 'I' for Inactive)
REMARK    1  A    between atoms: C_6  and  C_7
REMARK    2  A    between atoms: N_9  and  C_10
REMARK    3  A    between atoms: C_10  and  C_11
REMARK    4  A    between atoms: C_11  and  C_12
REMARK                            x       y       z     vdW  Elec       q    Type
REMARK                         _______ _______ _______ _____ _____    ______ ____
ROOT
ATOM      1  C   UNL     1       2.487   6.136  19.755  0.00  0.00    +0.000 A 
ATOM      2  C   UNL     1       3.217   5.793  18.647  0.00  0.00    +0.000 A 
ATOM      3  N   UNL     1       3.642   4.527  18.912  0.00  0.00    +0.000 N 
ATOM      4  N   UNL     1       3.156   4.090  20.091  0.00  0.00    +0.000 NA
ATOM      5  N   UNL     1       2.450   5.083  20.624  0.00  0.00    +0.000 NA
ENDROOT
BRANCH   1  11
ATOM      6  C   UNL     1      -0.211  11.378  21.010  0.00  0.00    +0.000 A 
ATOM      7  C   UNL     1       0.184  11.563  19.690  0.00  0.00    +0.000 A 
ATOM      8  N   UNL     1       0.862  10.671  18.932  0.00  0.00    +0.000 NA
ATOM      9  C   UNL     1       1.120   9.523  19.586  0.00  0.00    +0.000 A 
ATOM     10  N   UNL     1       1.799   8.459  19.058  0.00  0.00    +0.000 N 
ATOM     11  C   UNL     1       1.855   7.447  19.983  0.00  0.00    +0.000 A 
ATOM     12  C   UNL     1       1.218   7.878  21.128  0.00  0.00    +0.000 A 
ATOM     13  C   UNL     1       0.762   9.199  20.893  0.00  0.00    +0.000 A 
ATOM     14  C   UNL     1       0.077  10.167  21.640  0.00  0.00    +0.000 A 
ATOM     15  H   UNL     1       2.186   8.432  18.128  0.00  0.00    +0.000 HD
ENDBRANCH   1  11
BRANCH   3  16
ATOM     16  C   UNL     1       4.509   3.682  18.115  0.00  0.00    +0.000 C 
BRANCH  16  17
ATOM     17  C   UNL     1       4.354   3.925  16.614  0.00  0.00    +0.000 C 
BRANCH  17  18
ATOM     18  C   UNL     1       5.533   4.598  15.995  0.00  0.00    +0.000 A 
ATOM     19  C   UNL     1       6.398   5.476  16.626  0.00  0.00    +0.000 A 
ATOM     20  N   UNL     1       7.377   5.831  15.735  0.00  0.00    +0.000 N 
ATOM     21  C   UNL     1       7.164   5.207  14.539  0.00  0.00    +0.000 A 
ATOM     22  N   UNL     1       7.955   5.344  13.460  0.00  0.00    +0.000 NA
ATOM     23  C   UNL     1       7.530   4.615  12.403  0.00  0.00    +0.000 A 
ATOM     24  C   UNL     1       6.409   3.795  12.382  0.00  0.00    +0.000 A 
ATOM     25  C   UNL     1       5.625   3.688  13.532  0.00  0.00    +0.000 A 
ATOM     26  C   UNL     1       6.018   4.428  14.660  0.00  0.00    +0.000 A 
ATOM     27  H   UNL     1       8.159   6.446  15.910  0.00  0.00    +0.000 HD
ENDBRANCH  17  18
ENDBRANCH  16  17
ENDBRANCH   3  16
TORSDOF 4
ENDMDL
