MODEL 1
REMARK VINA RESULT:      -7.4      0.000      0.000
REMARK  Name = 
REMARK  4 active torsions:
REMARK  status: ('A' for Active; 'I' for Inactive)
REMARK    1  A    between atoms: C_2  and  C_3
REMARK    2  A    between atoms: C_10  and  N_11
REMARK    3  A    between atoms: N_11  and  C_12
REMARK    4  A    between atoms: C_18  and  C_19
REMARK                            x       y       z     vdW  Elec       q    Type
REMARK                         _______ _______ _______ _____ _____    ______ ____
ROOT
ATOM      1  C   UNL     1       0.651   9.620  20.600  0.00  0.00    +0.000 A 
ATOM      2  C   UNL     1      -0.335  10.467  20.111  0.00  0.00    +0.000 A 
ATOM      3  C   UNL     1      -1.065  11.252  21.006  0.00  0.00    +0.000 A 
ATOM      4  C   UNL     1      -0.806  11.182  22.373  0.00  0.00    +0.000 A 
ATOM      5  N   UNL     1      -1.448  11.959  23.334  0.00  0.00    +0.000 N 
ATOM      6  C   UNL     1      -2.514  12.815  23.196  0.00  0.00    +0.000 A 
ATOM      7  C   UNL     1      -2.693  13.891  24.233  0.00  0.00    +0.000 A 
ATOM      8  C   UNL     1      -3.713  14.759  24.096  0.00  0.00    +0.000 A 
ATOM      9  N   UNL     1      -4.573  14.598  22.981  0.00  0.00    +0.000 N 
ATOM     10  N   UNL     1      -5.660  15.355  22.645  0.00  0.00    +0.000 NA
ATOM     11  C   UNL     1      -6.108  14.805  21.513  0.00  0.00    +0.000 A 
ATOM     12  C   UNL     1      -5.363  13.681  21.113  0.00  0.00    +0.000 A 
ATOM     13  C   UNL     1      -4.375  13.563  22.069  0.00  0.00    +0.000 A 
ATOM     14  N   UNL     1      -3.348  12.679  22.197  0.00  0.00    +0.000 NA
ATOM     15  N   UNL     1       0.158  10.364  22.853  0.00  0.00    +0.000 NA
ATOM     16  C   UNL     1       0.852   9.601  21.970  0.00  0.00    +0.000 A 
ATOM     17  H   UNL     1      -1.018  11.822  24.239  0.00  0.00    +0.000 HD
ENDROOT
BRANCH  12  18
ATOM     18  C   UNL     1      -5.549  12.861  19.954  0.00  0.00    +0.000 C 
ATOM     19  C   UNL     1      -6.198  11.691  19.890  0.00  0.00    +0.000 C 
ATOM     20  N   UNL     1      -6.839  11.028  20.897  0.00  0.00    +0.000 N 
ATOM     21  C   UNL     1      -7.351   9.832  20.439  0.00  0.00    +0.000 C 
ATOM     22  O   UNL     1      -7.915   8.985  21.106  0.00  0.00    +0.000 OA
ATOM     23  N   UNL     1      -7.079   9.757  19.097  0.00  0.00    +0.000 N 
ATOM     24  C   UNL     1      -6.347  10.831  18.674  0.00  0.00    +0.000 C 
ATOM     25  O   UNL     1      -5.880  11.034  17.571  0.00  0.00    +0.000 OA
ATOM     26  H   UNL     1      -6.813  11.303  21.873  0.00  0.00    +0.000 HD
ATOM     27  H   UNL     1      -7.317   8.964  18.527  0.00  0.00    +0.000 HD
ENDBRANCH  12  18
BRANCH   1  29
ATOM     28  N   UNL     1       2.081   8.145  19.024  0.00  0.00    +0.000 NA
ATOM     29  C   UNL     1       1.441   8.814  19.728  0.00  0.00    +0.000 C 
ENDBRANCH   1  29
BRANCH   8  30
ATOM     30  N   UNL     1      -3.984  15.829  24.949  0.00  0.00    +0.000 N 
ATOM     31  H   UNL     1      -3.921  15.527  25.928  0.00  0.00    +0.000 HD
BRANCH  30  32
ATOM     32  C   UNL     1      -3.471  17.164  24.637  0.00  0.00    +0.000 C 
ATOM     33  C   UNL     1      -3.935  18.388  25.375  0.00  0.00    +0.000 C 
ATOM     34  C   UNL     1      -2.561  17.840  25.625  0.00  0.00    +0.000 C 
ENDBRANCH  30  32
ENDBRANCH   8  30
TORSDOF 4
ENDMDL
MODEL 2
REMARK VINA RESULT:      -7.4      1.504      2.064
REMARK  Name = 
REMARK  4 active torsions:
REMARK  status: ('A' for Active; 'I' for Inactive)
REMARK    1  A    between atoms: C_2  and  C_3
REMARK    2  A    between atoms: C_10  and  N_11
REMARK    3  A    between atoms: N_11  and  C_12
REMARK    4  A    between atoms: C_18  and  C_19
REMARK                            x       y       z     vdW  Elec       q    Type
REMARK                         _______ _______ _______ _____ _____    ______ ____
ROOT
ATOM      1  C   UNL     1       0.467  10.442  19.514  0.00  0.00    +0.000 A 
ATOM      2  C   UNL     1      -0.799  10.988  19.344  0.00  0.00    +0.000 A 
ATOM      3  C   UNL     1      -1.421  11.618  20.424  0.00  0.00    +0.000 A 
ATOM      4  C   UNL     1      -0.776  11.694  21.657  0.00  0.00    +0.000 A 
ATOM      5  N   UNL     1      -1.296  12.343  22.775  0.00  0.00    +0.000 N 
ATOM      6  C   UNL     1      -2.537  12.897  22.965  0.00  0.00    +0.000 A 
ATOM      7  C   UNL     1      -2.684  13.955  24.027  0.00  0.00    +0.000 A 
ATOM      8  C   UNL     1      -3.887  14.533  24.203  0.00  0.00    +0.000 A 
ATOM      9  N   UNL     1      -4.956  14.098  23.382  0.00  0.00    +0.000 N 
ATOM     10  N   UNL     1      -6.250  14.541  23.386  0.00  0.00    +0.000 NA
ATOM     11  C   UNL     1      -6.844  13.832  22.423  0.00  0.00    +0.000 A 
ATOM     12  C   UNL     1      -5.982  12.906  21.807  0.00  0.00    +0.000 A 
ATOM     13  C   UNL     1      -4.768  13.093  22.435  0.00  0.00    +0.000 A 
ATOM     14  N   UNL     1      -3.557  12.501  22.247  0.00  0.00    +0.000 NA
ATOM     15  N   UNL     1       0.460  11.171  21.825  0.00  0.00    +0.000 NA
ATOM     16  C   UNL     1       1.046  10.554  20.767  0.00  0.00    +0.000 A 
ATOM     17  H   UNL     1      -0.606  12.370  23.514  0.00  0.00    +0.000 HD
ENDROOT
BRANCH  12  18
ATOM     18  C   UNL     1      -6.274  11.999  20.737  0.00  0.00    +0.000 C 
ATOM     19  C   UNL     1      -6.432  12.305  19.442  0.00  0.00    +0.000 C 
ATOM     20  N   UNL     1      -6.336  13.531  18.849  0.00  0.00    +0.000 N 
ATOM     21  C   UNL     1      -6.609  13.437  17.500  0.00  0.00    +0.000 C 
ATOM     22  O   UNL     1      -6.671  14.361  16.711  0.00  0.00    +0.000 OA
ATOM     23  N   UNL     1      -6.828  12.114  17.217  0.00  0.00    +0.000 N 
ATOM     24  C   UNL     1      -6.775  11.345  18.347  0.00  0.00    +0.000 C 
ATOM     25  O   UNL     1      -6.998  10.155  18.456  0.00  0.00    +0.000 OA
ATOM     26  H   UNL     1      -6.228  14.405  19.352  0.00  0.00    +0.000 HD
ATOM     27  H   UNL     1      -7.082  11.777  16.305  0.00  0.00    +0.000 HD
ENDBRANCH  12  18
BRANCH   1  29
ATOM     28  N   UNL     1       1.704   9.286  17.555  0.00  0.00    +0.000 NA
ATOM     29  C   UNL     1       1.156   9.807  18.438  0.00  0.00    +0.000 C 
ENDBRANCH   1  29
BRANCH   8  30
ATOM     30  N   UNL     1      -4.168  15.550  25.115  0.00  0.00    +0.000 N 
ATOM     31  H   UNL     1      -3.957  15.238  26.071  0.00  0.00    +0.000 HD
BRANCH  30  32
ATOM     32  C   UNL     1      -3.842  16.939  24.789  0.00  0.00    +0.000 C 
ATOM     33  C   UNL     1      -4.716  17.774  23.897  0.00  0.00    +0.000 C 
ATOM     34  C   UNL     1      -4.685  18.038  25.372  0.00  0.00    +0.000 C 
ENDBRANCH  30  32
ENDBRANCH   8  30
TORSDOF 4
ENDMDL
MODEL 3
REMARK VINA RESULT:      -7.2      5.862     12.437
REMARK  Name = 
REMARK  4 active torsions:
REMARK  status: ('A' for Active; 'I' for Inactive)
REMARK    1  A    between atoms: C_2  and  C_3
REMARK    2  A    between atoms: C_10  and  N_11
REMARK    3  A    between atoms: N_11  and  C_12
REMARK    4  A    between atoms: C_18  and  C_19
REMARK                            x       y       z     vdW  Elec       q    Type
REMARK                         _______ _______ _______ _____ _____    ______ ____
ROOT
ATOM      1  C   UNL     1       0.426   9.865  19.783  0.00  0.00    +0.000 A 
ATOM      2  C   UNL     1       1.287   8.892  20.274  0.00  0.00    +0.000 A 
ATOM      3  C   UNL     1       2.193   8.282  19.403  0.00  0.00    +0.000 A 
ATOM      4  C   UNL     1       2.228   8.648  18.059  0.00  0.00    +0.000 A 
ATOM      5  N   UNL     1       3.127   8.130  17.129  0.00  0.00    +0.000 N 
ATOM      6  C   UNL     1       4.032   7.107  17.264  0.00  0.00    +0.000 A 
ATOM      7  C   UNL     1       5.206   7.073  16.322  0.00  0.00    +0.000 A 
ATOM      8  C   UNL     1       6.121   6.096  16.462  0.00  0.00    +0.000 A 
ATOM      9  N   UNL     1       5.916   5.140  17.488  0.00  0.00    +0.000 N 
ATOM     10  N   UNL     1       6.708   4.073  17.810  0.00  0.00    +0.000 NA
ATOM     11  C   UNL     1       6.089   3.505  18.848  0.00  0.00    +0.000 A 
ATOM     12  C   UNL     1       4.889   4.151  19.197  0.00  0.00    +0.000 A 
ATOM     13  C   UNL     1       4.794   5.205  18.312  0.00  0.00    +0.000 A 
ATOM     14  N   UNL     1       3.862   6.188  18.180  0.00  0.00    +0.000 NA
ATOM     15  N   UNL     1       1.397   9.600  17.580  0.00  0.00    +0.000 NA
ATOM     16  C   UNL     1       0.517  10.176  18.437  0.00  0.00    +0.000 A 
ATOM     17  H   UNL     1       3.043   8.625  16.251  0.00  0.00    +0.000 HD
ENDROOT
BRANCH  12  18
ATOM     18  C   UNL     1       3.983   3.826  20.257  0.00  0.00    +0.000 C 
ATOM     19  C   UNL     1       2.744   3.329  20.135  0.00  0.00    +0.000 C 
ATOM     20  N   UNL     1       2.076   3.006  18.989  0.00  0.00    +0.000 N 
ATOM     21  C   UNL     1       0.803   2.562  19.280  0.00  0.00    +0.000 C 
ATOM     22  O   UNL     1      -0.059   2.264  18.476  0.00  0.00    +0.000 OA
ATOM     23  N   UNL     1       0.677   2.548  20.646  0.00  0.00    +0.000 N 
ATOM     24  C   UNL     1       1.800   3.032  21.257  0.00  0.00    +0.000 C 
ATOM     25  O   UNL     1       1.986   3.224  22.443  0.00  0.00    +0.000 OA
ATOM     26  H   UNL     1       2.413   3.205  18.053  0.00  0.00    +0.000 HD
ATOM     27  H   UNL     1      -0.172   2.295  21.121  0.00  0.00    +0.000 HD
ENDBRANCH  12  18
BRANCH   1  29
ATOM     28  N   UNL     1      -1.268  11.085  21.316  0.00  0.00    +0.000 NA
ATOM     29  C   UNL     1      -0.503  10.536  20.635  0.00  0.00    +0.000 C 
ENDBRANCH   1  29
BRANCH   8  30
ATOM     30  N   UNL     1       7.277   5.956  15.694  0.00  0.00    +0.000 N 
ATOM     31  H   UNL     1       8.103   6.221  16.245  0.00  0.00    +0.000 HD
BRANCH  30  32
ATOM     32  C   UNL     1       7.426   4.811  14.795  0.00  0.00    +0.000 C 
ATOM     33  C   UNL     1       6.250   4.189  14.096  0.00  0.00    +0.000 C 
ATOM     34  C   UNL     1       7.230   5.018  13.319  0.00  0.00    +0.000 C 
ENDBRANCH  30  32
ENDBRANCH   8  30
TORSDOF 4
ENDMDL
MODEL 4
REMARK VINA RESULT:      -7.0      1.672      2.321
REMARK  Name = 
REMARK  4 active torsions:
REMARK  status: ('A' for Active; 'I' for Inactive)
REMARK    1  A    between atoms: C_2  and  C_3
REMARK    2  A    between atoms: C_10  and  N_11
REMARK    3  A    between atoms: N_11  and  C_12
REMARK    4  A    between atoms: C_18  and  C_19
REMARK                            x       y       z     vdW  Elec       q    Type
REMARK                         _______ _______ _______ _____ _____    ______ ____
ROOT
ATOM      1  C   UNL     1       0.596   9.237  21.186  0.00  0.00    +0.000 A 
ATOM      2  C   UNL     1      -0.321  10.082  20.574  0.00  0.00    +0.000 A 
ATOM      3  C   UNL     1      -1.122  10.908  21.366  0.00  0.00    +0.000 A 
ATOM      4  C   UNL     1      -0.999  10.881  22.753  0.00  0.00    +0.000 A 
ATOM      5  N   UNL     1      -1.718  11.701  23.620  0.00  0.00    +0.000 N 
ATOM      6  C   UNL     1      -2.749  12.567  23.350  0.00  0.00    +0.000 A 
ATOM      7  C   UNL     1      -3.010  13.681  24.328  0.00  0.00    +0.000 A 
ATOM      8  C   UNL     1      -3.995  14.559  24.062  0.00  0.00    +0.000 A 
ATOM      9  N   UNL     1      -4.744  14.372  22.874  0.00  0.00    +0.000 N 
ATOM     10  N   UNL     1      -5.779  15.134  22.407  0.00  0.00    +0.000 NA
ATOM     11  C   UNL     1      -6.124  14.552  21.255  0.00  0.00    +0.000 A 
ATOM     12  C   UNL     1      -5.363  13.403  20.968  0.00  0.00    +0.000 A 
ATOM     13  C   UNL     1      -4.477  13.304  22.021  0.00  0.00    +0.000 A 
ATOM     14  N   UNL     1      -3.484  12.410  22.278  0.00  0.00    +0.000 NA
ATOM     15  N   UNL     1      -0.102  10.066  23.353  0.00  0.00    +0.000 NA
ATOM     16  C   UNL     1       0.661   9.263  22.569  0.00  0.00    +0.000 A 
ATOM     17  H   UNL     1      -1.381  11.588  24.567  0.00  0.00    +0.000 HD
ENDROOT
BRANCH  12  18
ATOM     18  C   UNL     1      -5.449  12.547  19.823  0.00  0.00    +0.000 C 
ATOM     19  C   UNL     1      -4.445  12.176  19.016  0.00  0.00    +0.000 C 
ATOM     20  N   UNL     1      -3.125  12.511  19.108  0.00  0.00    +0.000 N 
ATOM     21  C   UNL     1      -2.414  11.962  18.062  0.00  0.00    +0.000 C 
ATOM     22  O   UNL     1      -1.233  12.131  17.824  0.00  0.00    +0.000 OA
ATOM     23  N   UNL     1      -3.291  11.215  17.318  0.00  0.00    +0.000 N 
ATOM     24  C   UNL     1      -4.565  11.311  17.802  0.00  0.00    +0.000 C 
ATOM     25  O   UNL     1      -5.583  10.838  17.336  0.00  0.00    +0.000 OA
ATOM     26  H   UNL     1      -2.748  13.186  19.765  0.00  0.00    +0.000 HD
ATOM     27  H   UNL     1      -3.032  10.735  16.473  0.00  0.00    +0.000 HD
ENDBRANCH  12  18
BRANCH   1  29
ATOM     28  N   UNL     1       2.140   7.694  19.794  0.00  0.00    +0.000 NA
ATOM     29  C   UNL     1       1.453   8.390  20.423  0.00  0.00    +0.000 C 
ENDBRANCH   1  29
BRANCH   8  30
ATOM     30  N   UNL     1      -4.329  15.662  24.849  0.00  0.00    +0.000 N 
ATOM     31  H   UNL     1      -4.707  15.352  25.752  0.00  0.00    +0.000 HD
BRANCH  30  32
ATOM     32  C   UNL     1      -3.461  16.839  24.867  0.00  0.00    +0.000 C 
ATOM     33  C   UNL     1      -2.873  17.415  23.610  0.00  0.00    +0.000 C 
ATOM     34  C   UNL     1      -3.984  18.135  24.313  0.00  0.00    +0.000 C 
ENDBRANCH  30  32
ENDBRANCH   8  30
TORSDOF 4
ENDMDL
MODEL 5
REMARK VINA RESULT:      -6.9      2.453      6.957
REMARK  Name = 
REMARK  4 active torsions:
REMARK  status: ('A' for Active; 'I' for Inactive)
REMARK    1  A    between atoms: C_2  and  C_3
REMARK    2  A    between atoms: C_10  and  N_11
REMARK    3  A    between atoms: N_11  and  C_12
REMARK    4  A    between atoms: C_18  and  C_19
REMARK                            x       y       z     vdW  Elec       q    Type
REMARK                         _______ _______ _______ _____ _____    ______ ____
ROOT
ATOM      1  C   UNL     1      -3.471  15.262  23.078  0.00  0.00    +0.000 A 
ATOM      2  C   UNL     1      -4.046  14.341  22.213  0.00  0.00    +0.000 A 
ATOM      3  C   UNL     1      -3.229  13.643  21.320  0.00  0.00    +0.000 A 
ATOM      4  C   UNL     1      -1.855  13.872  21.301  0.00  0.00    +0.000 A 
ATOM      5  N   UNL     1      -0.958  13.190  20.482  0.00  0.00    +0.000 N 
ATOM      6  C   UNL     1      -1.206  12.298  19.468  0.00  0.00    +0.000 A 
ATOM      7  C   UNL     1      -0.108  11.339  19.088  0.00  0.00    +0.000 A 
ATOM      8  C   UNL     1      -0.345  10.435  18.119  0.00  0.00    +0.000 A 
ATOM      9  N   UNL     1      -1.619  10.449  17.499  0.00  0.00    +0.000 N 
ATOM     10  N   UNL     1      -2.075   9.631  16.503  0.00  0.00    +0.000 NA
ATOM     11  C   UNL     1      -3.328  10.040  16.288  0.00  0.00    +0.000 A 
ATOM     12  C   UNL     1      -3.699  11.131  17.095  0.00  0.00    +0.000 A 
ATOM     13  C   UNL     1      -2.586  11.380  17.871  0.00  0.00    +0.000 A 
ATOM     14  N   UNL     1      -2.359  12.299  18.850  0.00  0.00    +0.000 NA
ATOM     15  N   UNL     1      -1.291  14.762  22.147  0.00  0.00    +0.000 NA
ATOM     16  C   UNL     1      -2.099  15.439  23.002  0.00  0.00    +0.000 A 
ATOM     17  H   UNL     1      -0.008  13.438  20.723  0.00  0.00    +0.000 HD
ENDROOT
BRANCH  12  18
ATOM     18  C   UNL     1      -4.958  11.812  17.143  0.00  0.00    +0.000 C 
ATOM     19  C   UNL     1      -5.890  11.716  18.101  0.00  0.00    +0.000 C 
ATOM     20  N   UNL     1      -5.848  10.973  19.245  0.00  0.00    +0.000 N 
ATOM     21  C   UNL     1      -7.022  11.111  19.955  0.00  0.00    +0.000 C 
ATOM     22  O   UNL     1      -7.320  10.527  20.980  0.00  0.00    +0.000 OA
ATOM     23  N   UNL     1      -7.808  12.006  19.276  0.00  0.00    +0.000 N 
ATOM     24  C   UNL     1      -7.217  12.407  18.110  0.00  0.00    +0.000 C 
ATOM     25  O   UNL     1      -7.675  13.130  17.246  0.00  0.00    +0.000 OA
ATOM     26  H   UNL     1      -5.121  10.301  19.467  0.00  0.00    +0.000 HD
ATOM     27  H   UNL     1      -8.738  12.258  19.565  0.00  0.00    +0.000 HD
ENDBRANCH  12  18
BRANCH   1  29
ATOM     28  N   UNL     1      -4.900  16.585  24.785  0.00  0.00    +0.000 NA
ATOM     29  C   UNL     1      -4.256  15.987  24.025  0.00  0.00    +0.000 C 
ENDBRANCH   1  29
BRANCH   8  30
ATOM     30  N   UNL     1       0.554   9.460  17.686  0.00  0.00    +0.000 N 
ATOM     31  H   UNL     1       0.639   9.485  16.662  0.00  0.00    +0.000 HD
BRANCH  30  32
ATOM     32  C   UNL     1       1.781   9.207  18.442  0.00  0.00    +0.000 C 
ATOM     33  C   UNL     1       1.837   8.200  19.556  0.00  0.00    +0.000 C 
ATOM     34  C   UNL     1       2.499   7.901  18.244  0.00  0.00    +0.000 C 
ENDBRANCH  30  32
ENDBRANCH   8  30
TORSDOF 4
ENDMDL
MODEL 6
REMARK VINA RESULT:      -6.9      3.753      6.198
REMARK  Name = 
REMARK  4 active torsions:
REMARK  status: ('A' for Active; 'I' for Inactive)
REMARK    1  A    between atoms: C_2  and  C_3
REMARK    2  A    between atoms: C_10  and  N_11
REMARK    3  A    between atoms: N_11  and  C_12
REMARK    4  A    between atoms: C_18  and  C_19
REMARK                            x       y       z     vdW  Elec       q    Type
REMARK                         _______ _______ _______ _____ _____    ______ ____
ROOT
ATOM      1  C   UNL     1      -3.136  10.467  15.122  0.00  0.00    +0.000 A 
ATOM      2  C   UNL     1      -2.259  10.591  16.191  0.00  0.00    +0.000 A 
ATOM      3  C   UNL     1      -2.718  11.142  17.390  0.00  0.00    +0.000 A 
ATOM      4  C   UNL     1      -4.042  11.561  17.506  0.00  0.00    +0.000 A 
ATOM      5  N   UNL     1      -4.601  12.076  18.673  0.00  0.00    +0.000 N 
ATOM      6  C   UNL     1      -3.996  12.407  19.860  0.00  0.00    +0.000 A 
ATOM      7  C   UNL     1      -4.850  12.456  21.099  0.00  0.00    +0.000 A 
ATOM      8  C   UNL     1      -4.266  12.746  22.277  0.00  0.00    +0.000 A 
ATOM      9  N   UNL     1      -2.873  13.005  22.279  0.00  0.00    +0.000 N 
ATOM     10  N   UNL     1      -2.080  13.316  23.348  0.00  0.00    +0.000 NA
ATOM     11  C   UNL     1      -0.858  13.444  22.826  0.00  0.00    +0.000 A 
ATOM     12  C   UNL     1      -0.831  13.260  21.431  0.00  0.00    +0.000 A 
ATOM     13  C   UNL     1      -2.139  12.975  21.095  0.00  0.00    +0.000 A 
ATOM     14  N   UNL     1      -2.717  12.683  19.899  0.00  0.00    +0.000 NA
ATOM     15  N   UNL     1      -4.901  11.435  16.470  0.00  0.00    +0.000 NA
ATOM     16  C   UNL     1      -4.436  10.906  15.310  0.00  0.00    +0.000 A 
ATOM     17  H   UNL     1      -5.598  12.202  18.556  0.00  0.00    +0.000 HD
ENDROOT
BRANCH  12  18
ATOM     18  C   UNL     1       0.298  13.310  20.551  0.00  0.00    +0.000 C 
ATOM     19  C   UNL     1       0.699  12.357  19.698  0.00  0.00    +0.000 C 
ATOM     20  N   UNL     1       0.121  11.143  19.462  0.00  0.00    +0.000 N 
ATOM     21  C   UNL     1       0.858  10.429  18.540  0.00  0.00    +0.000 C 
ATOM     22  O   UNL     1       0.644   9.290  18.171  0.00  0.00    +0.000 OA
ATOM     23  N   UNL     1       1.897  11.229  18.139  0.00  0.00    +0.000 N 
ATOM     24  C   UNL     1       1.905  12.416  18.816  0.00  0.00    +0.000 C 
ATOM     25  O   UNL     1       2.727  13.310  18.755  0.00  0.00    +0.000 OA
ATOM     26  H   UNL     1      -0.653  10.761  19.996  0.00  0.00    +0.000 HD
ATOM     27  H   UNL     1       2.608  10.931  17.492  0.00  0.00    +0.000 HD
ENDBRANCH  12  18
BRANCH   1  29
ATOM     28  N   UNL     1      -2.394   9.409  12.878  0.00  0.00    +0.000 NA
ATOM     29  C   UNL     1      -2.724   9.891  13.883  0.00  0.00    +0.000 C 
ENDBRANCH   1  29
BRANCH   8  30
ATOM     30  N   UNL     1      -4.915  12.790  23.511  0.00  0.00    +0.000 N 
ATOM     31  H   UNL     1      -4.264  12.538  24.264  0.00  0.00    +0.000 HD
BRANCH  30  32
ATOM     32  C   UNL     1      -5.872  13.858  23.799  0.00  0.00    +0.000 C 
ATOM     33  C   UNL     1      -7.075  14.106  22.933  0.00  0.00    +0.000 C 
ATOM     34  C   UNL     1      -7.245  13.490  24.290  0.00  0.00    +0.000 C 
ENDBRANCH  30  32
ENDBRANCH   8  30
TORSDOF 4
ENDMDL
MODEL 7
REMARK VINA RESULT:      -6.8      4.099      7.288
REMARK  Name = 
REMARK  4 active torsions:
REMARK  status: ('A' for Active; 'I' for Inactive)
REMARK    1  A    between atoms: C_2  and  C_3
REMARK    2  A    between atoms: C_10  and  N_11
REMARK    3  A    between atoms: N_11  and  C_12
REMARK    4  A    between atoms: C_18  and  C_19
REMARK                            x       y       z     vdW  Elec       q    Type
REMARK                         _______ _______ _______ _____ _____    ______ ____
ROOT
ATOM      1  C   UNL     1      -3.253  10.264  14.821  0.00  0.00    +0.000 A 
ATOM      2  C   UNL     1      -2.512   9.569  15.768  0.00  0.00    +0.000 A 
ATOM      3  C   UNL     1      -2.340  10.121  17.039  0.00  0.00    +0.000 A 
ATOM      4  C   UNL     1      -2.908  11.354  17.350  0.00  0.00    +0.000 A 
ATOM      5  N   UNL     1      -2.831  11.960  18.602  0.00  0.00    +0.000 N 
ATOM      6  C   UNL     1      -2.112  11.586  19.711  0.00  0.00    +0.000 A 
ATOM      7  C   UNL     1      -2.574  12.086  21.054  0.00  0.00    +0.000 A 
ATOM      8  C   UNL     1      -1.900  11.702  22.154  0.00  0.00    +0.000 A 
ATOM      9  N   UNL     1      -0.777  10.856  21.980  0.00  0.00    +0.000 N 
ATOM     10  N   UNL     1       0.046  10.347  22.946  0.00  0.00    +0.000 NA
ATOM     11  C   UNL     1       0.928   9.606  22.270  0.00  0.00    +0.000 A 
ATOM     12  C   UNL     1       0.728   9.642  20.878  0.00  0.00    +0.000 A 
ATOM     13  C   UNL     1      -0.378  10.450  20.709  0.00  0.00    +0.000 A 
ATOM     14  N   UNL     1      -1.050  10.830  19.589  0.00  0.00    +0.000 NA
ATOM     15  N   UNL     1      -3.636  12.031  16.433  0.00  0.00    +0.000 NA
ATOM     16  C   UNL     1      -3.785  11.485  15.200  0.00  0.00    +0.000 A 
ATOM     17  H   UNL     1      -3.411  12.788  18.625  0.00  0.00    +0.000 HD
ENDROOT
BRANCH  12  18
ATOM     18  C   UNL     1       1.468   8.962  19.858  0.00  0.00    +0.000 C 
ATOM     19  C   UNL     1       1.875   7.685  19.873  0.00  0.00    +0.000 C 
ATOM     20  N   UNL     1       1.665   6.746  20.842  0.00  0.00    +0.000 N 
ATOM     21  C   UNL     1       2.280   5.558  20.505  0.00  0.00    +0.000 C 
ATOM     22  O   UNL     1       2.335   4.554  21.189  0.00  0.00    +0.000 OA
ATOM     23  N   UNL     1       2.846   5.727  19.267  0.00  0.00    +0.000 N 
ATOM     24  C   UNL     1       2.682   7.006  18.812  0.00  0.00    +0.000 C 
ATOM     25  O   UNL     1       3.125   7.503  17.795  0.00  0.00    +0.000 OA
ATOM     26  H   UNL     1       1.246   6.937  21.746  0.00  0.00    +0.000 HD
ATOM     27  H   UNL     1       3.388   5.018  18.804  0.00  0.00    +0.000 HD
ENDBRANCH  12  18
BRANCH   1  29
ATOM     28  N   UNL     1      -3.647   9.297  12.452  0.00  0.00    +0.000 NA
ATOM     29  C   UNL     1      -3.477   9.735  13.515  0.00  0.00    +0.000 C 
ENDBRANCH   1  29
BRANCH   8  30
ATOM     30  N   UNL     1      -2.229  12.049  23.465  0.00  0.00    +0.000 N 
ATOM     31  H   UNL     1      -1.388  12.338  23.978  0.00  0.00    +0.000 HD
BRANCH  30  32
ATOM     32  C   UNL     1      -3.457  12.796  23.739  0.00  0.00    +0.000 C 
ATOM     33  C   UNL     1      -4.439  12.357  24.790  0.00  0.00    +0.000 C 
ATOM     34  C   UNL     1      -3.571  13.556  25.031  0.00  0.00    +0.000 C 
ENDBRANCH  30  32
ENDBRANCH   8  30
TORSDOF 4
ENDMDL
MODEL 8
REMARK VINA RESULT:      -6.5      3.240      4.167
REMARK  Name = 
REMARK  4 active torsions:
REMARK  status: ('A' for Active; 'I' for Inactive)
REMARK    1  A    between atoms: C_2  and  C_3
REMARK    2  A    between atoms: C_10  and  N_11
REMARK    3  A    between atoms: N_11  and  C_12
REMARK    4  A    between atoms: C_18  and  C_19
REMARK                            x       y       z     vdW  Elec       q    Type
REMARK                         _______ _______ _______ _____ _____    ______ ____
ROOT
ATOM      1  C   UNL     1       1.514  13.638  19.509  0.00  0.00    +0.000 A 
ATOM      2  C   UNL     1       0.280  13.681  18.874  0.00  0.00    +0.000 A 
ATOM      3  C   UNL     1      -0.877  13.418  19.611  0.00  0.00    +0.000 A 
ATOM      4  C   UNL     1      -0.788  13.115  20.968  0.00  0.00    +0.000 A 
ATOM      5  N   UNL     1      -1.887  12.887  21.794  0.00  0.00    +0.000 N 
ATOM      6  C   UNL     1      -3.216  12.769  21.467  0.00  0.00    +0.000 A 
ATOM      7  C   UNL     1      -4.234  13.029  22.546  0.00  0.00    +0.000 A 
ATOM      8  C   UNL     1      -5.541  12.951  22.234  0.00  0.00    +0.000 A 
ATOM      9  N   UNL     1      -5.884  12.611  20.902  0.00  0.00    +0.000 N 
ATOM     10  N   UNL     1      -7.136  12.477  20.368  0.00  0.00    +0.000 NA
ATOM     11  C   UNL     1      -6.916  12.168  19.087  0.00  0.00    +0.000 A 
ATOM     12  C   UNL     1      -5.549  12.060  18.772  0.00  0.00    +0.000 A 
ATOM     13  C   UNL     1      -4.898  12.352  19.953  0.00  0.00    +0.000 A 
ATOM     14  N   UNL     1      -3.573  12.428  20.255  0.00  0.00    +0.000 NA
ATOM     15  N   UNL     1       0.410  13.080  21.593  0.00  0.00    +0.000 NA
ATOM     16  C   UNL     1       1.525  13.329  20.859  0.00  0.00    +0.000 A 
ATOM     17  H   UNL     1      -1.589  12.803  22.756  0.00  0.00    +0.000 HD
ENDROOT
BRANCH  12  18
ATOM     18  C   UNL     1      -4.952  11.759  17.506  0.00  0.00    +0.000 C 
ATOM     19  C   UNL     1      -3.752  11.202  17.292  0.00  0.00    +0.000 C 
ATOM     20  N   UNL     1      -2.842  10.783  18.219  0.00  0.00    +0.000 N 
ATOM     21  C   UNL     1      -1.707  10.303  17.599  0.00  0.00    +0.000 C 
ATOM     22  O   UNL     1      -0.691   9.920  18.148  0.00  0.00    +0.000 OA
ATOM     23  N   UNL     1      -1.922  10.365  16.246  0.00  0.00    +0.000 N 
ATOM     24  C   UNL     1      -3.132  10.932  15.957  0.00  0.00    +0.000 C 
ATOM     25  O   UNL     1      -3.593  11.202  14.866  0.00  0.00    +0.000 OA
ATOM     26  H   UNL     1      -2.925  10.941  19.218  0.00  0.00    +0.000 HD
ATOM     27  H   UNL     1      -1.232  10.104  15.563  0.00  0.00    +0.000 HD
ENDBRANCH  12  18
BRANCH   1  29
ATOM     28  N   UNL     1       3.704  14.145  18.224  0.00  0.00    +0.000 NA
ATOM     29  C   UNL     1       2.724  13.920  18.808  0.00  0.00    +0.000 C 
ENDBRANCH   1  29
BRANCH   8  30
ATOM     30  N   UNL     1      -6.597  13.203  23.111  0.00  0.00    +0.000 N 
ATOM     31  H   UNL     1      -6.771  12.380  23.701  0.00  0.00    +0.000 HD
BRANCH  30  32
ATOM     32  C   UNL     1      -6.721  14.512  23.753  0.00  0.00    +0.000 C 
ATOM     33  C   UNL     1      -6.549  15.793  22.987  0.00  0.00    +0.000 C 
ATOM     34  C   UNL     1      -7.916  15.366  23.432  0.00  0.00    +0.000 C 
ENDBRANCH  30  32
ENDBRANCH   8  30
TORSDOF 4
ENDMDL
MODEL 9
REMARK VINA RESULT:      -6.5      4.252      6.684
REMARK  Name = 
REMARK  4 active torsions:
REMARK  status: ('A' for Active; 'I' for Inactive)
REMARK    1  A    between atoms: C_2  and  C_3
REMARK    2  A    between atoms: C_10  and  N_11
REMARK    3  A    between atoms: N_11  and  C_12
REMARK    4  A    between atoms: C_18  and  C_19
REMARK                            x       y       z     vdW  Elec       q    Type
REMARK                         _______ _______ _______ _____ _____    ______ ____
ROOT
ATOM      1  C   UNL     1      -3.108  10.424  15.004  0.00  0.00    +0.000 A 
ATOM      2  C   UNL     1      -2.319  10.433  16.147  0.00  0.00    +0.000 A 
ATOM      3  C   UNL     1      -2.815  11.018  17.314  0.00  0.00    +0.000 A 
ATOM      4  C   UNL     1      -4.088  11.584  17.328  0.00  0.00    +0.000 A 
ATOM      5  N   UNL     1      -4.685  12.145  18.455  0.00  0.00    +0.000 N 
ATOM      6  C   UNL     1      -4.151  12.389  19.696  0.00  0.00    +0.000 A 
ATOM      7  C   UNL     1      -5.098  12.519  20.859  0.00  0.00    +0.000 A 
ATOM      8  C   UNL     1      -4.590  12.725  22.088  0.00  0.00    +0.000 A 
ATOM      9  N   UNL     1      -3.182  12.822  22.214  0.00  0.00    +0.000 N 
ATOM     10  N   UNL     1      -2.454  13.026  23.353  0.00  0.00    +0.000 NA
ATOM     11  C   UNL     1      -1.184  13.021  22.939  0.00  0.00    +0.000 A 
ATOM     12  C   UNL     1      -1.058  12.853  21.547  0.00  0.00    +0.000 A 
ATOM     13  C   UNL     1      -2.356  12.723  21.097  0.00  0.00    +0.000 A 
ATOM     14  N   UNL     1      -2.857  12.515  19.849  0.00  0.00    +0.000 NA
ATOM     15  N   UNL     1      -4.863  11.570  16.220  0.00  0.00    +0.000 NA
ATOM     16  C   UNL     1      -4.362  11.007  15.091  0.00  0.00    +0.000 A 
ATOM     17  H   UNL     1      -5.647  12.385  18.257  0.00  0.00    +0.000 HD
ENDROOT
BRANCH  12  18
ATOM     18  C   UNL     1       0.141  12.785  20.768  0.00  0.00    +0.000 C 
ATOM     19  C   UNL     1       0.668  13.759  20.013  0.00  0.00    +0.000 C 
ATOM     20  N   UNL     1       0.198  15.027  19.828  0.00  0.00    +0.000 N 
ATOM     21  C   UNL     1       1.001  15.715  18.942  0.00  0.00    +0.000 C 
ATOM     22  O   UNL     1       0.812  16.841  18.520  0.00  0.00    +0.000 OA
ATOM     23  N   UNL     1       2.036  14.885  18.598  0.00  0.00    +0.000 N 
ATOM     24  C   UNL     1       1.903  13.653  19.175  0.00  0.00    +0.000 C 
ATOM     25  O   UNL     1       2.601  12.670  19.017  0.00  0.00    +0.000 OA
ATOM     26  H   UNL     1      -0.693  15.366  20.175  0.00  0.00    +0.000 HD
ATOM     27  H   UNL     1       2.749  15.134  17.933  0.00  0.00    +0.000 HD
ENDBRANCH  12  18
BRANCH   1  29
ATOM     28  N   UNL     1      -2.286   9.319  12.812  0.00  0.00    +0.000 NA
ATOM     29  C   UNL     1      -2.658   9.821  13.792  0.00  0.00    +0.000 C 
ENDBRANCH   1  29
BRANCH   8  30
ATOM     30  N   UNL     1      -5.334  12.826  23.264  0.00  0.00    +0.000 N 
ATOM     31  H   UNL     1      -4.725  13.087  24.049  0.00  0.00    +0.000 HD
BRANCH  30  32
ATOM     32  C   UNL     1      -6.668  13.428  23.238  0.00  0.00    +0.000 C 
ATOM     33  C   UNL     1      -7.916  12.604  23.374  0.00  0.00    +0.000 C 
ATOM     34  C   UNL     1      -7.468  13.475  24.510  0.00  0.00    +0.000 C 
ENDBRANCH  30  32
ENDBRANCH   8  30
TORSDOF 4
ENDMDL
