MODEL 1
REMARK VINA RESULT:      -9.2      0.000      0.000
REMARK  Name = 
REMARK  3 active torsions:
REMARK  status: ('A' for Active; 'I' for Inactive)
REMARK    1  A    between atoms: N_9  and  C_10
REMARK    2  A    between atoms: C_10  and  C_11
REMARK    3  A    between atoms: N_13  and  C_14
REMARK                            x       y       z     vdW  Elec       q    Type
REMARK                         _______ _______ _______ _____ _____    ______ ____
ROOT
ATOM      1  C   UNL     1       3.128   5.306  19.836  0.00  0.00    +0.000 A 
ATOM      2  C   UNL     1       2.936   6.486  19.152  0.00  0.00    +0.000 A 
ATOM      3  N   UNL     1       1.920   7.135  19.827  0.00  0.00    +0.000 N 
ATOM      4  N   UNL     1       1.472   6.322  20.811  0.00  0.00    +0.000 NA
ATOM      5  N   UNL     1       2.210   5.223  20.840  0.00  0.00    +0.000 NA
ENDROOT
BRANCH   3   6
ATOM      6  C   UNL     1       1.467   8.473  19.654  0.00  0.00    +0.000 A 
ATOM      7  C   UNL     1       1.841   9.134  18.477  0.00  0.00    +0.000 A 
ATOM      8  C   UNL     1       1.518  10.466  18.342  0.00  0.00    +0.000 A 
ATOM      9  N   UNL     1       0.873  11.172  19.286  0.00  0.00    +0.000 NA
ATOM     10  C   UNL     1       0.510  10.551  20.420  0.00  0.00    +0.000 A 
ATOM     11  C   UNL     1      -0.106  11.329  21.391  0.00  0.00    +0.000 A 
ATOM     12  C   UNL     1      -0.531  10.798  22.607  0.00  0.00    +0.000 A 
ATOM     13  C   UNL     1      -0.390   9.441  22.841  0.00  0.00    +0.000 A 
ATOM     14  C   UNL     1       0.220   8.639  21.879  0.00  0.00    +0.000 A 
ATOM     15  C   UNL     1       0.742   9.177  20.666  0.00  0.00    +0.000 A 
ENDBRANCH   3   6
BRANCH   1  16
ATOM     16  C   UNL     1       4.134   4.240  19.637  0.00  0.00    +0.000 C 
BRANCH  16  25
ATOM     17  F   UNL     1       8.210   7.265  18.234  0.00  0.00    +0.000 F 
ATOM     18  C   UNL     1       7.380   6.387  17.649  0.00  0.00    +0.000 A 
ATOM     19  N   UNL     1       7.592   6.150  16.342  0.00  0.00    +0.000 NA
ATOM     20  C   UNL     1       6.758   5.280  15.750  0.00  0.00    +0.000 A 
ATOM     21 CL   UNL     1       6.988   4.925  14.107  0.00  0.00    +0.000 Cl
ATOM     22  C   UNL     1       5.727   4.654  16.434  0.00  0.00    +0.000 A 
ATOM     23  N   UNL     1       4.745   3.752  16.106  0.00  0.00    +0.000 NA
ATOM     24  C   UNL     1       4.086   3.527  17.227  0.00  0.00    +0.000 A 
ATOM     25  N   UNL     1       4.598   4.261  18.263  0.00  0.00    +0.000 N 
ATOM     26  C   UNL     1       5.646   4.994  17.775  0.00  0.00    +0.000 A 
ATOM     27  N   UNL     1       6.434   5.847  18.448  0.00  0.00    +0.000 NA
ENDBRANCH  16  25
ENDBRANCH   1  16
TORSDOF 3
ENDMDL
MODEL 2
REMARK VINA RESULT:      -8.9      1.363      1.702
REMARK  Name = 
REMARK  3 active torsions:
REMARK  status: ('A' for Active; 'I' for Inactive)
REMARK    1  A    between atoms: N_9  and  C_10
REMARK    2  A    between atoms: C_10  and  C_11
REMARK    3  A    between atoms: N_13  and  C_14
REMARK                            x       y       z     vdW  Elec       q    Type
REMARK                         _______ _______ _______ _____ _____    ______ ____
ROOT
ATOM      1  C   UNL     1       2.782   7.035  19.166  0.00  0.00    +0.000 A 
ATOM      2  C   UNL     1       1.924   7.770  19.955  0.00  0.00    +0.000 A 
ATOM      3  N   UNL     1       1.495   8.810  19.153  0.00  0.00    +0.000 N 
ATOM      4  N   UNL     1       2.150   8.738  17.970  0.00  0.00    +0.000 NA
ATOM      5  N   UNL     1       2.913   7.656  17.960  0.00  0.00    +0.000 NA
ENDROOT
BRANCH   3   6
ATOM      6  C   UNL     1       0.456   9.747  19.412  0.00  0.00    +0.000 A 
ATOM      7  C   UNL     1      -0.014  10.504  18.331  0.00  0.00    +0.000 A 
ATOM      8  C   UNL     1      -0.932  11.501  18.579  0.00  0.00    +0.000 A 
ATOM      9  N   UNL     1      -1.392  11.797  19.806  0.00  0.00    +0.000 NA
ATOM     10  C   UNL     1      -0.948  11.080  20.851  0.00  0.00    +0.000 A 
ATOM     11  C   UNL     1      -1.407  11.453  22.108  0.00  0.00    +0.000 A 
ATOM     12  C   UNL     1      -1.021  10.784  23.267  0.00  0.00    +0.000 A 
ATOM     13  C   UNL     1      -0.198   9.675  23.168  0.00  0.00    +0.000 A 
ATOM     14  C   UNL     1       0.271   9.279  21.917  0.00  0.00    +0.000 A 
ATOM     15  C   UNL     1      -0.039  10.002  20.729  0.00  0.00    +0.000 A 
ENDBRANCH   3   6
BRANCH   1  16
ATOM     16  C   UNL     1       3.483   5.763  19.446  0.00  0.00    +0.000 C 
BRANCH  16  25
ATOM     17  F   UNL     1       8.055   7.378  17.391  0.00  0.00    +0.000 F 
ATOM     18  C   UNL     1       7.098   6.485  17.098  0.00  0.00    +0.000 A 
ATOM     19  N   UNL     1       7.295   5.747  15.991  0.00  0.00    +0.000 NA
ATOM     20  C   UNL     1       6.335   4.857  15.688  0.00  0.00    +0.000 A 
ATOM     21 CL   UNL     1       6.537   3.882  14.314  0.00  0.00    +0.000 Cl
ATOM     22  C   UNL     1       5.196   4.699  16.462  0.00  0.00    +0.000 A 
ATOM     23  N   UNL     1       4.078   3.902  16.403  0.00  0.00    +0.000 NA
ATOM     24  C   UNL     1       3.365   4.217  17.468  0.00  0.00    +0.000 A 
ATOM     25  N   UNL     1       3.975   5.197  18.204  0.00  0.00    +0.000 N 
ATOM     26  C   UNL     1       5.145   5.524  17.574  0.00  0.00    +0.000 A 
ATOM     27  N   UNL     1       6.054   6.435  17.955  0.00  0.00    +0.000 NA
ENDBRANCH  16  25
ENDBRANCH   1  16
TORSDOF 3
ENDMDL
MODEL 3
REMARK VINA RESULT:      -8.8      1.921      2.728
REMARK  Name = 
REMARK  3 active torsions:
REMARK  status: ('A' for Active; 'I' for Inactive)
REMARK    1  A    between atoms: N_9  and  C_10
REMARK    2  A    between atoms: C_10  and  C_11
REMARK    3  A    between atoms: N_13  and  C_14
REMARK                            x       y       z     vdW  Elec       q    Type
REMARK                         _______ _______ _______ _____ _____    ______ ____
ROOT
ATOM      1  C   UNL     1       2.572   7.028  19.174  0.00  0.00    +0.000 A 
ATOM      2  C   UNL     1       1.920   7.900  20.017  0.00  0.00    +0.000 A 
ATOM      3  N   UNL     1       1.448   8.910  19.201  0.00  0.00    +0.000 N 
ATOM      4  N   UNL     1       1.888   8.683  17.941  0.00  0.00    +0.000 NA
ATOM      5  N   UNL     1       2.549   7.537  17.909  0.00  0.00    +0.000 NA
ENDROOT
BRANCH   3   6
ATOM      6  C   UNL     1       0.546   9.958  19.534  0.00  0.00    +0.000 A 
ATOM      7  C   UNL     1       0.768  10.642  20.737  0.00  0.00    +0.000 A 
ATOM      8  C   UNL     1      -0.160  11.576  21.140  0.00  0.00    +0.000 A 
ATOM      9  N   UNL     1      -1.276  11.860  20.448  0.00  0.00    +0.000 NA
ATOM     10  C   UNL     1      -1.502  11.211  19.295  0.00  0.00    +0.000 A 
ATOM     11  C   UNL     1      -2.692  11.495  18.638  0.00  0.00    +0.000 A 
ATOM     12  C   UNL     1      -3.037  10.889  17.432  0.00  0.00    +0.000 A 
ATOM     13  C   UNL     1      -2.145  10.016  16.833  0.00  0.00    +0.000 A 
ATOM     14  C   UNL     1      -0.942   9.720  17.470  0.00  0.00    +0.000 A 
ATOM     15  C   UNL     1      -0.609  10.260  18.746  0.00  0.00    +0.000 A 
ENDBRANCH   3   6
BRANCH   1  16
ATOM     16  C   UNL     1       3.205   5.721  19.455  0.00  0.00    +0.000 C 
BRANCH  16  25
ATOM     17  F   UNL     1       7.897   7.456  17.809  0.00  0.00    +0.000 F 
ATOM     18  C   UNL     1       6.979   6.559  17.417  0.00  0.00    +0.000 A 
ATOM     19  N   UNL     1       7.273   5.857  16.308  0.00  0.00    +0.000 NA
ATOM     20  C   UNL     1       6.353   4.964  15.905  0.00  0.00    +0.000 A 
ATOM     21 CL   UNL     1       6.675   4.034  14.524  0.00  0.00    +0.000 Cl
ATOM     22  C   UNL     1       5.160   4.768  16.584  0.00  0.00    +0.000 A 
ATOM     23  N   UNL     1       4.062   3.959  16.415  0.00  0.00    +0.000 NA
ATOM     24  C   UNL     1       3.264   4.233  17.430  0.00  0.00    +0.000 A 
ATOM     25  N   UNL     1       3.800   5.199  18.239  0.00  0.00    +0.000 N 
ATOM     26  C   UNL     1       5.010   5.559  17.712  0.00  0.00    +0.000 A 
ATOM     27  N   UNL     1       5.874   6.470  18.189  0.00  0.00    +0.000 NA
ENDBRANCH  16  25
ENDBRANCH   1  16
TORSDOF 3
ENDMDL
MODEL 4
REMARK VINA RESULT:      -8.7      3.143      4.337
REMARK  Name = 
REMARK  3 active torsions:
REMARK  status: ('A' for Active; 'I' for Inactive)
REMARK    1  A    between atoms: N_9  and  C_10
REMARK    2  A    between atoms: C_10  and  C_11
REMARK    3  A    between atoms: N_13  and  C_14
REMARK                            x       y       z     vdW  Elec       q    Type
REMARK                         _______ _______ _______ _____ _____    ______ ____
ROOT
ATOM      1  C   UNL     1       2.732   7.640  18.207  0.00  0.00    +0.000 A 
ATOM      2  C   UNL     1       1.953   8.719  17.851  0.00  0.00    +0.000 A 
ATOM      3  N   UNL     1       1.311   9.101  19.014  0.00  0.00    +0.000 N 
ATOM      4  N   UNL     1       1.631   8.220  19.990  0.00  0.00    +0.000 NA
ATOM      5  N   UNL     1       2.506   7.346  19.519  0.00  0.00    +0.000 NA
ENDROOT
BRANCH   3   6
ATOM      6  C   UNL     1       0.541  10.275  19.245  0.00  0.00    +0.000 A 
ATOM      7  C   UNL     1       1.017  11.179  20.205  0.00  0.00    +0.000 A 
ATOM      8  C   UNL     1       0.229  12.260  20.533  0.00  0.00    +0.000 A 
ATOM      9  N   UNL     1      -0.980  12.489  19.993  0.00  0.00    +0.000 NA
ATOM     10  C   UNL     1      -1.448  11.630  19.074  0.00  0.00    +0.000 A 
ATOM     11  C   UNL     1      -2.723  11.873  18.579  0.00  0.00    +0.000 A 
ATOM     12  C   UNL     1      -3.315  11.055  17.620  0.00  0.00    +0.000 A 
ATOM     13  C   UNL     1      -2.596   9.996  17.094  0.00  0.00    +0.000 A 
ATOM     14  C   UNL     1      -1.312   9.735  17.571  0.00  0.00    +0.000 A 
ATOM     15  C   UNL     1      -0.722  10.505  18.615  0.00  0.00    +0.000 A 
ENDBRANCH   3   6
BRANCH   1  16
ATOM     16  C   UNL     1       3.705   6.862  17.411  0.00  0.00    +0.000 C 
BRANCH  16  25
ATOM     17  F   UNL     1       0.671   2.646  18.279  0.00  0.00    +0.000 F 
ATOM     18  C   UNL     1       1.914   3.050  18.581  0.00  0.00    +0.000 A 
ATOM     19  N   UNL     1       2.662   2.188  19.291  0.00  0.00    +0.000 NA
ATOM     20  C   UNL     1       3.905   2.592  19.604  0.00  0.00    +0.000 A 
ATOM     21 CL   UNL     1       4.904   1.539  20.482  0.00  0.00    +0.000 Cl
ATOM     22  C   UNL     1       4.402   3.830  19.226  0.00  0.00    +0.000 A 
ATOM     23  N   UNL     1       5.589   4.499  19.397  0.00  0.00    +0.000 NA
ATOM     24  C   UNL     1       5.442   5.646  18.763  0.00  0.00    +0.000 A 
ATOM     25  N   UNL     1       4.198   5.748  18.200  0.00  0.00    +0.000 N 
ATOM     26  C   UNL     1       3.514   4.599  18.490  0.00  0.00    +0.000 A 
ATOM     27  N   UNL     1       2.262   4.276  18.129  0.00  0.00    +0.000 NA
ENDBRANCH  16  25
ENDBRANCH   1  16
TORSDOF 3
ENDMDL
MODEL 5
REMARK VINA RESULT:      -8.6      3.977      8.258
REMARK  Name = 
REMARK  3 active torsions:
REMARK  status: ('A' for Active; 'I' for Inactive)
REMARK    1  A    between atoms: N_9  and  C_10
REMARK    2  A    between atoms: C_10  and  C_11
REMARK    3  A    between atoms: N_13  and  C_14
REMARK                            x       y       z     vdW  Elec       q    Type
REMARK                         _______ _______ _______ _____ _____    ______ ____
ROOT
ATOM      1  C   UNL     1       1.255   9.160  18.719  0.00  0.00    +0.000 A 
ATOM      2  C   UNL     1       1.953   8.392  17.814  0.00  0.00    +0.000 A 
ATOM      3  N   UNL     1       2.507   7.368  18.558  0.00  0.00    +0.000 N 
ATOM      4  N   UNL     1       2.221   7.584  19.863  0.00  0.00    +0.000 NA
ATOM      5  N   UNL     1       1.446   8.651  19.969  0.00  0.00    +0.000 NA
ENDROOT
BRANCH   3   6
ATOM      6  C   UNL     1       3.162   6.196  18.087  0.00  0.00    +0.000 A 
ATOM      7  C   UNL     1       4.307   6.369  17.299  0.00  0.00    +0.000 A 
ATOM      8  C   UNL     1       4.886   5.255  16.732  0.00  0.00    +0.000 A 
ATOM      9  N   UNL     1       4.404   4.010  16.883  0.00  0.00    +0.000 NA
ATOM     10  C   UNL     1       3.306   3.831  17.633  0.00  0.00    +0.000 A 
ATOM     11  C   UNL     1       2.810   2.536  17.719  0.00  0.00    +0.000 A 
ATOM     12  C   UNL     1       1.679   2.224  18.471  0.00  0.00    +0.000 A 
ATOM     13  C   UNL     1       1.057   3.218  19.205  0.00  0.00    +0.000 A 
ATOM     14  C   UNL     1       1.540   4.524  19.139  0.00  0.00    +0.000 A 
ATOM     15  C   UNL     1       2.640   4.882  18.307  0.00  0.00    +0.000 A 
ENDBRANCH   3   6
BRANCH   1  16
ATOM     16  C   UNL     1       0.388  10.339  18.503  0.00  0.00    +0.000 C 
BRANCH  16  25
ATOM     17  F   UNL     1      -1.234  12.680  22.933  0.00  0.00    +0.000 F 
ATOM     18  C   UNL     1      -0.266  12.851  22.019  0.00  0.00    +0.000 A 
ATOM     19  N   UNL     1       0.573  13.880  22.230  0.00  0.00    +0.000 NA
ATOM     20  C   UNL     1       1.538  14.062  21.313  0.00  0.00    +0.000 A 
ATOM     21 CL   UNL     1       2.640  15.332  21.535  0.00  0.00    +0.000 Cl
ATOM     22  C   UNL     1       1.671  13.243  20.202  0.00  0.00    +0.000 A 
ATOM     23  N   UNL     1       2.526  13.187  19.128  0.00  0.00    +0.000 NA
ATOM     24  C   UNL     1       2.138  12.141  18.424  0.00  0.00    +0.000 A 
ATOM     25  N   UNL     1       1.056  11.529  18.996  0.00  0.00    +0.000 N 
ATOM     26  C   UNL     1       0.737  12.222  20.132  0.00  0.00    +0.000 A 
ATOM     27  N   UNL     1      -0.254  11.964  21.000  0.00  0.00    +0.000 NA
ENDBRANCH  16  25
ENDBRANCH   1  16
TORSDOF 3
ENDMDL
MODEL 6
REMARK VINA RESULT:      -8.6      2.008      2.868
REMARK  Name = 
REMARK  3 active torsions:
REMARK  status: ('A' for Active; 'I' for Inactive)
REMARK    1  A    between atoms: N_9  and  C_10
REMARK    2  A    between atoms: C_10  and  C_11
REMARK    3  A    between atoms: N_13  and  C_14
REMARK                            x       y       z     vdW  Elec       q    Type
REMARK                         _______ _______ _______ _____ _____    ______ ____
ROOT
ATOM      1  C   UNL     1       2.106   6.952  19.950  0.00  0.00    +0.000 A 
ATOM      2  C   UNL     1       1.351   7.786  20.745  0.00  0.00    +0.000 A 
ATOM      3  N   UNL     1       1.201   8.947  20.012  0.00  0.00    +0.000 N 
ATOM      4  N   UNL     1       1.920   8.830  18.871  0.00  0.00    +0.000 NA
ATOM      5  N   UNL     1       2.453   7.620  18.814  0.00  0.00    +0.000 NA
ENDROOT
BRANCH   3   6
ATOM      6  C   UNL     1       0.350  10.054  20.287  0.00  0.00    +0.000 A 
ATOM      7  C   UNL     1       0.481  10.674  21.537  0.00  0.00    +0.000 A 
ATOM      8  C   UNL     1      -0.413  11.667  21.872  0.00  0.00    +0.000 A 
ATOM      9  N   UNL     1      -1.413  12.067  21.070  0.00  0.00    +0.000 NA
ATOM     10  C   UNL     1      -1.550  11.481  19.870  0.00  0.00    +0.000 A 
ATOM     11  C   UNL     1      -2.629  11.886  19.094  0.00  0.00    +0.000 A 
ATOM     12  C   UNL     1      -2.874  11.354  17.830  0.00  0.00    +0.000 A 
ATOM     13  C   UNL     1      -1.989  10.433  17.298  0.00  0.00    +0.000 A 
ATOM     14  C   UNL     1      -0.896  10.015  18.056  0.00  0.00    +0.000 A 
ATOM     15  C   UNL     1      -0.676  10.479  19.385  0.00  0.00    +0.000 A 
ENDBRANCH   3   6
BRANCH   1  16
ATOM     16  C   UNL     1       2.518   5.547  20.161  0.00  0.00    +0.000 C 
BRANCH  16  25
ATOM     17  F   UNL     1       7.745   5.828  19.578  0.00  0.00    +0.000 F 
ATOM     18  C   UNL     1       6.694   5.361  18.885  0.00  0.00    +0.000 A 
ATOM     19  N   UNL     1       6.974   4.775  17.708  0.00  0.00    +0.000 NA
ATOM     20  C   UNL     1       5.925   4.314  17.006  0.00  0.00    +0.000 A 
ATOM     21 CL   UNL     1       6.215   3.547  15.521  0.00  0.00    +0.000 Cl
ATOM     22  C   UNL     1       4.619   4.433  17.456  0.00  0.00    +0.000 A 
ATOM     23  N   UNL     1       3.383   4.074  16.974  0.00  0.00    +0.000 NA
ATOM     24  C   UNL     1       2.522   4.445  17.901  0.00  0.00    +0.000 A 
ATOM     25  N   UNL     1       3.154   5.043  18.959  0.00  0.00    +0.000 N 
ATOM     26  C   UNL     1       4.496   5.050  18.691  0.00  0.00    +0.000 A 
ATOM     27  N   UNL     1       5.483   5.535  19.461  0.00  0.00    +0.000 NA
ENDBRANCH  16  25
ENDBRANCH   1  16
TORSDOF 3
ENDMDL
MODEL 7
REMARK VINA RESULT:      -8.5      2.113      3.007
REMARK  Name = 
REMARK  3 active torsions:
REMARK  status: ('A' for Active; 'I' for Inactive)
REMARK    1  A    between atoms: N_9  and  C_10
REMARK    2  A    between atoms: C_10  and  C_11
REMARK    3  A    between atoms: N_13  and  C_14
REMARK                            x       y       z     vdW  Elec       q    Type
REMARK                         _______ _______ _______ _____ _____    ______ ____
ROOT
ATOM      1  C   UNL     1       2.529   7.611  18.841  0.00  0.00    +0.000 A 
ATOM      2  C   UNL     1       1.709   8.497  19.505  0.00  0.00    +0.000 A 
ATOM      3  N   UNL     1       1.324   9.419  18.550  0.00  0.00    +0.000 N 
ATOM      4  N   UNL     1       1.970   9.135  17.395  0.00  0.00    +0.000 NA
ATOM      5  N   UNL     1       2.683   8.032  17.554  0.00  0.00    +0.000 NA
ENDROOT
BRANCH   3   6
ATOM      6  C   UNL     1       0.329  10.431  18.659  0.00  0.00    +0.000 A 
ATOM      7  C   UNL     1      -1.010  10.035  18.541  0.00  0.00    +0.000 A 
ATOM      8  C   UNL     1      -1.982  11.010  18.521  0.00  0.00    +0.000 A 
ATOM      9  N   UNL     1      -1.715  12.325  18.595  0.00  0.00    +0.000 NA
ATOM     10  C   UNL     1      -0.437  12.718  18.707  0.00  0.00    +0.000 A 
ATOM     11  C   UNL     1      -0.200  14.087  18.726  0.00  0.00    +0.000 A 
ATOM     12  C   UNL     1       1.083  14.617  18.843  0.00  0.00    +0.000 A 
ATOM     13  C   UNL     1       2.158  13.760  19.000  0.00  0.00    +0.000 A 
ATOM     14  C   UNL     1       1.945  12.382  18.989  0.00  0.00    +0.000 A 
ATOM     15  C   UNL     1       0.653  11.818  18.783  0.00  0.00    +0.000 A 
ENDBRANCH   3   6
BRANCH   1  16
ATOM     16  C   UNL     1       3.173   6.367  19.315  0.00  0.00    +0.000 C 
BRANCH  16  25
ATOM     17  F   UNL     1       7.919   7.539  17.355  0.00  0.00    +0.000 F 
ATOM     18  C   UNL     1       6.939   6.653  17.116  0.00  0.00    +0.000 A 
ATOM     19  N   UNL     1       7.162   5.777  16.120  0.00  0.00    +0.000 NA
ATOM     20  C   UNL     1       6.180   4.895  15.870  0.00  0.00    +0.000 A 
ATOM     21 CL   UNL     1       6.411   3.751  14.639  0.00  0.00    +0.000 Cl
ATOM     22  C   UNL     1       4.995   4.878  16.589  0.00  0.00    +0.000 A 
ATOM     23  N   UNL     1       3.847   4.123  16.561  0.00  0.00    +0.000 NA
ATOM     24  C   UNL     1       3.092   4.594  17.535  0.00  0.00    +0.000 A 
ATOM     25  N   UNL     1       3.705   5.634  18.183  0.00  0.00    +0.000 N 
ATOM     26  C   UNL     1       4.921   5.835  17.589  0.00  0.00    +0.000 A 
ATOM     27  N   UNL     1       5.849   6.750  17.910  0.00  0.00    +0.000 NA
ENDBRANCH  16  25
ENDBRANCH   1  16
TORSDOF 3
ENDMDL
MODEL 8
REMARK VINA RESULT:      -8.5      4.423      8.492
REMARK  Name = 
REMARK  3 active torsions:
REMARK  status: ('A' for Active; 'I' for Inactive)
REMARK    1  A    between atoms: N_9  and  C_10
REMARK    2  A    between atoms: C_10  and  C_11
REMARK    3  A    between atoms: N_13  and  C_14
REMARK                            x       y       z     vdW  Elec       q    Type
REMARK                         _______ _______ _______ _____ _____    ______ ____
ROOT
ATOM      1  C   UNL     1       1.497   9.315  19.057  0.00  0.00    +0.000 A 
ATOM      2  C   UNL     1       2.252   8.548  18.197  0.00  0.00    +0.000 A 
ATOM      3  N   UNL     1       2.438   7.346  18.853  0.00  0.00    +0.000 N 
ATOM      4  N   UNL     1       1.892   7.442  20.087  0.00  0.00    +0.000 NA
ATOM      5  N   UNL     1       1.301   8.619  20.212  0.00  0.00    +0.000 NA
ENDROOT
BRANCH   3   6
ATOM      6  C   UNL     1       2.983   6.139  18.333  0.00  0.00    +0.000 A 
ATOM      7  C   UNL     1       4.055   6.247  17.437  0.00  0.00    +0.000 A 
ATOM      8  C   UNL     1       4.517   5.102  16.828  0.00  0.00    +0.000 A 
ATOM      9  N   UNL     1       3.988   3.885  17.036  0.00  0.00    +0.000 NA
ATOM     10  C   UNL     1       2.959   3.767  17.890  0.00  0.00    +0.000 A 
ATOM     11  C   UNL     1       2.407   2.501  18.035  0.00  0.00    +0.000 A 
ATOM     12  C   UNL     1       1.339   2.252  18.895  0.00  0.00    +0.000 A 
ATOM     13  C   UNL     1       0.842   3.282  19.676  0.00  0.00    +0.000 A 
ATOM     14  C   UNL     1       1.385   4.560  19.551  0.00  0.00    +0.000 A 
ATOM     15  C   UNL     1       2.417   4.856  18.614  0.00  0.00    +0.000 A 
ENDBRANCH   3   6
BRANCH   1  16
ATOM     16  C   UNL     1       0.912  10.661  18.872  0.00  0.00    +0.000 C 
BRANCH  16  25
ATOM     17  F   UNL     1      -2.868  13.567  21.108  0.00  0.00    +0.000 F 
ATOM     18  C   UNL     1      -2.769  12.651  20.132  0.00  0.00    +0.000 A 
ATOM     19  N   UNL     1      -3.910  12.345  19.489  0.00  0.00    +0.000 NA
ATOM     20  C   UNL     1      -3.818  11.422  18.517  0.00  0.00    +0.000 A 
ATOM     21 CL   UNL     1      -5.219  11.008  17.655  0.00  0.00    +0.000 Cl
ATOM     22  C   UNL     1      -2.620  10.806  18.187  0.00  0.00    +0.000 A 
ATOM     23  N   UNL     1      -2.230   9.855  17.275  0.00  0.00    +0.000 NA
ATOM     24  C   UNL     1      -0.929   9.719  17.444  0.00  0.00    +0.000 A 
ATOM     25  N   UNL     1      -0.467  10.536  18.440  0.00  0.00    +0.000 N 
ATOM     26  C   UNL     1      -1.534  11.236  18.933  0.00  0.00    +0.000 A 
ATOM     27  N   UNL     1      -1.532  12.152  19.915  0.00  0.00    +0.000 NA
ENDBRANCH  16  25
ENDBRANCH   1  16
TORSDOF 3
ENDMDL
MODEL 9
REMARK VINA RESULT:      -8.4      3.703      7.853
REMARK  Name = 
REMARK  3 active torsions:
REMARK  status: ('A' for Active; 'I' for Inactive)
REMARK    1  A    between atoms: N_9  and  C_10
REMARK    2  A    between atoms: C_10  and  C_11
REMARK    3  A    between atoms: N_13  and  C_14
REMARK                            x       y       z     vdW  Elec       q    Type
REMARK                         _______ _______ _______ _____ _____    ______ ____
ROOT
ATOM      1  C   UNL     1       1.336   9.189  18.769  0.00  0.00    +0.000 A 
ATOM      2  C   UNL     1       2.037   8.430  17.857  0.00  0.00    +0.000 A 
ATOM      3  N   UNL     1       2.530   7.360  18.579  0.00  0.00    +0.000 N 
ATOM      4  N   UNL     1       2.208   7.537  19.882  0.00  0.00    +0.000 NA
ATOM      5  N   UNL     1       1.467   8.627  20.004  0.00  0.00    +0.000 NA
ENDROOT
BRANCH   3   6
ATOM      6  C   UNL     1       3.158   6.183  18.084  0.00  0.00    +0.000 A 
ATOM      7  C   UNL     1       4.285   6.348  17.267  0.00  0.00    +0.000 A 
ATOM      8  C   UNL     1       4.836   5.231  16.679  0.00  0.00    +0.000 A 
ATOM      9  N   UNL     1       4.343   3.991  16.834  0.00  0.00    +0.000 NA
ATOM     10  C   UNL     1       3.263   3.820  17.613  0.00  0.00    +0.000 A 
ATOM     11  C   UNL     1       2.755   2.531  17.704  0.00  0.00    +0.000 A 
ATOM     12  C   UNL     1       1.641   2.226  18.484  0.00  0.00    +0.000 A 
ATOM     13  C   UNL     1       1.049   3.223  19.239  0.00  0.00    +0.000 A 
ATOM     14  C   UNL     1       1.545   4.524  19.168  0.00  0.00    +0.000 A 
ATOM     15  C   UNL     1       2.628   4.875  18.310  0.00  0.00    +0.000 A 
ENDBRANCH   3   6
BRANCH   1  16
ATOM     16  C   UNL     1       0.519  10.406  18.571  0.00  0.00    +0.000 C 
BRANCH  16  25
ATOM     17  F   UNL     1       4.032  14.197  17.561  0.00  0.00    +0.000 F 
ATOM     18  C   UNL     1       3.243  13.823  18.581  0.00  0.00    +0.000 A 
ATOM     19  N   UNL     1       3.299  14.588  19.685  0.00  0.00    +0.000 NA
ATOM     20  C   UNL     1       2.518  14.214  20.712  0.00  0.00    +0.000 A 
ATOM     21 CL   UNL     1       2.530  15.151  22.125  0.00  0.00    +0.000 Cl
ATOM     22  C   UNL     1       1.697  13.098  20.653  0.00  0.00    +0.000 A 
ATOM     23  N   UNL     1       0.819  12.485  21.514  0.00  0.00    +0.000 NA
ATOM     24  C   UNL     1       0.322  11.464  20.843  0.00  0.00    +0.000 A 
ATOM     25  N   UNL     1       0.857  11.387  19.584  0.00  0.00    +0.000 N 
ATOM     26  C   UNL     1       1.743  12.420  19.445  0.00  0.00    +0.000 A 
ATOM     27  N   UNL     1       2.487  12.723  18.369  0.00  0.00    +0.000 NA
ENDBRANCH  16  25
ENDBRANCH   1  16
TORSDOF 3
ENDMDL
