MODEL 1
REMARK VINA RESULT:      -8.4      0.000      0.000
REMARK  Name = 
REMARK  11 active torsions:
REMARK  status: ('A' for Active; 'I' for Inactive)
REMARK    1  A    between atoms: C_1  and  C_2
REMARK    2  A    between atoms: C_5  and  N_6
REMARK    3  A    between atoms: N_6  and  C_7
REMARK    4  A    between atoms: N_6  and  S_19
REMARK    5  A    between atoms: C_7  and  C_8
REMARK    6  A    between atoms: N_10  and  C_11
REMARK    7  A    between atoms: C_13  and  C_14
REMARK    8  A    between atoms: C_16  and  C_17
REMARK    9  A    between atoms: S_19  and  C_22
REMARK   10  A    between atoms: C_23  and  C_24
REMARK   11  A    between atoms: C_27  and  C_28
REMARK                            x       y       z     vdW  Elec       q    Type
REMARK                         _______ _______ _______ _____ _____    ______ ____
ROOT
ATOM      1  N   UNL     1       6.389   5.977  17.496  0.00  0.00    +0.000 N 
ENDROOT
BRANCH   1   6
ATOM      2  C   UNL     1       6.255   3.452  12.305  0.00  0.00    +0.000 C 
ATOM      3  C   UNL     1       6.246   4.144  13.639  0.00  0.00    +0.000 A 
ATOM      4  C   UNL     1       7.439   4.603  14.198  0.00  0.00    +0.000 A 
ATOM      5  C   UNL     1       7.443   5.232  15.447  0.00  0.00    +0.000 A 
ATOM      6  C   UNL     1       6.261   5.398  16.172  0.00  0.00    +0.000 A 
ATOM      7  C   UNL     1       5.053   4.994  15.599  0.00  0.00    +0.000 A 
ATOM      8  C   UNL     1       5.050   4.366  14.338  0.00  0.00    +0.000 A 
ENDBRANCH   1   6
BRANCH   1   9
ATOM      9  S   UNL     1       5.793   4.955  18.774  0.00  0.00    +0.000 S 
ATOM     10  O   UNL     1       5.824   3.581  18.339  0.00  0.00    +0.000 OA
ATOM     11  O   UNL     1       6.407   5.375  20.022  0.00  0.00    +0.000 OA
BRANCH   9  12
ATOM     12  C   UNL     1       4.109   5.245  19.002  0.00  0.00    +0.000 A 
ATOM     13  C   UNL     1       3.229   4.434  19.766  0.00  0.00    +0.000 A 
ATOM     14  C   UNL     1       3.481   3.194  20.532  0.00  0.00    +0.000 C 
ATOM     15  N   UNL     1       1.992   4.938  19.769  0.00  0.00    +0.000 NA
ATOM     16  O   UNL     1       2.055   6.109  19.048  0.00  0.00    +0.000 OA
ATOM     17  C   UNL     1       3.330   6.308  18.595  0.00  0.00    +0.000 A 
ATOM     18  C   UNL     1       3.505   7.563  17.842  0.00  0.00    +0.000 C 
ENDBRANCH   9  12
ENDBRANCH   1   9
BRANCH   1  19
ATOM     19  C   UNL     1       7.690   6.590  17.860  0.00  0.00    +0.000 C 
BRANCH  19  20
ATOM     20  C   UNL     1       7.928   8.075  18.003  0.00  0.00    +0.000 C 
ATOM     21  O   UNL     1       7.266   8.831  17.283  0.00  0.00    +0.000 OA
ATOM     22  N   UNL     1       8.912   8.517  18.867  0.00  0.00    +0.000 N 
ATOM     23  H   UNL     1       9.653   7.867  19.096  0.00  0.00    +0.000 HD
BRANCH  22  24
ATOM     24  C   UNL     1       9.168   9.897  19.057  0.00  0.00    +0.000 A 
ATOM     25  C   UNL     1       9.673  10.694  18.020  0.00  0.00    +0.000 A 
ATOM     26  C   UNL     1      10.032  12.028  18.243  0.00  0.00    +0.000 A 
ATOM     27  C   UNL     1      10.595  12.872  17.137  0.00  0.00    +0.000 C 
ATOM     28  C   UNL     1       9.898  12.559  19.530  0.00  0.00    +0.000 A 
ATOM     29  C   UNL     1       9.366  11.785  20.572  0.00  0.00    +0.000 A 
ATOM     30  C   UNL     1       9.305  12.339  21.966  0.00  0.00    +0.000 C 
ATOM     31  C   UNL     1       8.960  10.465  20.316  0.00  0.00    +0.000 A 
ENDBRANCH  22  24
ENDBRANCH  19  20
ENDBRANCH   1  19
TORSDOF 6
ENDMDL
MODEL 2
REMARK VINA RESULT:      -8.2      4.345      6.602
REMARK  Name = 
REMARK  11 active torsions:
REMARK  status: ('A' for Active; 'I' for Inactive)
REMARK    1  A    between atoms: C_1  and  C_2
REMARK    2  A    between atoms: C_5  and  N_6
REMARK    3  A    between atoms: N_6  and  C_7
REMARK    4  A    between atoms: N_6  and  S_19
REMARK    5  A    between atoms: C_7  and  C_8
REMARK    6  A    between atoms: N_10  and  C_11
REMARK    7  A    between atoms: C_13  and  C_14
REMARK    8  A    between atoms: C_16  and  C_17
REMARK    9  A    between atoms: S_19  and  C_22
REMARK   10  A    between atoms: C_23  and  C_24
REMARK   11  A    between atoms: C_27  and  C_28
REMARK                            x       y       z     vdW  Elec       q    Type
REMARK                         _______ _______ _______ _____ _____    ______ ____
ROOT
ATOM      1  N   UNL     1       4.918   4.940  19.164  0.00  0.00    +0.000 N 
ENDROOT
BRANCH   1   6
ATOM      2  C   UNL     1       1.308   9.312  18.073  0.00  0.00    +0.000 C 
ATOM      3  C   UNL     1       2.233   8.150  18.305  0.00  0.00    +0.000 A 
ATOM      4  C   UNL     1       2.198   7.458  19.516  0.00  0.00    +0.000 A 
ATOM      5  C   UNL     1       3.067   6.388  19.748  0.00  0.00    +0.000 A 
ATOM      6  C   UNL     1       4.002   5.999  18.786  0.00  0.00    +0.000 A 
ATOM      7  C   UNL     1       4.009   6.647  17.549  0.00  0.00    +0.000 A 
ATOM      8  C   UNL     1       3.129   7.721  17.314  0.00  0.00    +0.000 A 
ENDBRANCH   1   6
BRANCH   1   9
ATOM      9  S   UNL     1       4.310   3.337  18.854  0.00  0.00    +0.000 S 
ATOM     10  O   UNL     1       4.198   3.137  17.430  0.00  0.00    +0.000 OA
ATOM     11  O   UNL     1       5.027   2.402  19.703  0.00  0.00    +0.000 OA
BRANCH   9  12
ATOM     12  C   UNL     1       2.672   3.233  19.382  0.00  0.00    +0.000 A 
ATOM     13  C   UNL     1       1.530   3.517  18.588  0.00  0.00    +0.000 A 
ATOM     14  C   UNL     1       1.420   3.954  17.180  0.00  0.00    +0.000 C 
ATOM     15  N   UNL     1       0.404   3.320  19.278  0.00  0.00    +0.000 NA
ATOM     16  O   UNL     1       0.790   2.859  20.517  0.00  0.00    +0.000 OA
ATOM     17  C   UNL     1       2.154   2.791  20.582  0.00  0.00    +0.000 A 
ATOM     18  C   UNL     1       2.663   2.268  21.863  0.00  0.00    +0.000 C 
ENDBRANCH   9  12
ENDBRANCH   1   9
BRANCH   1  19
ATOM     19  C   UNL     1       6.335   5.068  18.744  0.00  0.00    +0.000 C 
BRANCH  19  20
ATOM     20  C   UNL     1       6.848   4.771  17.354  0.00  0.00    +0.000 C 
ATOM     21  O   UNL     1       8.014   4.376  17.248  0.00  0.00    +0.000 OA
ATOM     22  N   UNL     1       6.028   5.019  16.269  0.00  0.00    +0.000 N 
ATOM     23  H   UNL     1       5.285   5.695  16.395  0.00  0.00    +0.000 HD
BRANCH  22  24
ATOM     24  C   UNL     1       6.447   4.743  14.945  0.00  0.00    +0.000 A 
ATOM     25  C   UNL     1       7.483   5.468  14.342  0.00  0.00    +0.000 A 
ATOM     26  C   UNL     1       7.816   5.272  12.997  0.00  0.00    +0.000 A 
ATOM     27  C   UNL     1       8.911   6.068  12.348  0.00  0.00    +0.000 C 
ATOM     28  C   UNL     1       7.084   4.347  12.247  0.00  0.00    +0.000 A 
ATOM     29  C   UNL     1       6.064   3.590  12.841  0.00  0.00    +0.000 A 
ATOM     30  C   UNL     1       5.230   2.662  12.007  0.00  0.00    +0.000 C 
ATOM     31  C   UNL     1       5.780   3.763  14.207  0.00  0.00    +0.000 A 
ENDBRANCH  22  24
ENDBRANCH  19  20
ENDBRANCH   1  19
TORSDOF 6
ENDMDL
MODEL 3
REMARK VINA RESULT:      -8.2      3.684      7.012
REMARK  Name = 
REMARK  11 active torsions:
REMARK  status: ('A' for Active; 'I' for Inactive)
REMARK    1  A    between atoms: C_1  and  C_2
REMARK    2  A    between atoms: C_5  and  N_6
REMARK    3  A    between atoms: N_6  and  C_7
REMARK    4  A    between atoms: N_6  and  S_19
REMARK    5  A    between atoms: C_7  and  C_8
REMARK    6  A    between atoms: N_10  and  C_11
REMARK    7  A    between atoms: C_13  and  C_14
REMARK    8  A    between atoms: C_16  and  C_17
REMARK    9  A    between atoms: S_19  and  C_22
REMARK   10  A    between atoms: C_23  and  C_24
REMARK   11  A    between atoms: C_27  and  C_28
REMARK                            x       y       z     vdW  Elec       q    Type
REMARK                         _______ _______ _______ _____ _____    ______ ____
ROOT
ATOM      1  N   UNL     1       4.384   6.782  17.901  0.00  0.00    +0.000 N 
ENDROOT
BRANCH   1   6
ATOM      2  C   UNL     1       3.471   1.130  18.650  0.00  0.00    +0.000 C 
ATOM      3  C   UNL     1       3.683   2.611  18.506  0.00  0.00    +0.000 A 
ATOM      4  C   UNL     1       3.348   3.254  17.314  0.00  0.00    +0.000 A 
ATOM      5  C   UNL     1       3.557   4.628  17.164  0.00  0.00    +0.000 A 
ATOM      6  C   UNL     1       4.123   5.386  18.193  0.00  0.00    +0.000 A 
ATOM      7  C   UNL     1       4.410   4.765  19.411  0.00  0.00    +0.000 A 
ATOM      8  C   UNL     1       4.192   3.382  19.562  0.00  0.00    +0.000 A 
ENDBRANCH   1   6
BRANCH   1   9
ATOM      9  S   UNL     1       5.676   7.035  16.760  0.00  0.00    +0.000 S 
ATOM     10  O   UNL     1       5.148   6.969  15.420  0.00  0.00    +0.000 OA
ATOM     11  O   UNL     1       6.473   8.162  17.212  0.00  0.00    +0.000 OA
BRANCH   9  12
ATOM     12  C   UNL     1       6.757   5.693  16.810  0.00  0.00    +0.000 A 
ATOM     13  C   UNL     1       7.585   5.343  17.909  0.00  0.00    +0.000 A 
ATOM     14  C   UNL     1       7.751   5.982  19.233  0.00  0.00    +0.000 C 
ATOM     15  N   UNL     1       8.288   4.238  17.648  0.00  0.00    +0.000 NA
ATOM     16  O   UNL     1       7.896   3.823  16.396  0.00  0.00    +0.000 OA
ATOM     17  C   UNL     1       6.963   4.686  15.891  0.00  0.00    +0.000 A 
ATOM     18  C   UNL     1       6.452   4.300  14.563  0.00  0.00    +0.000 C 
ENDBRANCH   9  12
ENDBRANCH   1   9
BRANCH   1  19
ATOM     19  C   UNL     1       3.222   7.655  17.600  0.00  0.00    +0.000 C 
BRANCH  19  20
ATOM     20  C   UNL     1       2.255   8.181  18.634  0.00  0.00    +0.000 C 
ATOM     21  O   UNL     1       1.894   7.404  19.526  0.00  0.00    +0.000 OA
ATOM     22  N   UNL     1       1.764   9.466  18.502  0.00  0.00    +0.000 N 
ATOM     23  H   UNL     1       1.778   9.874  17.575  0.00  0.00    +0.000 HD
BRANCH  22  24
ATOM     24  C   UNL     1       0.870  10.020  19.450  0.00  0.00    +0.000 A 
ATOM     25  C   UNL     1       0.899   9.629  20.795  0.00  0.00    +0.000 A 
ATOM     26  C   UNL     1      -0.060  10.091  21.704  0.00  0.00    +0.000 A 
ATOM     27  C   UNL     1      -0.040   9.651  23.139  0.00  0.00    +0.000 C 
ATOM     28  C   UNL     1      -1.069  10.943  21.247  0.00  0.00    +0.000 A 
ATOM     29  C   UNL     1      -1.097  11.370  19.911  0.00  0.00    +0.000 A 
ATOM     30  C   UNL     1      -2.232  12.216  19.413  0.00  0.00    +0.000 C 
ATOM     31  C   UNL     1      -0.094  10.938  19.026  0.00  0.00    +0.000 A 
ENDBRANCH  22  24
ENDBRANCH  19  20
ENDBRANCH   1  19
TORSDOF 6
ENDMDL
MODEL 4
REMARK VINA RESULT:      -8.1      4.366      6.529
REMARK  Name = 
REMARK  11 active torsions:
REMARK  status: ('A' for Active; 'I' for Inactive)
REMARK    1  A    between atoms: C_1  and  C_2
REMARK    2  A    between atoms: C_5  and  N_6
REMARK    3  A    between atoms: N_6  and  C_7
REMARK    4  A    between atoms: N_6  and  S_19
REMARK    5  A    between atoms: C_7  and  C_8
REMARK    6  A    between atoms: N_10  and  C_11
REMARK    7  A    between atoms: C_13  and  C_14
REMARK    8  A    between atoms: C_16  and  C_17
REMARK    9  A    between atoms: S_19  and  C_22
REMARK   10  A    between atoms: C_23  and  C_24
REMARK   11  A    between atoms: C_27  and  C_28
REMARK                            x       y       z     vdW  Elec       q    Type
REMARK                         _______ _______ _______ _____ _____    ______ ____
ROOT
ATOM      1  N   UNL     1       4.897   4.872  19.140  0.00  0.00    +0.000 N 
ENDROOT
BRANCH   1   6
ATOM      2  C   UNL     1       1.281   9.308  18.381  0.00  0.00    +0.000 C 
ATOM      3  C   UNL     1       2.206   8.132  18.527  0.00  0.00    +0.000 A 
ATOM      4  C   UNL     1       2.211   7.388  19.707  0.00  0.00    +0.000 A 
ATOM      5  C   UNL     1       3.080   6.304  19.858  0.00  0.00    +0.000 A 
ATOM      6  C   UNL     1       3.976   5.952  18.845  0.00  0.00    +0.000 A 
ATOM      7  C   UNL     1       3.940   6.653  17.638  0.00  0.00    +0.000 A 
ATOM      8  C   UNL     1       3.059   7.742  17.484  0.00  0.00    +0.000 A 
ENDBRANCH   1   6
BRANCH   1   9
ATOM      9  S   UNL     1       4.268   3.288  18.778  0.00  0.00    +0.000 S 
ATOM     10  O   UNL     1       4.200   3.118  17.348  0.00  0.00    +0.000 OA
ATOM     11  O   UNL     1       4.938   2.322  19.632  0.00  0.00    +0.000 OA
BRANCH   9  12
ATOM     12  C   UNL     1       2.612   3.208  19.251  0.00  0.00    +0.000 A 
ATOM     13  C   UNL     1       2.137   2.799  20.525  0.00  0.00    +0.000 A 
ATOM     14  C   UNL     1       2.871   2.354  21.730  0.00  0.00    +0.000 C 
ATOM     15  N   UNL     1       0.805   2.868  20.587  0.00  0.00    +0.000 NA
ATOM     16  O   UNL     1       0.392   3.368  19.373  0.00  0.00    +0.000 OA
ATOM     17  C   UNL     1       1.476   3.588  18.568  0.00  0.00    +0.000 A 
ATOM     18  C   UNL     1       1.134   4.163  17.254  0.00  0.00    +0.000 C 
ENDBRANCH   9  12
ENDBRANCH   1   9
BRANCH   1  19
ATOM     19  C   UNL     1       6.299   5.012  18.677  0.00  0.00    +0.000 C 
BRANCH  19  20
ATOM     20  C   UNL     1       6.761   4.776  17.257  0.00  0.00    +0.000 C 
ATOM     21  O   UNL     1       7.911   4.354  17.094  0.00  0.00    +0.000 OA
ATOM     22  N   UNL     1       5.917   5.105  16.214  0.00  0.00    +0.000 N 
ATOM     23  H   UNL     1       5.199   5.795  16.399  0.00  0.00    +0.000 HD
BRANCH  22  24
ATOM     24  C   UNL     1       6.287   4.889  14.864  0.00  0.00    +0.000 A 
ATOM     25  C   UNL     1       5.659   3.909  14.084  0.00  0.00    +0.000 A 
ATOM     26  C   UNL     1       6.105   3.620  12.789  0.00  0.00    +0.000 A 
ATOM     27  C   UNL     1       5.446   2.552  11.965  0.00  0.00    +0.000 C 
ATOM     28  C   UNL     1       7.207   4.314  12.282  0.00  0.00    +0.000 A 
ATOM     29  C   UNL     1       7.829   5.320  13.037  0.00  0.00    +0.000 A 
ATOM     30  C   UNL     1       9.061   6.001  12.516  0.00  0.00    +0.000 C 
ATOM     31  C   UNL     1       7.333   5.634  14.314  0.00  0.00    +0.000 A 
ENDBRANCH  22  24
ENDBRANCH  19  20
ENDBRANCH   1  19
TORSDOF 6
ENDMDL
MODEL 5
REMARK VINA RESULT:      -8.0      0.478      1.503
REMARK  Name = 
REMARK  11 active torsions:
REMARK  status: ('A' for Active; 'I' for Inactive)
REMARK    1  A    between atoms: C_1  and  C_2
REMARK    2  A    between atoms: C_5  and  N_6
REMARK    3  A    between atoms: N_6  and  C_7
REMARK    4  A    between atoms: N_6  and  S_19
REMARK    5  A    between atoms: C_7  and  C_8
REMARK    6  A    between atoms: N_10  and  C_11
REMARK    7  A    between atoms: C_13  and  C_14
REMARK    8  A    between atoms: C_16  and  C_17
REMARK    9  A    between atoms: S_19  and  C_22
REMARK   10  A    between atoms: C_23  and  C_24
REMARK   11  A    between atoms: C_27  and  C_28
REMARK                            x       y       z     vdW  Elec       q    Type
REMARK                         _______ _______ _______ _____ _____    ______ ____
ROOT
ATOM      1  N   UNL     1       6.289   5.987  17.505  0.00  0.00    +0.000 N 
ENDROOT
BRANCH   1   6
ATOM      2  C   UNL     1       6.264   3.427  12.330  0.00  0.00    +0.000 C 
ATOM      3  C   UNL     1       6.225   4.126  13.660  0.00  0.00    +0.000 A 
ATOM      4  C   UNL     1       7.396   4.646  14.213  0.00  0.00    +0.000 A 
ATOM      5  C   UNL     1       7.372   5.282  15.457  0.00  0.00    +0.000 A 
ATOM      6  C   UNL     1       6.186   5.394  16.186  0.00  0.00    +0.000 A 
ATOM      7  C   UNL     1       4.997   4.929  15.618  0.00  0.00    +0.000 A 
ATOM      8  C   UNL     1       5.021   4.294  14.361  0.00  0.00    +0.000 A 
ENDBRANCH   1   6
BRANCH   1   9
ATOM      9  S   UNL     1       5.632   4.996  18.778  0.00  0.00    +0.000 S 
ATOM     10  O   UNL     1       5.399   3.665  18.273  0.00  0.00    +0.000 OA
ATOM     11  O   UNL     1       6.402   5.231  19.987  0.00  0.00    +0.000 OA
BRANCH   9  12
ATOM     12  C   UNL     1       4.042   5.540  19.165  0.00  0.00    +0.000 A 
ATOM     13  C   UNL     1       3.394   6.664  18.591  0.00  0.00    +0.000 A 
ATOM     14  C   UNL     1       3.858   7.627  17.569  0.00  0.00    +0.000 C 
ATOM     15  N   UNL     1       2.160   6.810  19.082  0.00  0.00    +0.000 NA
ATOM     16  O   UNL     1       1.966   5.757  19.947  0.00  0.00    +0.000 OA
ATOM     17  C   UNL     1       3.091   4.980  19.992  0.00  0.00    +0.000 A 
ATOM     18  C   UNL     1       2.964   3.800  20.866  0.00  0.00    +0.000 C 
ENDBRANCH   9  12
ENDBRANCH   1   9
BRANCH   1  19
ATOM     19  C   UNL     1       7.593   6.574  17.899  0.00  0.00    +0.000 C 
BRANCH  19  20
ATOM     20  C   UNL     1       7.866   8.056  18.017  0.00  0.00    +0.000 C 
ATOM     21  O   UNL     1       7.228   8.814  17.278  0.00  0.00    +0.000 OA
ATOM     22  N   UNL     1       8.854   8.490  18.880  0.00  0.00    +0.000 N 
ATOM     23  H   UNL     1       9.578   7.826  19.127  0.00  0.00    +0.000 HD
BRANCH  22  24
ATOM     24  C   UNL     1       9.142   9.866  19.046  0.00  0.00    +0.000 A 
ATOM     25  C   UNL     1       9.659  10.635  17.995  0.00  0.00    +0.000 A 
ATOM     26  C   UNL     1      10.050  11.964  18.194  0.00  0.00    +0.000 A 
ATOM     27  C   UNL     1      10.626  12.777  17.072  0.00  0.00    +0.000 C 
ATOM     28  C   UNL     1       9.936  12.518  19.473  0.00  0.00    +0.000 A 
ATOM     29  C   UNL     1       9.392  11.773  20.530  0.00  0.00    +0.000 A 
ATOM     30  C   UNL     1       9.352  12.350  21.916  0.00  0.00    +0.000 C 
ATOM     31  C   UNL     1       8.955  10.458  20.298  0.00  0.00    +0.000 A 
ENDBRANCH  22  24
ENDBRANCH  19  20
ENDBRANCH   1  19
TORSDOF 6
ENDMDL
MODEL 6
REMARK VINA RESULT:      -8.0      3.139      7.046
REMARK  Name = 
REMARK  11 active torsions:
REMARK  status: ('A' for Active; 'I' for Inactive)
REMARK    1  A    between atoms: C_1  and  C_2
REMARK    2  A    between atoms: C_5  and  N_6
REMARK    3  A    between atoms: N_6  and  C_7
REMARK    4  A    between atoms: N_6  and  S_19
REMARK    5  A    between atoms: C_7  and  C_8
REMARK    6  A    between atoms: N_10  and  C_11
REMARK    7  A    between atoms: C_13  and  C_14
REMARK    8  A    between atoms: C_16  and  C_17
REMARK    9  A    between atoms: S_19  and  C_22
REMARK   10  A    between atoms: C_23  and  C_24
REMARK   11  A    between atoms: C_27  and  C_28
REMARK                            x       y       z     vdW  Elec       q    Type
REMARK                         _______ _______ _______ _____ _____    ______ ____
ROOT
ATOM      1  N   UNL     1       4.237   5.860  18.980  0.00  0.00    +0.000 N 
ENDROOT
BRANCH   1   6
ATOM      2  C   UNL     1       0.197   1.735  19.032  0.00  0.00    +0.000 C 
ATOM      3  C   UNL     1       1.219   2.838  19.060  0.00  0.00    +0.000 A 
ATOM      4  C   UNL     1       1.661   3.413  17.868  0.00  0.00    +0.000 A 
ATOM      5  C   UNL     1       2.624   4.426  17.882  0.00  0.00    +0.000 A 
ATOM      6  C   UNL     1       3.180   4.873  19.084  0.00  0.00    +0.000 A 
ATOM      7  C   UNL     1       2.705   4.345  20.287  0.00  0.00    +0.000 A 
ATOM      8  C   UNL     1       1.730   3.328  20.270  0.00  0.00    +0.000 A 
ENDBRANCH   1   6
BRANCH   1   9
ATOM      9  S   UNL     1       5.840   5.177  18.940  0.00  0.00    +0.000 S 
ATOM     10  O   UNL     1       6.657   5.822  19.938  0.00  0.00    +0.000 OA
ATOM     11  O   UNL     1       5.721   3.731  18.868  0.00  0.00    +0.000 OA
BRANCH   9  12
ATOM     12  C   UNL     1       6.615   5.622  17.466  0.00  0.00    +0.000 A 
ATOM     13  C   UNL     1       6.484   4.940  16.228  0.00  0.00    +0.000 A 
ATOM     14  C   UNL     1       5.702   3.737  15.868  0.00  0.00    +0.000 C 
ATOM     15  N   UNL     1       7.190   5.545  15.269  0.00  0.00    +0.000 NA
ATOM     16  O   UNL     1       7.754   6.656  15.853  0.00  0.00    +0.000 OA
ATOM     17  C   UNL     1       7.401   6.717  17.173  0.00  0.00    +0.000 A 
ATOM     18  C   UNL     1       7.928   7.900  17.876  0.00  0.00    +0.000 C 
ENDBRANCH   9  12
ENDBRANCH   1   9
BRANCH   1  19
ATOM     19  C   UNL     1       4.085   6.934  17.968  0.00  0.00    +0.000 C 
BRANCH  19  20
ATOM     20  C   UNL     1       3.002   7.987  17.992  0.00  0.00    +0.000 C 
ATOM     21  O   UNL     1       2.894   8.718  17.001  0.00  0.00    +0.000 OA
ATOM     22  N   UNL     1       2.236   8.136  19.133  0.00  0.00    +0.000 N 
ATOM     23  H   UNL     1       2.633   7.806  20.003  0.00  0.00    +0.000 HD
BRANCH  22  24
ATOM     24  C   UNL     1       1.195   9.094  19.207  0.00  0.00    +0.000 A 
ATOM     25  C   UNL     1       0.942   9.805  20.387  0.00  0.00    +0.000 A 
ATOM     26  C   UNL     1      -0.158  10.664  20.493  0.00  0.00    +0.000 A 
ATOM     27  C   UNL     1      -0.440  11.407  21.767  0.00  0.00    +0.000 C 
ATOM     28  C   UNL     1      -1.022  10.793  19.402  0.00  0.00    +0.000 A 
ATOM     29  C   UNL     1      -0.768  10.112  18.202  0.00  0.00    +0.000 A 
ATOM     30  C   UNL     1      -1.747  10.193  17.067  0.00  0.00    +0.000 C 
ATOM     31  C   UNL     1       0.371   9.296  18.097  0.00  0.00    +0.000 A 
ENDBRANCH  22  24
ENDBRANCH  19  20
ENDBRANCH   1  19
TORSDOF 6
ENDMDL
MODEL 7
REMARK VINA RESULT:      -8.0      3.740      6.941
REMARK  Name = 
REMARK  11 active torsions:
REMARK  status: ('A' for Active; 'I' for Inactive)
REMARK    1  A    between atoms: C_1  and  C_2
REMARK    2  A    between atoms: C_5  and  N_6
REMARK    3  A    between atoms: N_6  and  C_7
REMARK    4  A    between atoms: N_6  and  S_19
REMARK    5  A    between atoms: C_7  and  C_8
REMARK    6  A    between atoms: N_10  and  C_11
REMARK    7  A    between atoms: C_13  and  C_14
REMARK    8  A    between atoms: C_16  and  C_17
REMARK    9  A    between atoms: S_19  and  C_22
REMARK   10  A    between atoms: C_23  and  C_24
REMARK   11  A    between atoms: C_27  and  C_28
REMARK                            x       y       z     vdW  Elec       q    Type
REMARK                         _______ _______ _______ _____ _____    ______ ____
ROOT
ATOM      1  N   UNL     1       4.179   6.814  17.843  0.00  0.00    +0.000 N 
ENDROOT
BRANCH   1   6
ATOM      2  C   UNL     1       3.563   1.146  18.752  0.00  0.00    +0.000 C 
ATOM      3  C   UNL     1       3.695   2.632  18.566  0.00  0.00    +0.000 A 
ATOM      4  C   UNL     1       3.365   3.216  17.342  0.00  0.00    +0.000 A 
ATOM      5  C   UNL     1       3.502   4.594  17.153  0.00  0.00    +0.000 A 
ATOM      6  C   UNL     1       3.988   5.416  18.173  0.00  0.00    +0.000 A 
ATOM      7  C   UNL     1       4.267   4.852  19.420  0.00  0.00    +0.000 A 
ATOM      8  C   UNL     1       4.123   3.463  19.611  0.00  0.00    +0.000 A 
ENDBRANCH   1   6
BRANCH   1   9
ATOM      9  S   UNL     1       5.584   7.122  16.859  0.00  0.00    +0.000 S 
ATOM     10  O   UNL     1       5.198   7.142  15.470  0.00  0.00    +0.000 OA
ATOM     11  O   UNL     1       6.334   8.212  17.459  0.00  0.00    +0.000 OA
BRANCH   9  12
ATOM     12  C   UNL     1       6.648   5.768  16.941  0.00  0.00    +0.000 A 
ATOM     13  C   UNL     1       6.890   4.846  15.889  0.00  0.00    +0.000 A 
ATOM     14  C   UNL     1       6.339   4.781  14.518  0.00  0.00    +0.000 C 
ATOM     15  N   UNL     1       7.783   3.923  16.255  0.00  0.00    +0.000 NA
ATOM     16  O   UNL     1       8.174   4.255  17.533  0.00  0.00    +0.000 OA
ATOM     17  C   UNL     1       7.505   5.374  17.947  0.00  0.00    +0.000 A 
ATOM     18  C   UNL     1       7.889   5.831  19.295  0.00  0.00    +0.000 C 
ENDBRANCH   9  12
ENDBRANCH   1   9
BRANCH   1  19
ATOM     19  C   UNL     1       3.004   7.577  17.355  0.00  0.00    +0.000 C 
BRANCH  19  20
ATOM     20  C   UNL     1       2.110   8.426  18.228  0.00  0.00    +0.000 C 
ATOM     21  O   UNL     1       1.955   8.072  19.402  0.00  0.00    +0.000 OA
ATOM     22  N   UNL     1       1.455   9.507  17.667  0.00  0.00    +0.000 N 
ATOM     23  H   UNL     1       1.307   9.490  16.666  0.00  0.00    +0.000 HD
BRANCH  22  24
ATOM     24  C   UNL     1       0.619  10.350  18.440  0.00  0.00    +0.000 A 
ATOM     25  C   UNL     1      -0.763  10.411  18.215  0.00  0.00    +0.000 A 
ATOM     26  C   UNL     1      -1.567  11.328  18.901  0.00  0.00    +0.000 A 
ATOM     27  C   UNL     1      -3.044  11.407  18.640  0.00  0.00    +0.000 C 
ATOM     28  C   UNL     1      -0.969  12.205  19.809  0.00  0.00    +0.000 A 
ATOM     29  C   UNL     1       0.408  12.138  20.070  0.00  0.00    +0.000 A 
ATOM     30  C   UNL     1       1.052  13.140  20.984  0.00  0.00    +0.000 C 
ATOM     31  C   UNL     1       1.190  11.174  19.412  0.00  0.00    +0.000 A 
ENDBRANCH  22  24
ENDBRANCH  19  20
ENDBRANCH   1  19
TORSDOF 6
ENDMDL
MODEL 8
REMARK VINA RESULT:      -7.9      3.706      6.903
REMARK  Name = 
REMARK  11 active torsions:
REMARK  status: ('A' for Active; 'I' for Inactive)
REMARK    1  A    between atoms: C_1  and  C_2
REMARK    2  A    between atoms: C_5  and  N_6
REMARK    3  A    between atoms: N_6  and  C_7
REMARK    4  A    between atoms: N_6  and  S_19
REMARK    5  A    between atoms: C_7  and  C_8
REMARK    6  A    between atoms: N_10  and  C_11
REMARK    7  A    between atoms: C_13  and  C_14
REMARK    8  A    between atoms: C_16  and  C_17
REMARK    9  A    between atoms: S_19  and  C_22
REMARK   10  A    between atoms: C_23  and  C_24
REMARK   11  A    between atoms: C_27  and  C_28
REMARK                            x       y       z     vdW  Elec       q    Type
REMARK                         _______ _______ _______ _____ _____    ______ ____
ROOT
ATOM      1  N   UNL     1       4.274   6.681  17.939  0.00  0.00    +0.000 N 
ENDROOT
BRANCH   1   6
ATOM      2  C   UNL     1       3.057   1.123  18.922  0.00  0.00    +0.000 C 
ATOM      3  C   UNL     1       3.397   2.555  18.615  0.00  0.00    +0.000 A 
ATOM      4  C   UNL     1       4.039   3.343  19.571  0.00  0.00    +0.000 A 
ATOM      5  C   UNL     1       4.343   4.680  19.301  0.00  0.00    +0.000 A 
ATOM      6  C   UNL     1       3.997   5.265  18.081  0.00  0.00    +0.000 A 
ATOM      7  C   UNL     1       3.406   4.472  17.094  0.00  0.00    +0.000 A 
ATOM      8  C   UNL     1       3.105   3.122  17.366  0.00  0.00    +0.000 A 
ENDBRANCH   1   6
BRANCH   1   9
ATOM      9  S   UNL     1       5.609   7.037  16.879  0.00  0.00    +0.000 S 
ATOM     10  O   UNL     1       5.139   7.073  15.516  0.00  0.00    +0.000 OA
ATOM     11  O   UNL     1       6.372   8.132  17.453  0.00  0.00    +0.000 OA
BRANCH   9  12
ATOM     12  C   UNL     1       6.704   5.706  16.870  0.00  0.00    +0.000 A 
ATOM     13  C   UNL     1       7.551   5.327  17.945  0.00  0.00    +0.000 A 
ATOM     14  C   UNL     1       7.727   5.922  19.288  0.00  0.00    +0.000 C 
ATOM     15  N   UNL     1       8.261   4.240  17.638  0.00  0.00    +0.000 NA
ATOM     16  O   UNL     1       7.857   3.863  16.377  0.00  0.00    +0.000 OA
ATOM     17  C   UNL     1       6.909   4.733  15.914  0.00  0.00    +0.000 A 
ATOM     18  C   UNL     1       6.384   4.386  14.580  0.00  0.00    +0.000 C 
ENDBRANCH   9  12
ENDBRANCH   1   9
BRANCH   1  19
ATOM     19  C   UNL     1       3.127   7.588  17.683  0.00  0.00    +0.000 C 
BRANCH  19  20
ATOM     20  C   UNL     1       2.229   8.158  18.756  0.00  0.00    +0.000 C 
ATOM     21  O   UNL     1       2.209   7.582  19.850  0.00  0.00    +0.000 OA
ATOM     22  N   UNL     1       1.424   9.240  18.452  0.00  0.00    +0.000 N 
ATOM     23  H   UNL     1       1.196   9.388  17.477  0.00  0.00    +0.000 HD
BRANCH  22  24
ATOM     24  C   UNL     1       0.576   9.829  19.421  0.00  0.00    +0.000 A 
ATOM     25  C   UNL     1      -0.203  10.955  19.121  0.00  0.00    +0.000 A 
ATOM     26  C   UNL     1      -0.950  11.602  20.111  0.00  0.00    +0.000 A 
ATOM     27  C   UNL     1      -1.763  12.823  19.792  0.00  0.00    +0.000 C 
ATOM     28  C   UNL     1      -0.898  11.119  21.422  0.00  0.00    +0.000 A 
ATOM     29  C   UNL     1      -0.149   9.975  21.735  0.00  0.00    +0.000 A 
ATOM     30  C   UNL     1      -0.035   9.515  23.159  0.00  0.00    +0.000 C 
ATOM     31  C   UNL     1       0.552   9.307  20.716  0.00  0.00    +0.000 A 
ENDBRANCH  22  24
ENDBRANCH  19  20
ENDBRANCH   1  19
TORSDOF 6
ENDMDL
MODEL 9
REMARK VINA RESULT:      -7.9      4.640      6.138
REMARK  Name = 
REMARK  11 active torsions:
REMARK  status: ('A' for Active; 'I' for Inactive)
REMARK    1  A    between atoms: C_1  and  C_2
REMARK    2  A    between atoms: C_5  and  N_6
REMARK    3  A    between atoms: N_6  and  C_7
REMARK    4  A    between atoms: N_6  and  S_19
REMARK    5  A    between atoms: C_7  and  C_8
REMARK    6  A    between atoms: N_10  and  C_11
REMARK    7  A    between atoms: C_13  and  C_14
REMARK    8  A    between atoms: C_16  and  C_17
REMARK    9  A    between atoms: S_19  and  C_22
REMARK   10  A    between atoms: C_23  and  C_24
REMARK   11  A    between atoms: C_27  and  C_28
REMARK                            x       y       z     vdW  Elec       q    Type
REMARK                         _______ _______ _______ _____ _____    ______ ____
ROOT
ATOM      1  N   UNL     1       3.695   4.520  17.672  0.00  0.00    +0.000 N 
ENDROOT
BRANCH   1   6
ATOM      2  C   UNL     1       7.766   4.962  13.602  0.00  0.00    +0.000 C 
ATOM      3  C   UNL     1       6.743   4.815  14.693  0.00  0.00    +0.000 A 
ATOM      4  C   UNL     1       5.439   4.428  14.383  0.00  0.00    +0.000 A 
ATOM      5  C   UNL     1       4.476   4.307  15.389  0.00  0.00    +0.000 A 
ATOM      6  C   UNL     1       4.788   4.587  16.722  0.00  0.00    +0.000 A 
ATOM      7  C   UNL     1       6.104   4.919  17.053  0.00  0.00    +0.000 A 
ATOM      8  C   UNL     1       7.075   5.036  16.038  0.00  0.00    +0.000 A 
ENDBRANCH   1   6
BRANCH   1   9
ATOM      9  S   UNL     1       3.210   2.897  18.078  0.00  0.00    +0.000 S 
ATOM     10  O   UNL     1       1.882   2.656  17.572  0.00  0.00    +0.000 OA
ATOM     11  O   UNL     1       4.315   2.001  17.783  0.00  0.00    +0.000 OA
BRANCH   9  12
ATOM     12  C   UNL     1       2.997   2.773  19.784  0.00  0.00    +0.000 A 
ATOM     13  C   UNL     1       1.845   3.188  20.503  0.00  0.00    +0.000 A 
ATOM     14  C   UNL     1       0.586   3.805  20.032  0.00  0.00    +0.000 C 
ATOM     15  N   UNL     1       1.976   2.937  21.807  0.00  0.00    +0.000 NA
ATOM     16  O   UNL     1       3.193   2.310  21.955  0.00  0.00    +0.000 OA
ATOM     17  C   UNL     1       3.807   2.195  20.739  0.00  0.00    +0.000 A 
ATOM     18  C   UNL     1       5.105   1.498  20.791  0.00  0.00    +0.000 C 
ENDBRANCH   9  12
ENDBRANCH   1   9
BRANCH   1  19
ATOM     19  C   UNL     1       3.775   5.376  18.881  0.00  0.00    +0.000 C 
BRANCH  19  20
ATOM     20  C   UNL     1       3.009   6.664  19.073  0.00  0.00    +0.000 C 
ATOM     21  O   UNL     1       3.099   7.519  18.186  0.00  0.00    +0.000 OA
ATOM     22  N   UNL     1       2.308   6.859  20.249  0.00  0.00    +0.000 N 
ATOM     23  H   UNL     1       2.603   6.326  21.057  0.00  0.00    +0.000 HD
BRANCH  22  24
ATOM     24  C   UNL     1       1.556   8.037  20.477  0.00  0.00    +0.000 A 
ATOM     25  C   UNL     1       1.094   8.370  21.758  0.00  0.00    +0.000 A 
ATOM     26  C   UNL     1       0.255   9.471  21.960  0.00  0.00    +0.000 A 
ATOM     27  C   UNL     1      -0.258   9.811  23.329  0.00  0.00    +0.000 C 
ATOM     28  C   UNL     1      -0.136  10.235  20.857  0.00  0.00    +0.000 A 
ATOM     29  C   UNL     1       0.342   9.936  19.572  0.00  0.00    +0.000 A 
ATOM     30  C   UNL     1      -0.150  10.711  18.385  0.00  0.00    +0.000 C 
ATOM     31  C   UNL     1       1.226   8.858  19.397  0.00  0.00    +0.000 A 
ENDBRANCH  22  24
ENDBRANCH  19  20
ENDBRANCH   1  19
TORSDOF 6
ENDMDL
