MODEL 1
REMARK VINA RESULT:      -7.9      0.000      0.000
REMARK  Name = 
REMARK  7 active torsions:
REMARK  status: ('A' for Active; 'I' for Inactive)
REMARK    1  A    between atoms: C_1  and  C_2
REMARK    2  A    between atoms: C_2  and  O_3
REMARK    3  A    between atoms: O_3  and  C_4
REMARK    4  A    between atoms: C_7  and  N_8
REMARK    5  A    between atoms: C_9  and  C_11
REMARK    6  A    between atoms: C_13  and  S_14
REMARK    7  A    between atoms: S_14  and  N_17
REMARK                            x       y       z     vdW  Elec       q    Type
REMARK                         _______ _______ _______ _____ _____    ______ ____
ROOT
ATOM      1  C   UNL     1       2.839   6.169  18.759  0.00  0.00    +0.000 A 
ATOM      2  C   UNL     1       3.888   6.629  17.976  0.00  0.00    +0.000 A 
ATOM      3  C   UNL     1       4.330   5.541  17.159  0.00  0.00    +0.000 A 
ATOM      4  C   UNL     1       3.520   4.462  17.437  0.00  0.00    +0.000 A 
ATOM      5  N   UNL     1       2.629   4.851  18.393  0.00  0.00    +0.000 N 
ATOM      6  H   UNL     1       1.893   4.282  18.800  0.00  0.00    +0.000 HD
ENDROOT
BRANCH   1   8
ATOM      7  N   UNL     1       1.841   8.122  19.770  0.00  0.00    +0.000 N 
ATOM      8  C   UNL     1       1.988   6.748  19.785  0.00  0.00    +0.000 C 
ATOM      9  O   UNL     1       1.470   5.990  20.605  0.00  0.00    +0.000 OA
ATOM     10  H   UNL     1       2.327   8.629  19.039  0.00  0.00    +0.000 HD
BRANCH   7  14
ATOM     11  C   UNL     1      -0.394  10.381  22.585  0.00  0.00    +0.000 A 
ATOM     12  C   UNL     1      -0.610  10.564  21.225  0.00  0.00    +0.000 A 
ATOM     13  C   UNL     1       0.111   9.822  20.284  0.00  0.00    +0.000 A 
ATOM     14  C   UNL     1       1.078   8.895  20.682  0.00  0.00    +0.000 A 
ATOM     15  C   UNL     1       1.305   8.730  22.055  0.00  0.00    +0.000 A 
ATOM     16  C   UNL     1       0.578   9.473  23.002  0.00  0.00    +0.000 A 
BRANCH  11  17
ATOM     17  O   UNL     1      -1.174  11.158  23.391  0.00  0.00    +0.000 OA
BRANCH  17  19
ATOM     18  C   UNL     1      -3.248  12.306  23.539  0.00  0.00    +0.000 C 
ATOM     19  C   UNL     1      -1.960  12.157  22.748  0.00  0.00    +0.000 C 
ENDBRANCH  17  19
ENDBRANCH  11  17
ENDBRANCH   7  14
ENDBRANCH   1   8
BRANCH   3  20
ATOM     20  S   UNL     1       5.623   5.579  15.997  0.00  0.00    +0.000 S 
ATOM     21  O   UNL     1       5.628   4.243  15.445  0.00  0.00    +0.000 OA
ATOM     22  O   UNL     1       5.333   6.745  15.191  0.00  0.00    +0.000 OA
BRANCH  20  23
ATOM     23  N   UNL     1       7.084   5.841  16.798  0.00  0.00    +0.000 NA
ATOM     24  C   UNL     1       7.587   4.842  17.757  0.00  0.00    +0.000 C 
ATOM     25  C   UNL     1       7.800   5.618  19.048  0.00  0.00    +0.000 C 
ATOM     26  C   UNL     1       8.180   7.006  18.571  0.00  0.00    +0.000 C 
ATOM     27  C   UNL     1       7.379   7.201  17.290  0.00  0.00    +0.000 C 
ENDBRANCH  20  23
ENDBRANCH   3  20
TORSDOF 6
ENDMDL
MODEL 2
REMARK VINA RESULT:      -7.6      2.462      3.735
REMARK  Name = 
REMARK  7 active torsions:
REMARK  status: ('A' for Active; 'I' for Inactive)
REMARK    1  A    between atoms: C_1  and  C_2
REMARK    2  A    between atoms: C_2  and  O_3
REMARK    3  A    between atoms: O_3  and  C_4
REMARK    4  A    between atoms: C_7  and  N_8
REMARK    5  A    between atoms: C_9  and  C_11
REMARK    6  A    between atoms: C_13  and  S_14
REMARK    7  A    between atoms: S_14  and  N_17
REMARK                            x       y       z     vdW  Elec       q    Type
REMARK                         _______ _______ _______ _____ _____    ______ ____
ROOT
ATOM      1  C   UNL     1       2.512   7.288  18.898  0.00  0.00    +0.000 A 
ATOM      2  C   UNL     1       2.692   5.982  19.331  0.00  0.00    +0.000 A 
ATOM      3  C   UNL     1       3.634   5.358  18.454  0.00  0.00    +0.000 A 
ATOM      4  C   UNL     1       4.031   6.306  17.535  0.00  0.00    +0.000 A 
ATOM      5  N   UNL     1       3.355   7.457  17.814  0.00  0.00    +0.000 N 
ATOM      6  H   UNL     1       3.439   8.340  17.320  0.00  0.00    +0.000 HD
ENDROOT
BRANCH   1   8
ATOM      7  N   UNL     1       1.502   8.558  20.686  0.00  0.00    +0.000 N 
ATOM      8  C   UNL     1       1.697   8.413  19.325  0.00  0.00    +0.000 C 
ATOM      9  O   UNL     1       1.223   9.148  18.460  0.00  0.00    +0.000 OA
ATOM     10  H   UNL     1       1.948   7.878  21.290  0.00  0.00    +0.000 HD
BRANCH   7  14
ATOM     11  C   UNL     1      -0.846  11.499  22.651  0.00  0.00    +0.000 A 
ATOM     12  C   UNL     1      -0.043  11.861  21.576  0.00  0.00    +0.000 A 
ATOM     13  C   UNL     1       0.730  10.903  20.911  0.00  0.00    +0.000 A 
ATOM     14  C   UNL     1       0.732   9.566  21.319  0.00  0.00    +0.000 A 
ATOM     15  C   UNL     1      -0.064   9.213  22.417  0.00  0.00    +0.000 A 
ATOM     16  C   UNL     1      -0.845  10.175  23.084  0.00  0.00    +0.000 A 
BRANCH  11  17
ATOM     17  O   UNL     1      -1.557  12.528  23.196  0.00  0.00    +0.000 OA
BRANCH  17  19
ATOM     18  C   UNL     1      -3.694  12.645  22.168  0.00  0.00    +0.000 C 
ATOM     19  C   UNL     1      -2.940  12.292  23.438  0.00  0.00    +0.000 C 
ENDBRANCH  17  19
ENDBRANCH  11  17
ENDBRANCH   7  14
ENDBRANCH   1   8
BRANCH   3  20
ATOM     20  S   UNL     1       4.209   3.720  18.549  0.00  0.00    +0.000 S 
ATOM     21  O   UNL     1       4.288   3.303  17.167  0.00  0.00    +0.000 OA
ATOM     22  O   UNL     1       5.379   3.810  19.395  0.00  0.00    +0.000 OA
BRANCH  20  23
ATOM     23  N   UNL     1       3.059   2.771  19.338  0.00  0.00    +0.000 NA
ATOM     24  C   UNL     1       1.724   2.587  18.743  0.00  0.00    +0.000 C 
ATOM     25  C   UNL     1       0.754   3.032  19.827  0.00  0.00    +0.000 C 
ATOM     26  C   UNL     1       1.467   2.672  21.115  0.00  0.00    +0.000 C 
ATOM     27  C   UNL     1       2.944   2.887  20.805  0.00  0.00    +0.000 C 
ENDBRANCH  20  23
ENDBRANCH   3  20
TORSDOF 6
ENDMDL
MODEL 3
REMARK VINA RESULT:      -7.6      0.364      1.022
REMARK  Name = 
REMARK  7 active torsions:
REMARK  status: ('A' for Active; 'I' for Inactive)
REMARK    1  A    between atoms: C_1  and  C_2
REMARK    2  A    between atoms: C_2  and  O_3
REMARK    3  A    between atoms: O_3  and  C_4
REMARK    4  A    between atoms: C_7  and  N_8
REMARK    5  A    between atoms: C_9  and  C_11
REMARK    6  A    between atoms: C_13  and  S_14
REMARK    7  A    between atoms: S_14  and  N_17
REMARK                            x       y       z     vdW  Elec       q    Type
REMARK                         _______ _______ _______ _____ _____    ______ ____
ROOT
ATOM      1  C   UNL     1       2.801   6.085  18.971  0.00  0.00    +0.000 A 
ATOM      2  C   UNL     1       3.679   6.564  18.010  0.00  0.00    +0.000 A 
ATOM      3  C   UNL     1       4.308   5.437  17.393  0.00  0.00    +0.000 A 
ATOM      4  C   UNL     1       3.772   4.303  17.966  0.00  0.00    +0.000 A 
ATOM      5  N   UNL     1       2.869   4.704  18.905  0.00  0.00    +0.000 N 
ATOM      6  H   UNL     1       2.300   4.100  19.491  0.00  0.00    +0.000 HD
ENDROOT
BRANCH   1   8
ATOM      7  N   UNL     1       1.781   8.066  19.901  0.00  0.00    +0.000 N 
ATOM      8  C   UNL     1       1.899   6.689  19.937  0.00  0.00    +0.000 C 
ATOM      9  O   UNL     1       1.315   5.949  20.728  0.00  0.00    +0.000 OA
ATOM     10  H   UNL     1       2.322   8.556  19.198  0.00  0.00    +0.000 HD
BRANCH   7  14
ATOM     11  C   UNL     1      -0.664  10.502  22.372  0.00  0.00    +0.000 A 
ATOM     12  C   UNL     1       0.184   9.564  22.949  0.00  0.00    +0.000 A 
ATOM     13  C   UNL     1       1.003   8.760  22.150  0.00  0.00    +0.000 A 
ATOM     14  C   UNL     1       0.977   8.861  20.756  0.00  0.00    +0.000 A 
ATOM     15  C   UNL     1       0.104   9.795  20.181  0.00  0.00    +0.000 A 
ATOM     16  C   UNL     1      -0.717  10.607  20.984  0.00  0.00    +0.000 A 
BRANCH  11  17
ATOM     17  O   UNL     1      -1.396  11.228  23.267  0.00  0.00    +0.000 OA
BRANCH  17  19
ATOM     18  C   UNL     1      -2.874  13.085  23.191  0.00  0.00    +0.000 C 
ATOM     19  C   UNL     1      -1.427  12.639  23.072  0.00  0.00    +0.000 C 
ENDBRANCH  17  19
ENDBRANCH  11  17
ENDBRANCH   7  14
ENDBRANCH   1   8
BRANCH   3  20
ATOM     20  S   UNL     1       5.497   5.481  16.125  0.00  0.00    +0.000 S 
ATOM     21  O   UNL     1       5.493   4.132  15.604  0.00  0.00    +0.000 OA
ATOM     22  O   UNL     1       5.107   6.618  15.321  0.00  0.00    +0.000 OA
BRANCH  20  23
ATOM     23  N   UNL     1       7.012   5.801  16.794  0.00  0.00    +0.000 NA
ATOM     24  C   UNL     1       7.590   4.874  17.783  0.00  0.00    +0.000 C 
ATOM     25  C   UNL     1       7.894   5.743  18.994  0.00  0.00    +0.000 C 
ATOM     26  C   UNL     1       8.231   7.093  18.390  0.00  0.00    +0.000 C 
ATOM     27  C   UNL     1       7.334   7.194  17.161  0.00  0.00    +0.000 C 
ENDBRANCH  20  23
ENDBRANCH   3  20
TORSDOF 6
ENDMDL
MODEL 4
REMARK VINA RESULT:      -7.6      2.471      3.805
REMARK  Name = 
REMARK  7 active torsions:
REMARK  status: ('A' for Active; 'I' for Inactive)
REMARK    1  A    between atoms: C_1  and  C_2
REMARK    2  A    between atoms: C_2  and  O_3
REMARK    3  A    between atoms: O_3  and  C_4
REMARK    4  A    between atoms: C_7  and  N_8
REMARK    5  A    between atoms: C_9  and  C_11
REMARK    6  A    between atoms: C_13  and  S_14
REMARK    7  A    between atoms: S_14  and  N_17
REMARK                            x       y       z     vdW  Elec       q    Type
REMARK                         _______ _______ _______ _____ _____    ______ ____
ROOT
ATOM      1  C   UNL     1       2.503   7.261  18.972  0.00  0.00    +0.000 A 
ATOM      2  C   UNL     1       2.706   5.958  19.403  0.00  0.00    +0.000 A 
ATOM      3  C   UNL     1       3.637   5.343  18.509  0.00  0.00    +0.000 A 
ATOM      4  C   UNL     1       4.005   6.293  17.580  0.00  0.00    +0.000 A 
ATOM      5  N   UNL     1       3.322   7.438  17.870  0.00  0.00    +0.000 N 
ATOM      6  H   UNL     1       3.387   8.321  17.373  0.00  0.00    +0.000 HD
ENDROOT
BRANCH   1   8
ATOM      7  N   UNL     1       1.460   8.487  20.773  0.00  0.00    +0.000 N 
ATOM      8  C   UNL     1       1.685   8.378  19.413  0.00  0.00    +0.000 C 
ATOM      9  O   UNL     1       1.233   9.140  18.559  0.00  0.00    +0.000 OA
ATOM     10  H   UNL     1       1.891   7.788  21.367  0.00  0.00    +0.000 HD
BRANCH   7  14
ATOM     11  C   UNL     1      -0.825  11.540  22.636  0.00  0.00    +0.000 A 
ATOM     12  C   UNL     1      -0.897  10.236  23.111  0.00  0.00    +0.000 A 
ATOM     13  C   UNL     1      -0.144   9.219  22.514  0.00  0.00    +0.000 A 
ATOM     14  C   UNL     1       0.682   9.481  21.418  0.00  0.00    +0.000 A 
ATOM     15  C   UNL     1       0.734  10.794  20.932  0.00  0.00    +0.000 A 
ATOM     16  C   UNL     1      -0.020  11.818  21.533  0.00  0.00    +0.000 A 
BRANCH  11  17
ATOM     17  O   UNL     1      -1.600  12.433  23.318  0.00  0.00    +0.000 OA
BRANCH  17  19
ATOM     18  C   UNL     1      -3.831  12.454  24.133  0.00  0.00    +0.000 C 
ATOM     19  C   UNL     1      -2.955  12.556  22.896  0.00  0.00    +0.000 C 
ENDBRANCH  17  19
ENDBRANCH  11  17
ENDBRANCH   7  14
ENDBRANCH   1   8
BRANCH   3  20
ATOM     20  S   UNL     1       4.231   3.712  18.595  0.00  0.00    +0.000 S 
ATOM     21  O   UNL     1       4.317   3.303  17.211  0.00  0.00    +0.000 OA
ATOM     22  O   UNL     1       5.400   3.811  19.442  0.00  0.00    +0.000 OA
BRANCH  20  23
ATOM     23  N   UNL     1       3.092   2.745  19.378  0.00  0.00    +0.000 NA
ATOM     24  C   UNL     1       1.771   2.523  18.766  0.00  0.00    +0.000 C 
ATOM     25  C   UNL     1       0.775   2.957  19.830  0.00  0.00    +0.000 C 
ATOM     26  C   UNL     1       1.477   2.627  21.133  0.00  0.00    +0.000 C 
ATOM     27  C   UNL     1       2.953   2.874  20.842  0.00  0.00    +0.000 C 
ENDBRANCH  20  23
ENDBRANCH   3  20
TORSDOF 6
ENDMDL
MODEL 5
REMARK VINA RESULT:      -7.5      5.650      8.647
REMARK  Name = 
REMARK  7 active torsions:
REMARK  status: ('A' for Active; 'I' for Inactive)
REMARK    1  A    between atoms: C_1  and  C_2
REMARK    2  A    between atoms: C_2  and  O_3
REMARK    3  A    between atoms: O_3  and  C_4
REMARK    4  A    between atoms: C_7  and  N_8
REMARK    5  A    between atoms: C_9  and  C_11
REMARK    6  A    between atoms: C_13  and  S_14
REMARK    7  A    between atoms: S_14  and  N_17
REMARK                            x       y       z     vdW  Elec       q    Type
REMARK                         _______ _______ _______ _____ _____    ______ ____
ROOT
ATOM      1  C   UNL     1       8.319   8.771  18.323  0.00  0.00    +0.000 A 
ATOM      2  C   UNL     1       7.467   8.332  17.320  0.00  0.00    +0.000 A 
ATOM      3  C   UNL     1       7.294   6.922  17.482  0.00  0.00    +0.000 A 
ATOM      4  C   UNL     1       8.011   6.545  18.597  0.00  0.00    +0.000 A 
ATOM      5  N   UNL     1       8.617   7.661  19.093  0.00  0.00    +0.000 N 
ATOM      6  H   UNL     1       9.207   7.711  19.918  0.00  0.00    +0.000 HD
ENDROOT
BRANCH   1   8
ATOM      7  N   UNL     1       8.777  11.080  17.783  0.00  0.00    +0.000 N 
ATOM      8  C   UNL     1       8.898  10.051  18.698  0.00  0.00    +0.000 C 
ATOM      9  O   UNL     1       9.468  10.134  19.785  0.00  0.00    +0.000 OA
ATOM     10  H   UNL     1       8.284  10.875  16.922  0.00  0.00    +0.000 HD
BRANCH   7  14
ATOM     11  C   UNL     1      10.376  14.992  18.177  0.00  0.00    +0.000 A 
ATOM     12  C   UNL     1       9.124  14.701  18.705  0.00  0.00    +0.000 A 
ATOM     13  C   UNL     1       8.586  13.415  18.593  0.00  0.00    +0.000 A 
ATOM     14  C   UNL     1       9.279  12.398  17.932  0.00  0.00    +0.000 A 
ATOM     15  C   UNL     1      10.532  12.704  17.383  0.00  0.00    +0.000 A 
ATOM     16  C   UNL     1      11.076  13.996  17.500  0.00  0.00    +0.000 A 
BRANCH  11  17
ATOM     17  O   UNL     1      10.785  16.280  18.370  0.00  0.00    +0.000 OA
BRANCH  17  19
ATOM     18  C   UNL     1      10.783  18.446  17.397  0.00  0.00    +0.000 C 
ATOM     19  C   UNL     1      11.203  16.998  17.213  0.00  0.00    +0.000 C 
ENDBRANCH  17  19
ENDBRANCH  11  17
ENDBRANCH   7  14
ENDBRANCH   1   8
BRANCH   3  20
ATOM     20  S   UNL     1       6.324   5.878  16.486  0.00  0.00    +0.000 S 
ATOM     21  O   UNL     1       5.683   6.784  15.560  0.00  0.00    +0.000 OA
ATOM     22  O   UNL     1       7.250   4.856  16.047  0.00  0.00    +0.000 OA
BRANCH  20  23
ATOM     23  N   UNL     1       5.140   5.144  17.436  0.00  0.00    +0.000 NA
ATOM     24  C   UNL     1       4.765   3.740  17.191  0.00  0.00    +0.000 C 
ATOM     25  C   UNL     1       3.260   3.775  16.971  0.00  0.00    +0.000 C 
ATOM     26  C   UNL     1       2.798   4.923  17.848  0.00  0.00    +0.000 C 
ATOM     27  C   UNL     1       3.942   5.930  17.791  0.00  0.00    +0.000 C 
ENDBRANCH  20  23
ENDBRANCH   3  20
TORSDOF 6
ENDMDL
MODEL 6
REMARK VINA RESULT:      -7.4      5.476      8.611
REMARK  Name = 
REMARK  7 active torsions:
REMARK  status: ('A' for Active; 'I' for Inactive)
REMARK    1  A    between atoms: C_1  and  C_2
REMARK    2  A    between atoms: C_2  and  O_3
REMARK    3  A    between atoms: O_3  and  C_4
REMARK    4  A    between atoms: C_7  and  N_8
REMARK    5  A    between atoms: C_9  and  C_11
REMARK    6  A    between atoms: C_13  and  S_14
REMARK    7  A    between atoms: S_14  and  N_17
REMARK                            x       y       z     vdW  Elec       q    Type
REMARK                         _______ _______ _______ _____ _____    ______ ____
ROOT
ATOM      1  C   UNL     1       8.272   8.561  18.332  0.00  0.00    +0.000 A 
ATOM      2  C   UNL     1       7.366   8.140  17.369  0.00  0.00    +0.000 A 
ATOM      3  C   UNL     1       7.150   6.739  17.558  0.00  0.00    +0.000 A 
ATOM      4  C   UNL     1       7.897   6.351  18.649  0.00  0.00    +0.000 A 
ATOM      5  N   UNL     1       8.561   7.451  19.106  0.00  0.00    +0.000 N 
ATOM      6  H   UNL     1       9.184   7.490  19.907  0.00  0.00    +0.000 HD
ENDROOT
BRANCH   1   8
ATOM      7  N   UNL     1       8.937  10.788  17.676  0.00  0.00    +0.000 N 
ATOM      8  C   UNL     1       8.910   9.823  18.666  0.00  0.00    +0.000 C 
ATOM      9  O   UNL     1       9.396   9.949  19.789  0.00  0.00    +0.000 OA
ATOM     10  H   UNL     1       8.501  10.552  16.792  0.00  0.00    +0.000 HD
BRANCH   7  14
ATOM     11  C   UNL     1      10.580  14.689  17.991  0.00  0.00    +0.000 A 
ATOM     12  C   UNL     1      11.410  13.611  17.707  0.00  0.00    +0.000 A 
ATOM     13  C   UNL     1      10.884  12.320  17.590  0.00  0.00    +0.000 A 
ATOM     14  C   UNL     1       9.520  12.076  17.775  0.00  0.00    +0.000 A 
ATOM     15  C   UNL     1       8.693  13.166  18.082  0.00  0.00    +0.000 A 
ATOM     16  C   UNL     1       9.221  14.464  18.196  0.00  0.00    +0.000 A 
BRANCH  11  17
ATOM     17  O   UNL     1      11.222  15.891  18.063  0.00  0.00    +0.000 OA
BRANCH  17  19
ATOM     18  C   UNL     1      10.377  18.012  17.406  0.00  0.00    +0.000 C 
ATOM     19  C   UNL     1      10.456  16.997  18.533  0.00  0.00    +0.000 C 
ENDBRANCH  17  19
ENDBRANCH  11  17
ENDBRANCH   7  14
ENDBRANCH   1   8
BRANCH   3  20
ATOM     20  S   UNL     1       6.106   5.717  16.615  0.00  0.00    +0.000 S 
ATOM     21  O   UNL     1       5.538   6.616  15.636  0.00  0.00    +0.000 OA
ATOM     22  O   UNL     1       6.951   4.605  16.240  0.00  0.00    +0.000 OA
BRANCH  20  23
ATOM     23  N   UNL     1       4.867   5.131  17.597  0.00  0.00    +0.000 NA
ATOM     24  C   UNL     1       4.492   3.707  17.538  0.00  0.00    +0.000 C 
ATOM     25  C   UNL     1       3.002   3.712  17.236  0.00  0.00    +0.000 C 
ATOM     26  C   UNL     1       2.504   4.975  17.911  0.00  0.00    +0.000 C 
ATOM     27  C   UNL     1       3.658   5.961  17.770  0.00  0.00    +0.000 C 
ENDBRANCH  20  23
ENDBRANCH   3  20
TORSDOF 6
ENDMDL
MODEL 7
REMARK VINA RESULT:      -7.4      1.077      1.315
REMARK  Name = 
REMARK  7 active torsions:
REMARK  status: ('A' for Active; 'I' for Inactive)
REMARK    1  A    between atoms: C_1  and  C_2
REMARK    2  A    between atoms: C_2  and  O_3
REMARK    3  A    between atoms: O_3  and  C_4
REMARK    4  A    between atoms: C_7  and  N_8
REMARK    5  A    between atoms: C_9  and  C_11
REMARK    6  A    between atoms: C_13  and  S_14
REMARK    7  A    between atoms: S_14  and  N_17
REMARK                            x       y       z     vdW  Elec       q    Type
REMARK                         _______ _______ _______ _____ _____    ______ ____
ROOT
ATOM      1  C   UNL     1       2.808   7.185  18.207  0.00  0.00    +0.000 A 
ATOM      2  C   UNL     1       3.895   7.223  17.346  0.00  0.00    +0.000 A 
ATOM      3  C   UNL     1       4.333   5.878  17.138  0.00  0.00    +0.000 A 
ATOM      4  C   UNL     1       3.483   5.055  17.845  0.00  0.00    +0.000 A 
ATOM      5  N   UNL     1       2.573   5.848  18.477  0.00  0.00    +0.000 N 
ATOM      6  H   UNL     1       1.807   5.536  19.067  0.00  0.00    +0.000 HD
ENDROOT
BRANCH   1   8
ATOM      7  N   UNL     1       1.834   8.150  20.195  0.00  0.00    +0.000 N 
ATOM      8  C   UNL     1       1.940   8.178  18.817  0.00  0.00    +0.000 C 
ATOM      9  O   UNL     1       1.346   8.963  18.078  0.00  0.00    +0.000 OA
ATOM     10  H   UNL     1       2.376   7.447  20.684  0.00  0.00    +0.000 HD
BRANCH   7  14
ATOM     11  C   UNL     1      -0.519  10.806  22.525  0.00  0.00    +0.000 A 
ATOM     12  C   UNL     1      -0.510   9.449  22.823  0.00  0.00    +0.000 A 
ATOM     13  C   UNL     1       0.267   8.561  22.072  0.00  0.00    +0.000 A 
ATOM     14  C   UNL     1       1.035   9.008  20.993  0.00  0.00    +0.000 A 
ATOM     15  C   UNL     1       1.004  10.375  20.685  0.00  0.00    +0.000 A 
ATOM     16  C   UNL     1       0.227  11.269  21.443  0.00  0.00    +0.000 A 
BRANCH  11  17
ATOM     17  O   UNL     1      -1.308  11.559  23.345  0.00  0.00    +0.000 OA
BRANCH  17  19
ATOM     18  C   UNL     1      -3.489  12.492  23.230  0.00  0.00    +0.000 C 
ATOM     19  C   UNL     1      -2.059  12.601  22.729  0.00  0.00    +0.000 C 
ENDBRANCH  17  19
ENDBRANCH  11  17
ENDBRANCH   7  14
ENDBRANCH   1   8
BRANCH   3  20
ATOM     20  S   UNL     1       5.665   5.366  16.145  0.00  0.00    +0.000 S 
ATOM     21  O   UNL     1       5.513   3.930  16.080  0.00  0.00    +0.000 OA
ATOM     22  O   UNL     1       5.567   6.204  14.970  0.00  0.00    +0.000 OA
BRANCH  20  23
ATOM     23  N   UNL     1       7.115   5.723  16.929  0.00  0.00    +0.000 NA
ATOM     24  C   UNL     1       7.606   4.843  18.004  0.00  0.00    +0.000 C 
ATOM     25  C   UNL     1       7.800   5.765  19.199  0.00  0.00    +0.000 C 
ATOM     26  C   UNL     1       8.185   7.090  18.569  0.00  0.00    +0.000 C 
ATOM     27  C   UNL     1       7.400   7.132  17.263  0.00  0.00    +0.000 C 
ENDBRANCH  20  23
ENDBRANCH   3  20
TORSDOF 6
ENDMDL
MODEL 8
REMARK VINA RESULT:      -7.3      5.339      8.532
REMARK  Name = 
REMARK  7 active torsions:
REMARK  status: ('A' for Active; 'I' for Inactive)
REMARK    1  A    between atoms: C_1  and  C_2
REMARK    2  A    between atoms: C_2  and  O_3
REMARK    3  A    between atoms: O_3  and  C_4
REMARK    4  A    between atoms: C_7  and  N_8
REMARK    5  A    between atoms: C_9  and  C_11
REMARK    6  A    between atoms: C_13  and  S_14
REMARK    7  A    between atoms: S_14  and  N_17
REMARK                            x       y       z     vdW  Elec       q    Type
REMARK                         _______ _______ _______ _____ _____    ______ ____
ROOT
ATOM      1  C   UNL     1       8.263   8.497  18.281  0.00  0.00    +0.000 A 
ATOM      2  C   UNL     1       7.450   8.039  17.255  0.00  0.00    +0.000 A 
ATOM      3  C   UNL     1       7.230   6.642  17.465  0.00  0.00    +0.000 A 
ATOM      4  C   UNL     1       7.881   6.293  18.629  0.00  0.00    +0.000 A 
ATOM      5  N   UNL     1       8.492   7.413  19.110  0.00  0.00    +0.000 N 
ATOM      6  H   UNL     1       9.041   7.482  19.961  0.00  0.00    +0.000 HD
ENDROOT
BRANCH   1   8
ATOM      7  N   UNL     1       8.794  10.775  17.679  0.00  0.00    +0.000 N 
ATOM      8  C   UNL     1       8.858   9.776  18.633  0.00  0.00    +0.000 C 
ATOM      9  O   UNL     1       9.391   9.885  19.736  0.00  0.00    +0.000 OA
ATOM     10  H   UNL     1       8.327  10.551  16.808  0.00  0.00    +0.000 HD
BRANCH   7  14
ATOM     11  C   UNL     1      10.475  14.658  18.019  0.00  0.00    +0.000 A 
ATOM     12  C   UNL     1       9.122  14.466  18.272  0.00  0.00    +0.000 A 
ATOM     13  C   UNL     1       8.554  13.192  18.173  0.00  0.00    +0.000 A 
ATOM     14  C   UNL     1       9.321  12.085  17.801  0.00  0.00    +0.000 A 
ATOM     15  C   UNL     1      10.681  12.290  17.528  0.00  0.00    +0.000 A 
ATOM     16  C   UNL     1      11.254  13.570  17.630  0.00  0.00    +0.000 A 
BRANCH  11  17
ATOM     17  O   UNL     1      10.900  15.946  18.165  0.00  0.00    +0.000 OA
BRANCH  17  19
ATOM     18  C   UNL     1      11.770  16.079  20.372  0.00  0.00    +0.000 C 
ATOM     19  C   UNL     1      12.109  16.142  18.893  0.00  0.00    +0.000 C 
ENDBRANCH  17  19
ENDBRANCH  11  17
ENDBRANCH   7  14
ENDBRANCH   1   8
BRANCH   3  20
ATOM     20  S   UNL     1       6.282   5.581  16.464  0.00  0.00    +0.000 S 
ATOM     21  O   UNL     1       5.918   6.409  15.336  0.00  0.00    +0.000 OA
ATOM     22  O   UNL     1       7.111   4.404  16.320  0.00  0.00    +0.000 OA
BRANCH  20  23
ATOM     23  N   UNL     1       4.879   5.142  17.291  0.00  0.00    +0.000 NA
ATOM     24  C   UNL     1       4.159   6.141  18.100  0.00  0.00    +0.000 C 
ATOM     25  C   UNL     1       4.066   5.522  19.485  0.00  0.00    +0.000 C 
ATOM     26  C   UNL     1       3.985   4.033  19.207  0.00  0.00    +0.000 C 
ATOM     27  C   UNL     1       4.847   3.830  17.967  0.00  0.00    +0.000 C 
ENDBRANCH  20  23
ENDBRANCH   3  20
TORSDOF 6
ENDMDL
MODEL 9
REMARK VINA RESULT:      -7.2      1.886      2.055
REMARK  Name = 
REMARK  7 active torsions:
REMARK  status: ('A' for Active; 'I' for Inactive)
REMARK    1  A    between atoms: C_1  and  C_2
REMARK    2  A    between atoms: C_2  and  O_3
REMARK    3  A    between atoms: O_3  and  C_4
REMARK    4  A    between atoms: C_7  and  N_8
REMARK    5  A    between atoms: C_9  and  C_11
REMARK    6  A    between atoms: C_13  and  S_14
REMARK    7  A    between atoms: S_14  and  N_17
REMARK                            x       y       z     vdW  Elec       q    Type
REMARK                         _______ _______ _______ _____ _____    ______ ____
ROOT
ATOM      1  C   UNL     1       2.845   7.140  18.230  0.00  0.00    +0.000 A 
ATOM      2  C   UNL     1       3.957   7.224  17.403  0.00  0.00    +0.000 A 
ATOM      3  C   UNL     1       4.378   5.891  17.104  0.00  0.00    +0.000 A 
ATOM      4  C   UNL     1       3.495   5.031  17.721  0.00  0.00    +0.000 A 
ATOM      5  N   UNL     1       2.581   5.791  18.389  0.00  0.00    +0.000 N 
ATOM      6  H   UNL     1       1.794   5.449  18.932  0.00  0.00    +0.000 HD
ENDROOT
BRANCH   1   8
ATOM      7  N   UNL     1       1.449   9.107  18.105  0.00  0.00    +0.000 N 
ATOM      8  C   UNL     1       1.977   8.099  18.892  0.00  0.00    +0.000 C 
ATOM      9  O   UNL     1       1.782   7.969  20.099  0.00  0.00    +0.000 OA
ATOM     10  H   UNL     1       1.694   9.099  17.122  0.00  0.00    +0.000 HD
BRANCH   7  14
ATOM     11  C   UNL     1      -1.010  12.289  19.464  0.00  0.00    +0.000 A 
ATOM     12  C   UNL     1      -1.573  11.235  18.755  0.00  0.00    +0.000 A 
ATOM     13  C   UNL     1      -0.779  10.174  18.308  0.00  0.00    +0.000 A 
ATOM     14  C   UNL     1       0.599  10.153  18.542  0.00  0.00    +0.000 A 
ATOM     15  C   UNL     1       1.163  11.230  19.240  0.00  0.00    +0.000 A 
ATOM     16  C   UNL     1       0.365  12.295  19.694  0.00  0.00    +0.000 A 
BRANCH  11  17
ATOM     17  O   UNL     1      -1.899  13.248  19.851  0.00  0.00    +0.000 OA
BRANCH  17  19
ATOM     18  C   UNL     1      -2.535  12.647  22.059  0.00  0.00    +0.000 C 
ATOM     19  C   UNL     1      -1.823  13.682  21.206  0.00  0.00    +0.000 C 
ENDBRANCH  17  19
ENDBRANCH  11  17
ENDBRANCH   7  14
ENDBRANCH   1   8
BRANCH   3  20
ATOM     20  S   UNL     1       5.728   5.431  16.109  0.00  0.00    +0.000 S 
ATOM     21  O   UNL     1       5.587   3.999  15.979  0.00  0.00    +0.000 OA
ATOM     22  O   UNL     1       5.641   6.320  14.971  0.00  0.00    +0.000 OA
BRANCH  20  23
ATOM     23  N   UNL     1       7.163   5.764  16.930  0.00  0.00    +0.000 NA
ATOM     24  C   UNL     1       7.634   4.853  17.988  0.00  0.00    +0.000 C 
ATOM     25  C   UNL     1       7.806   5.739  19.212  0.00  0.00    +0.000 C 
ATOM     26  C   UNL     1       8.205   7.081  18.629  0.00  0.00    +0.000 C 
ATOM     27  C   UNL     1       7.444   7.162  17.310  0.00  0.00    +0.000 C 
ENDBRANCH  20  23
ENDBRANCH   3  20
TORSDOF 6
ENDMDL
