MODEL 1
REMARK VINA RESULT:      -9.4      0.000      0.000
REMARK  Name = 
REMARK  5 active torsions:
REMARK  status: ('A' for Active; 'I' for Inactive)
REMARK    1  A    between atoms: C_4  and  C_5
REMARK    2  A    between atoms: C_8  and  C_9
REMARK    3  A    between atoms: C_13  and  O_14
REMARK    4  A    between atoms: O_14  and  C_15
REMARK    5  A    between atoms: C_15  and  C_16
REMARK                            x       y       z     vdW  Elec       q    Type
REMARK                         _______ _______ _______ _____ _____    ______ ____
ROOT
ATOM      1  C   UNL     1       4.617   4.707  18.083  0.00  0.00    +0.000 A 
ATOM      2  C   UNL     1       3.762   3.855  17.374  0.00  0.00    +0.000 A 
ATOM      3  C   UNL     1       2.386   3.883  17.585  0.00  0.00    +0.000 A 
ATOM      4  C   UNL     1       1.834   4.768  18.511  0.00  0.00    +0.000 A 
ATOM      5  C   UNL     1       2.644   5.639  19.232  0.00  0.00    +0.000 A 
ATOM      6  C   UNL     1       4.042   5.608  19.009  0.00  0.00    +0.000 A 
ENDROOT
BRANCH   1  10
ATOM      7  C   UNL     1       6.809   5.057  15.789  0.00  0.00    +0.000 C 
ATOM      8  N   UNL     1       7.074   6.209  16.324  0.00  0.00    +0.000 NA
ATOM      9  C   UNL     1       6.839   5.981  17.763  0.00  0.00    +0.000 C 
ATOM     10  C   UNL     1       6.126   4.632  17.859  0.00  0.00    +0.000 C 
ATOM     11  O   UNL     1       6.395   4.037  16.583  0.00  0.00    +0.000 OA
BRANCH   7  15
ATOM     12  C   UNL     1       7.014   4.000  11.648  0.00  0.00    +0.000 A 
ATOM     13  C   UNL     1       6.101   3.370  12.491  0.00  0.00    +0.000 A 
ATOM     14  C   UNL     1       6.015   3.748  13.836  0.00  0.00    +0.000 A 
ATOM     15  C   UNL     1       6.847   4.756  14.343  0.00  0.00    +0.000 A 
ATOM     16  C   UNL     1       7.750   5.396  13.485  0.00  0.00    +0.000 A 
ATOM     17  C   UNL     1       7.832   5.017  12.142  0.00  0.00    +0.000 A 
ENDBRANCH   7  15
ENDBRANCH   1  10
BRANCH   5  18
ATOM     18  O   UNL     1       2.188   6.564  20.148  0.00  0.00    +0.000 OA
BRANCH  18  19
ATOM     19  C   UNL     1       2.005   7.915  19.667  0.00  0.00    +0.000 C 
BRANCH  19  20
ATOM     20  C   UNL     1       1.054   8.761  20.509  0.00  0.00    +0.000 A 
ATOM     21  C   UNL     1       0.390   8.214  21.597  0.00  0.00    +0.000 A 
ATOM     22  C   UNL     1      -0.416   9.035  22.379  0.00  0.00    +0.000 A 
ATOM     23  C   UNL     1      -0.463  10.410  22.134  0.00  0.00    +0.000 A 
ATOM     24  C   UNL     1      -1.180  11.272  22.985  0.00  0.00    +0.000 A 
ATOM     25  C   UNL     1      -1.097  12.650  22.824  0.00  0.00    +0.000 A 
ATOM     26  C   UNL     1      -0.339  13.168  21.781  0.00  0.00    +0.000 A 
ATOM     27  C   UNL     1       0.317  12.301  20.895  0.00  0.00    +0.000 A 
ATOM     28  C   UNL     1       0.287  10.915  21.055  0.00  0.00    +0.000 A 
ATOM     29  N   UNL     1       1.000  10.100  20.238  0.00  0.00    +0.000 NA
ENDBRANCH  19  20
ENDBRANCH  18  19
ENDBRANCH   5  18
TORSDOF 5
ENDMDL
MODEL 2
REMARK VINA RESULT:      -9.2      0.926      1.410
REMARK  Name = 
REMARK  5 active torsions:
REMARK  status: ('A' for Active; 'I' for Inactive)
REMARK    1  A    between atoms: C_4  and  C_5
REMARK    2  A    between atoms: C_8  and  C_9
REMARK    3  A    between atoms: C_13  and  O_14
REMARK    4  A    between atoms: O_14  and  C_15
REMARK    5  A    between atoms: C_15  and  C_16
REMARK                            x       y       z     vdW  Elec       q    Type
REMARK                         _______ _______ _______ _____ _____    ______ ____
ROOT
ATOM      1  C   UNL     1       5.062   4.795  18.451  0.00  0.00    +0.000 A 
ATOM      2  C   UNL     1       4.364   3.593  18.623  0.00  0.00    +0.000 A 
ATOM      3  C   UNL     1       3.024   3.589  18.999  0.00  0.00    +0.000 A 
ATOM      4  C   UNL     1       2.350   4.791  19.211  0.00  0.00    +0.000 A 
ATOM      5  C   UNL     1       2.999   6.010  19.043  0.00  0.00    +0.000 A 
ATOM      6  C   UNL     1       4.361   6.006  18.657  0.00  0.00    +0.000 A 
ENDROOT
BRANCH   1  10
ATOM      7  C   UNL     1       6.987   5.152  15.930  0.00  0.00    +0.000 C 
ATOM      8  N   UNL     1       7.257   6.330  16.400  0.00  0.00    +0.000 NA
ATOM      9  C   UNL     1       7.183   6.142  17.862  0.00  0.00    +0.000 C 
ATOM     10  C   UNL     1       6.541   4.771  18.073  0.00  0.00    +0.000 C 
ATOM     11  O   UNL     1       6.701   4.143  16.793  0.00  0.00    +0.000 OA
BRANCH   7  15
ATOM     12  C   UNL     1       6.785   3.952  11.828  0.00  0.00    +0.000 A 
ATOM     13  C   UNL     1       5.904   3.412  12.764  0.00  0.00    +0.000 A 
ATOM     14  C   UNL     1       5.953   3.837  14.096  0.00  0.00    +0.000 A 
ATOM     15  C   UNL     1       6.887   4.802  14.498  0.00  0.00    +0.000 A 
ATOM     16  C   UNL     1       7.757   5.353  13.548  0.00  0.00    +0.000 A 
ATOM     17  C   UNL     1       7.705   4.926  12.218  0.00  0.00    +0.000 A 
ENDBRANCH   7  15
ENDBRANCH   1  10
BRANCH   5  18
ATOM     18  O   UNL     1       2.410   7.247  19.206  0.00  0.00    +0.000 OA
BRANCH  18  19
ATOM     19  C   UNL     1       1.850   7.530  20.508  0.00  0.00    +0.000 C 
BRANCH  19  20
ATOM     20  C   UNL     1       1.079   8.844  20.591  0.00  0.00    +0.000 A 
ATOM     21  C   UNL     1       0.815   9.587  19.449  0.00  0.00    +0.000 A 
ATOM     22  C   UNL     1       0.052  10.745  19.559  0.00  0.00    +0.000 A 
ATOM     23  C   UNL     1      -0.531  11.087  20.781  0.00  0.00    +0.000 A 
ATOM     24  C   UNL     1      -1.400  12.190  20.883  0.00  0.00    +0.000 A 
ATOM     25  C   UNL     1      -2.094  12.433  22.063  0.00  0.00    +0.000 A 
ATOM     26  C   UNL     1      -1.882  11.606  23.159  0.00  0.00    +0.000 A 
ATOM     27  C   UNL     1      -0.961  10.551  23.071  0.00  0.00    +0.000 A 
ATOM     28  C   UNL     1      -0.281  10.255  21.889  0.00  0.00    +0.000 A 
ATOM     29  N   UNL     1       0.538   9.178  21.801  0.00  0.00    +0.000 NA
ENDBRANCH  19  20
ENDBRANCH  18  19
ENDBRANCH   5  18
TORSDOF 5
ENDMDL
MODEL 3
REMARK VINA RESULT:      -9.2      0.802      1.699
REMARK  Name = 
REMARK  5 active torsions:
REMARK  status: ('A' for Active; 'I' for Inactive)
REMARK    1  A    between atoms: C_4  and  C_5
REMARK    2  A    between atoms: C_8  and  C_9
REMARK    3  A    between atoms: C_13  and  O_14
REMARK    4  A    between atoms: O_14  and  C_15
REMARK    5  A    between atoms: C_15  and  C_16
REMARK                            x       y       z     vdW  Elec       q    Type
REMARK                         _______ _______ _______ _____ _____    ______ ____
ROOT
ATOM      1  C   UNL     1       4.897   4.760  18.255  0.00  0.00    +0.000 A 
ATOM      2  C   UNL     1       4.101   3.657  17.922  0.00  0.00    +0.000 A 
ATOM      3  C   UNL     1       2.734   3.654  18.185  0.00  0.00    +0.000 A 
ATOM      4  C   UNL     1       2.131   4.758  18.786  0.00  0.00    +0.000 A 
ATOM      5  C   UNL     1       2.880   5.879  19.126  0.00  0.00    +0.000 A 
ATOM      6  C   UNL     1       4.269   5.877  18.852  0.00  0.00    +0.000 A 
ENDROOT
BRANCH   1  10
ATOM      7  C   UNL     1       7.008   5.073  15.881  0.00  0.00    +0.000 C 
ATOM      8  N   UNL     1       7.248   6.257  16.354  0.00  0.00    +0.000 NA
ATOM      9  C   UNL     1       7.064   6.090  17.808  0.00  0.00    +0.000 C 
ATOM     10  C   UNL     1       6.400   4.724  17.989  0.00  0.00    +0.000 C 
ATOM     11  O   UNL     1       6.653   4.078  16.734  0.00  0.00    +0.000 OA
BRANCH   7  15
ATOM     12  C   UNL     1       6.923   4.187  11.696  0.00  0.00    +0.000 A 
ATOM     13  C   UNL     1       7.782   5.166  12.191  0.00  0.00    +0.000 A 
ATOM     14  C   UNL     1       7.830   5.424  13.565  0.00  0.00    +0.000 A 
ATOM     15  C   UNL     1       7.014   4.704  14.450  0.00  0.00    +0.000 A 
ATOM     16  C   UNL     1       6.167   3.709  13.947  0.00  0.00    +0.000 A 
ATOM     17  C   UNL     1       6.122   3.454  12.573  0.00  0.00    +0.000 A 
ENDBRANCH   7  15
ENDBRANCH   1  10
BRANCH   5  18
ATOM     18  O   UNL     1       2.368   7.025  19.701  0.00  0.00    +0.000 OA
BRANCH  18  19
ATOM     19  C   UNL     1       1.971   8.079  18.795  0.00  0.00    +0.000 C 
BRANCH  19  20
ATOM     20  C   UNL     1       1.300   9.272  19.472  0.00  0.00    +0.000 A 
ATOM     21  C   UNL     1       1.002  10.422  18.754  0.00  0.00    +0.000 A 
ATOM     22  C   UNL     1       0.331  11.460  19.391  0.00  0.00    +0.000 A 
ATOM     23  C   UNL     1      -0.132  11.298  20.699  0.00  0.00    +0.000 A 
ATOM     24  C   UNL     1      -0.913  12.292  21.318  0.00  0.00    +0.000 A 
ATOM     25  C   UNL     1      -1.497  12.059  22.558  0.00  0.00    +0.000 A 
ATOM     26  C   UNL     1      -1.258  10.853  23.206  0.00  0.00    +0.000 A 
ATOM     27  C   UNL     1      -0.422   9.895  22.614  0.00  0.00    +0.000 A 
ATOM     28  C   UNL     1       0.144  10.081  21.352  0.00  0.00    +0.000 A 
ATOM     29  N   UNL     1       0.878   9.105  20.761  0.00  0.00    +0.000 NA
ENDBRANCH  19  20
ENDBRANCH  18  19
ENDBRANCH   5  18
TORSDOF 5
ENDMDL
MODEL 4
REMARK VINA RESULT:      -9.2      2.401      2.714
REMARK  Name = 
REMARK  5 active torsions:
REMARK  status: ('A' for Active; 'I' for Inactive)
REMARK    1  A    between atoms: C_4  and  C_5
REMARK    2  A    between atoms: C_8  and  C_9
REMARK    3  A    between atoms: C_13  and  O_14
REMARK    4  A    between atoms: O_14  and  C_15
REMARK    5  A    between atoms: C_15  and  C_16
REMARK                            x       y       z     vdW  Elec       q    Type
REMARK                         _______ _______ _______ _____ _____    ______ ____
ROOT
ATOM      1  C   UNL     1       4.499   5.078  17.942  0.00  0.00    +0.000 A 
ATOM      2  C   UNL     1       3.524   4.113  17.663  0.00  0.00    +0.000 A 
ATOM      3  C   UNL     1       2.172   4.386  17.851  0.00  0.00    +0.000 A 
ATOM      4  C   UNL     1       1.765   5.634  18.321  0.00  0.00    +0.000 A 
ATOM      5  C   UNL     1       2.698   6.626  18.602  0.00  0.00    +0.000 A 
ATOM      6  C   UNL     1       4.071   6.343  18.405  0.00  0.00    +0.000 A 
ENDROOT
BRANCH   1  10
ATOM      7  C   UNL     1       6.783   5.034  15.711  0.00  0.00    +0.000 C 
ATOM      8  N   UNL     1       7.227   6.125  16.254  0.00  0.00    +0.000 NA
ATOM      9  C   UNL     1       6.917   5.946  17.686  0.00  0.00    +0.000 C 
ATOM     10  C   UNL     1       5.978   4.742  17.761  0.00  0.00    +0.000 C 
ATOM     11  O   UNL     1       6.176   4.104  16.492  0.00  0.00    +0.000 OA
BRANCH   7  15
ATOM     12  C   UNL     1       6.947   3.949  11.576  0.00  0.00    +0.000 A 
ATOM     13  C   UNL     1       6.015   3.354  12.423  0.00  0.00    +0.000 A 
ATOM     14  C   UNL     1       5.943   3.741  13.765  0.00  0.00    +0.000 A 
ATOM     15  C   UNL     1       6.809   4.724  14.266  0.00  0.00    +0.000 A 
ATOM     16  C   UNL     1       7.731   5.330  13.405  0.00  0.00    +0.000 A 
ATOM     17  C   UNL     1       7.798   4.941  12.063  0.00  0.00    +0.000 A 
ENDBRANCH   7  15
ENDBRANCH   1  10
BRANCH   5  18
ATOM     18  O   UNL     1       2.389   7.896  19.047  0.00  0.00    +0.000 OA
BRANCH  18  19
ATOM     19  C   UNL     1       2.006   8.858  18.039  0.00  0.00    +0.000 C 
BRANCH  19  20
ATOM     20  C   UNL     1       0.677   9.559  18.309  0.00  0.00    +0.000 A 
ATOM     21  C   UNL     1       0.570  10.520  19.304  0.00  0.00    +0.000 A 
ATOM     22  C   UNL     1      -0.641  11.182  19.474  0.00  0.00    +0.000 A 
ATOM     23  C   UNL     1      -1.693  10.962  18.582  0.00  0.00    +0.000 A 
ATOM     24  C   UNL     1      -2.883  11.708  18.668  0.00  0.00    +0.000 A 
ATOM     25  C   UNL     1      -3.862  11.591  17.688  0.00  0.00    +0.000 A 
ATOM     26  C   UNL     1      -3.675  10.689  16.647  0.00  0.00    +0.000 A 
ATOM     27  C   UNL     1      -2.518   9.898  16.606  0.00  0.00    +0.000 A 
ATOM     28  C   UNL     1      -1.499  10.023  17.551  0.00  0.00    +0.000 A 
ATOM     29  N   UNL     1      -0.350   9.310  17.442  0.00  0.00    +0.000 NA
ENDBRANCH  19  20
ENDBRANCH  18  19
ENDBRANCH   5  18
TORSDOF 5
ENDMDL
MODEL 5
REMARK VINA RESULT:      -9.2      5.423      8.502
REMARK  Name = 
REMARK  5 active torsions:
REMARK  status: ('A' for Active; 'I' for Inactive)
REMARK    1  A    between atoms: C_4  and  C_5
REMARK    2  A    between atoms: C_8  and  C_9
REMARK    3  A    between atoms: C_13  and  O_14
REMARK    4  A    between atoms: O_14  and  C_15
REMARK    5  A    between atoms: C_15  and  C_16
REMARK                            x       y       z     vdW  Elec       q    Type
REMARK                         _______ _______ _______ _____ _____    ______ ____
ROOT
ATOM      1  C   UNL     1       5.713   6.718  17.595  0.00  0.00    +0.000 A 
ATOM      2  C   UNL     1       6.247   5.694  18.387  0.00  0.00    +0.000 A 
ATOM      3  C   UNL     1       7.523   5.802  18.934  0.00  0.00    +0.000 A 
ATOM      4  C   UNL     1       8.294   6.940  18.700  0.00  0.00    +0.000 A 
ATOM      5  C   UNL     1       7.802   7.986  17.927  0.00  0.00    +0.000 A 
ATOM      6  C   UNL     1       6.501   7.872  17.378  0.00  0.00    +0.000 A 
ENDROOT
BRANCH   1  10
ATOM      7  C   UNL     1       2.744   5.824  18.354  0.00  0.00    +0.000 C 
ATOM      8  N   UNL     1       2.451   7.087  18.376  0.00  0.00    +0.000 NA
ATOM      9  C   UNL     1       3.324   7.660  17.333  0.00  0.00    +0.000 C 
ATOM     10  C   UNL     1       4.325   6.560  16.978  0.00  0.00    +0.000 C 
ATOM     11  O   UNL     1       3.698   5.379  17.497  0.00  0.00    +0.000 OA
BRANCH   7  15
ATOM     12  C   UNL     1       1.282   2.759  20.957  0.00  0.00    +0.000 A 
ATOM     13  C   UNL     1       2.085   3.782  21.456  0.00  0.00    +0.000 A 
ATOM     14  C   UNL     1       2.529   4.800  20.605  0.00  0.00    +0.000 A 
ATOM     15  C   UNL     1       2.172   4.796  19.249  0.00  0.00    +0.000 A 
ATOM     16  C   UNL     1       1.350   3.774  18.759  0.00  0.00    +0.000 A 
ATOM     17  C   UNL     1       0.908   2.758  19.612  0.00  0.00    +0.000 A 
ENDBRANCH   7  15
ENDBRANCH   1  10
BRANCH   5  18
ATOM     18  O   UNL     1       8.480   9.159  17.662  0.00  0.00    +0.000 OA
BRANCH  18  19
ATOM     19  C   UNL     1       8.951   9.905  18.807  0.00  0.00    +0.000 C 
BRANCH  19  20
ATOM     20  C   UNL     1       9.587  11.250  18.465  0.00  0.00    +0.000 A 
ATOM     21  C   UNL     1      10.815  11.313  17.822  0.00  0.00    +0.000 A 
ATOM     22  C   UNL     1      11.329  12.556  17.468  0.00  0.00    +0.000 A 
ATOM     23  C   UNL     1      10.565  13.710  17.658  0.00  0.00    +0.000 A 
ATOM     24  C   UNL     1      11.019  14.961  17.200  0.00  0.00    +0.000 A 
ATOM     25  C   UNL     1      10.190  16.076  17.255  0.00  0.00    +0.000 A 
ATOM     26  C   UNL     1       8.924  15.954  17.815  0.00  0.00    +0.000 A 
ATOM     27  C   UNL     1       8.505  14.719  18.333  0.00  0.00    +0.000 A 
ATOM     28  C   UNL     1       9.297  13.573  18.254  0.00  0.00    +0.000 A 
ATOM     29  N   UNL     1       8.836  12.371  18.683  0.00  0.00    +0.000 NA
ENDBRANCH  19  20
ENDBRANCH  18  19
ENDBRANCH   5  18
TORSDOF 5
ENDMDL
MODEL 6
REMARK VINA RESULT:      -9.1      1.090      1.469
REMARK  Name = 
REMARK  5 active torsions:
REMARK  status: ('A' for Active; 'I' for Inactive)
REMARK    1  A    between atoms: C_4  and  C_5
REMARK    2  A    between atoms: C_8  and  C_9
REMARK    3  A    between atoms: C_13  and  O_14
REMARK    4  A    between atoms: O_14  and  C_15
REMARK    5  A    between atoms: C_15  and  C_16
REMARK                            x       y       z     vdW  Elec       q    Type
REMARK                         _______ _______ _______ _____ _____    ______ ____
ROOT
ATOM      1  C   UNL     1       4.563   5.324  17.820  0.00  0.00    +0.000 A 
ATOM      2  C   UNL     1       3.490   4.425  17.807  0.00  0.00    +0.000 A 
ATOM      3  C   UNL     1       2.179   4.872  17.954  0.00  0.00    +0.000 A 
ATOM      4  C   UNL     1       1.913   6.232  18.114  0.00  0.00    +0.000 A 
ATOM      5  C   UNL     1       2.947   7.162  18.123  0.00  0.00    +0.000 A 
ATOM      6  C   UNL     1       4.278   6.700  17.970  0.00  0.00    +0.000 A 
ENDROOT
BRANCH   1  10
ATOM      7  C   UNL     1       6.876   4.918  15.658  0.00  0.00    +0.000 C 
ATOM      8  N   UNL     1       7.438   5.967  16.174  0.00  0.00    +0.000 NA
ATOM      9  C   UNL     1       7.074   5.883  17.602  0.00  0.00    +0.000 C 
ATOM     10  C   UNL     1       5.994   4.805  17.693  0.00  0.00    +0.000 C 
ATOM     11  O   UNL     1       6.142   4.099  16.453  0.00  0.00    +0.000 OA
BRANCH   7  15
ATOM     12  C   UNL     1       6.842   4.042  11.469  0.00  0.00    +0.000 A 
ATOM     13  C   UNL     1       7.716   4.999  11.981  0.00  0.00    +0.000 A 
ATOM     14  C   UNL     1       7.746   5.254  13.357  0.00  0.00    +0.000 A 
ATOM     15  C   UNL     1       6.898   4.552  14.226  0.00  0.00    +0.000 A 
ATOM     16  C   UNL     1       6.036   3.579  13.706  0.00  0.00    +0.000 A 
ATOM     17  C   UNL     1       6.009   3.327  12.330  0.00  0.00    +0.000 A 
ENDBRANCH   7  15
ENDBRANCH   1  10
BRANCH   5  18
ATOM     18  O   UNL     1       2.781   8.526  18.251  0.00  0.00    +0.000 OA
BRANCH  18  19
ATOM     19  C   UNL     1       1.433   9.027  18.111  0.00  0.00    +0.000 C 
BRANCH  19  20
ATOM     20  C   UNL     1       0.749   9.374  19.431  0.00  0.00    +0.000 A 
ATOM     21  C   UNL     1       1.148   8.775  20.618  0.00  0.00    +0.000 A 
ATOM     22  C   UNL     1       0.544   9.168  21.808  0.00  0.00    +0.000 A 
ATOM     23  C   UNL     1      -0.365  10.228  21.817  0.00  0.00    +0.000 A 
ATOM     24  C   UNL     1      -0.896  10.714  23.026  0.00  0.00    +0.000 A 
ATOM     25  C   UNL     1      -1.679  11.863  23.040  0.00  0.00    +0.000 A 
ATOM     26  C   UNL     1      -1.976  12.498  21.840  0.00  0.00    +0.000 A 
ATOM     27  C   UNL     1      -1.501  11.967  20.632  0.00  0.00    +0.000 A 
ATOM     28  C   UNL     1      -0.678  10.840  20.588  0.00  0.00    +0.000 A 
ATOM     29  N   UNL     1      -0.160  10.396  19.417  0.00  0.00    +0.000 NA
ENDBRANCH  19  20
ENDBRANCH  18  19
ENDBRANCH   5  18
TORSDOF 5
ENDMDL
MODEL 7
REMARK VINA RESULT:      -9.0      1.138      1.778
REMARK  Name = 
REMARK  5 active torsions:
REMARK  status: ('A' for Active; 'I' for Inactive)
REMARK    1  A    between atoms: C_4  and  C_5
REMARK    2  A    between atoms: C_8  and  C_9
REMARK    3  A    between atoms: C_13  and  O_14
REMARK    4  A    between atoms: O_14  and  C_15
REMARK    5  A    between atoms: C_15  and  C_16
REMARK                            x       y       z     vdW  Elec       q    Type
REMARK                         _______ _______ _______ _____ _____    ______ ____
ROOT
ATOM      1  C   UNL     1       4.351   4.454  18.076  0.00  0.00    +0.000 A 
ATOM      2  C   UNL     1       3.665   3.511  17.301  0.00  0.00    +0.000 A 
ATOM      3  C   UNL     1       2.298   3.305  17.465  0.00  0.00    +0.000 A 
ATOM      4  C   UNL     1       1.585   4.041  18.411  0.00  0.00    +0.000 A 
ATOM      5  C   UNL     1       2.222   4.994  19.197  0.00  0.00    +0.000 A 
ATOM      6  C   UNL     1       3.612   5.202  19.022  0.00  0.00    +0.000 A 
ENDROOT
BRANCH   1  10
ATOM      7  C   UNL     1       6.529   5.127  15.842  0.00  0.00    +0.000 C 
ATOM      8  N   UNL     1       6.572   6.319  16.353  0.00  0.00    +0.000 NA
ATOM      9  C   UNL     1       6.330   6.085  17.790  0.00  0.00    +0.000 C 
ATOM     10  C   UNL     1       5.857   4.636  17.901  0.00  0.00    +0.000 C 
ATOM     11  O   UNL     1       6.269   4.068  16.651  0.00  0.00    +0.000 OA
BRANCH   7  15
ATOM     12  C   UNL     1       7.021   4.008  11.742  0.00  0.00    +0.000 A 
ATOM     13  C   UNL     1       6.029   3.414  12.520  0.00  0.00    +0.000 A 
ATOM     14  C   UNL     1       5.851   3.812  13.849  0.00  0.00    +0.000 A 
ATOM     15  C   UNL     1       6.669   4.805  14.406  0.00  0.00    +0.000 A 
ATOM     16  C   UNL     1       7.652   5.410  13.614  0.00  0.00    +0.000 A 
ATOM     17  C   UNL     1       7.826   5.010  12.285  0.00  0.00    +0.000 A 
ENDBRANCH   7  15
ENDBRANCH   1  10
BRANCH   5  18
ATOM     18  O   UNL     1       1.596   5.786  20.139  0.00  0.00    +0.000 OA
BRANCH  18  19
ATOM     19  C   UNL     1       2.277   7.004  20.514  0.00  0.00    +0.000 C 
BRANCH  19  20
ATOM     20  C   UNL     1       1.648   8.277  19.954  0.00  0.00    +0.000 A 
ATOM     21  C   UNL     1       1.687   8.549  18.593  0.00  0.00    +0.000 A 
ATOM     22  C   UNL     1       1.044   9.686  18.115  0.00  0.00    +0.000 A 
ATOM     23  C   UNL     1       0.280  10.475  18.977  0.00  0.00    +0.000 A 
ATOM     24  C   UNL     1      -0.472  11.561  18.489  0.00  0.00    +0.000 A 
ATOM     25  C   UNL     1      -1.347  12.245  19.325  0.00  0.00    +0.000 A 
ATOM     26  C   UNL     1      -1.435  11.879  20.662  0.00  0.00    +0.000 A 
ATOM     27  C   UNL     1      -0.632  10.841  21.157  0.00  0.00    +0.000 A 
ATOM     28  C   UNL     1       0.225  10.108  20.335  0.00  0.00    +0.000 A 
ATOM     29  N   UNL     1       0.927   9.052  20.818  0.00  0.00    +0.000 NA
ENDBRANCH  19  20
ENDBRANCH  18  19
ENDBRANCH   5  18
TORSDOF 5
ENDMDL
MODEL 8
REMARK VINA RESULT:      -9.0      5.400      8.613
REMARK  Name = 
REMARK  5 active torsions:
REMARK  status: ('A' for Active; 'I' for Inactive)
REMARK    1  A    between atoms: C_4  and  C_5
REMARK    2  A    between atoms: C_8  and  C_9
REMARK    3  A    between atoms: C_13  and  O_14
REMARK    4  A    between atoms: O_14  and  C_15
REMARK    5  A    between atoms: C_15  and  C_16
REMARK                            x       y       z     vdW  Elec       q    Type
REMARK                         _______ _______ _______ _____ _____    ______ ____
ROOT
ATOM      1  C   UNL     1       5.620   6.633  17.644  0.00  0.00    +0.000 A 
ATOM      2  C   UNL     1       6.080   5.553  18.407  0.00  0.00    +0.000 A 
ATOM      3  C   UNL     1       7.370   5.542  18.931  0.00  0.00    +0.000 A 
ATOM      4  C   UNL     1       8.229   6.617  18.705  0.00  0.00    +0.000 A 
ATOM      5  C   UNL     1       7.813   7.716  17.961  0.00  0.00    +0.000 A 
ATOM      6  C   UNL     1       6.499   7.721  17.434  0.00  0.00    +0.000 A 
ENDROOT
BRANCH   1  10
ATOM      7  C   UNL     1       2.631   5.786  18.376  0.00  0.00    +0.000 C 
ATOM      8  N   UNL     1       2.396   7.050  18.546  0.00  0.00    +0.000 NA
ATOM      9  C   UNL     1       3.271   7.698  17.550  0.00  0.00    +0.000 C 
ATOM     10  C   UNL     1       4.214   6.604  17.050  0.00  0.00    +0.000 C 
ATOM     11  O   UNL     1       3.546   5.400  17.450  0.00  0.00    +0.000 OA
BRANCH   7  15
ATOM     12  C   UNL     1       1.096   2.541  20.705  0.00  0.00    +0.000 A 
ATOM     13  C   UNL     1       1.711   3.626  21.328  0.00  0.00    +0.000 A 
ATOM     14  C   UNL     1       2.178   4.699  20.561  0.00  0.00    +0.000 A 
ATOM     15  C   UNL     1       2.033   4.690  19.167  0.00  0.00    +0.000 A 
ATOM     16  C   UNL     1       1.398   3.605  18.550  0.00  0.00    +0.000 A 
ATOM     17  C   UNL     1       0.932   2.534  19.319  0.00  0.00    +0.000 A 
ENDBRANCH   7  15
ENDBRANCH   1  10
BRANCH   5  18
ATOM     18  O   UNL     1       8.582   8.833  17.706  0.00  0.00    +0.000 OA
BRANCH  18  19
ATOM     19  C   UNL     1       8.959   9.632  18.849  0.00  0.00    +0.000 C 
BRANCH  19  20
ATOM     20  C   UNL     1       9.401  11.053  18.508  0.00  0.00    +0.000 A 
ATOM     21  C   UNL     1       8.583  11.893  17.765  0.00  0.00    +0.000 A 
ATOM     22  C   UNL     1       8.993  13.201  17.532  0.00  0.00    +0.000 A 
ATOM     23  C   UNL     1      10.156  13.689  18.133  0.00  0.00    +0.000 A 
ATOM     24  C   UNL     1      10.524  15.042  18.003  0.00  0.00    +0.000 A 
ATOM     25  C   UNL     1      11.595  15.553  18.726  0.00  0.00    +0.000 A 
ATOM     26  C   UNL     1      12.333  14.703  19.540  0.00  0.00    +0.000 A 
ATOM     27  C   UNL     1      12.003  13.341  19.611  0.00  0.00    +0.000 A 
ATOM     28  C   UNL     1      10.909  12.806  18.930  0.00  0.00    +0.000 A 
ATOM     29  N   UNL     1      10.556  11.505  19.082  0.00  0.00    +0.000 NA
ENDBRANCH  19  20
ENDBRANCH  18  19
ENDBRANCH   5  18
TORSDOF 5
ENDMDL
MODEL 9
REMARK VINA RESULT:      -9.0      0.935      1.696
REMARK  Name = 
REMARK  5 active torsions:
REMARK  status: ('A' for Active; 'I' for Inactive)
REMARK    1  A    between atoms: C_4  and  C_5
REMARK    2  A    between atoms: C_8  and  C_9
REMARK    3  A    between atoms: C_13  and  O_14
REMARK    4  A    between atoms: O_14  and  C_15
REMARK    5  A    between atoms: C_15  and  C_16
REMARK                            x       y       z     vdW  Elec       q    Type
REMARK                         _______ _______ _______ _____ _____    ______ ____
ROOT
ATOM      1  C   UNL     1       4.188   4.694  17.989  0.00  0.00    +0.000 A 
ATOM      2  C   UNL     1       3.693   3.580  17.300  0.00  0.00    +0.000 A 
ATOM      3  C   UNL     1       2.383   3.147  17.483  0.00  0.00    +0.000 A 
ATOM      4  C   UNL     1       1.535   3.823  18.360  0.00  0.00    +0.000 A 
ATOM      5  C   UNL     1       1.980   4.940  19.059  0.00  0.00    +0.000 A 
ATOM      6  C   UNL     1       3.313   5.377  18.865  0.00  0.00    +0.000 A 
ENDROOT
BRANCH   1  10
ATOM      7  C   UNL     1       6.305   5.339  15.689  0.00  0.00    +0.000 C 
ATOM      8  N   UNL     1       6.101   6.591  15.957  0.00  0.00    +0.000 NA
ATOM      9  C   UNL     1       5.838   6.592  17.410  0.00  0.00    +0.000 C 
ATOM     10  C   UNL     1       5.639   5.127  17.797  0.00  0.00    +0.000 C 
ATOM     11  O   UNL     1       6.210   4.422  16.686  0.00  0.00    +0.000 OA
BRANCH   7  15
ATOM     12  C   UNL     1       6.997   3.909  11.716  0.00  0.00    +0.000 A 
ATOM     13  C   UNL     1       7.809   4.904  12.257  0.00  0.00    +0.000 A 
ATOM     14  C   UNL     1       7.599   5.340  13.570  0.00  0.00    +0.000 A 
ATOM     15  C   UNL     1       6.572   4.783  14.345  0.00  0.00    +0.000 A 
ATOM     16  C   UNL     1       5.772   3.771  13.801  0.00  0.00    +0.000 A 
ATOM     17  C   UNL     1       5.985   3.337  12.488  0.00  0.00    +0.000 A 
ENDBRANCH   7  15
ENDBRANCH   1  10
BRANCH   5  18
ATOM     18  O   UNL     1       1.209   5.686  19.928  0.00  0.00    +0.000 OA
BRANCH  18  19
ATOM     19  C   UNL     1       1.914   6.615  20.782  0.00  0.00    +0.000 C 
BRANCH  19  20
ATOM     20  C   UNL     1       1.365   8.039  20.753  0.00  0.00    +0.000 A 
ATOM     21  C   UNL     1       1.302   8.753  19.565  0.00  0.00    +0.000 A 
ATOM     22  C   UNL     1       0.734  10.023  19.570  0.00  0.00    +0.000 A 
ATOM     23  C   UNL     1       0.137  10.519  20.731  0.00  0.00    +0.000 A 
ATOM     24  C   UNL     1      -0.544  11.751  20.724  0.00  0.00    +0.000 A 
ATOM     25  C   UNL     1      -1.264  12.165  21.839  0.00  0.00    +0.000 A 
ATOM     26  C   UNL     1      -1.261  11.374  22.981  0.00  0.00    +0.000 A 
ATOM     27  C   UNL     1      -0.523  10.182  23.005  0.00  0.00    +0.000 A 
ATOM     28  C   UNL     1       0.175   9.718  21.888  0.00  0.00    +0.000 A 
ATOM     29  N   UNL     1       0.810   8.520  21.906  0.00  0.00    +0.000 NA
ENDBRANCH  19  20
ENDBRANCH  18  19
ENDBRANCH   5  18
TORSDOF 5
ENDMDL
