MODEL 1
REMARK VINA RESULT:      -7.9      0.000      0.000
REMARK  Name = 
REMARK  7 active torsions:
REMARK  status: ('A' for Active; 'I' for Inactive)
REMARK    1  A    between atoms: O_1  and  C_2
REMARK    2  A    between atoms: C_2  and  C_3
REMARK    3  A    between atoms: C_3  and  N_4
REMARK    4  A    between atoms: C_7  and  C_8
REMARK    5  A    between atoms: C_13  and  O_14
REMARK    6  A    between atoms: O_14  and  C_15
REMARK    7  A    between atoms: C_15  and  C_16
REMARK                            x       y       z     vdW  Elec       q    Type
REMARK                         _______ _______ _______ _____ _____    ______ ____
ROOT
ATOM      1  C   UNL     1       3.196   3.849  18.960  0.00  0.00    +0.000 A 
ATOM      2  C   UNL     1       2.661   2.544  19.062  0.00  0.00    +0.000 A 
ATOM      3  C   UNL     1       1.526   2.262  19.821  0.00  0.00    +0.000 A 
ATOM      4  C   UNL     1       0.868   3.289  20.475  0.00  0.00    +0.000 A 
ATOM      5  C   UNL     1       1.363   4.588  20.386  0.00  0.00    +0.000 A 
ATOM      6  C   UNL     1       2.544   4.881  19.673  0.00  0.00    +0.000 A 
ENDROOT
BRANCH   1  10
ATOM      7  N   UNL     1       6.488   4.412  17.745  0.00  0.00    +0.000 N 
ATOM      8  C   UNL     1       5.929   4.288  16.510  0.00  0.00    +0.000 A 
ATOM      9  C   UNL     1       4.597   4.031  16.732  0.00  0.00    +0.000 A 
ATOM     10  C   UNL     1       4.420   4.020  18.144  0.00  0.00    +0.000 A 
ATOM     11  N   UNL     1       5.617   4.205  18.742  0.00  0.00    +0.000 NA
BRANCH   7  12
ATOM     12  C   UNL     1       7.837   4.841  18.053  0.00  0.00    +0.000 C 
BRANCH  12  13
ATOM     13  C   UNL     1       7.897   5.985  19.055  0.00  0.00    +0.000 C 
BRANCH  13  14
ATOM     14  O   UNL     1       7.903   5.450  20.379  0.00  0.00    +0.000 OA
ATOM     15  H   UNL     1       8.420   6.058  20.936  0.00  0.00    +0.000 HD
ENDBRANCH  13  14
ENDBRANCH  12  13
ENDBRANCH   7  12
ENDBRANCH   1  10
BRANCH   6  16
ATOM     16  O   UNL     1       3.081   6.149  19.661  0.00  0.00    +0.000 OA
BRANCH  16  17
ATOM     17  C   UNL     1       2.722   6.964  18.540  0.00  0.00    +0.000 C 
BRANCH  17  18
ATOM     18  C   UNL     1       1.923   8.157  19.004  0.00  0.00    +0.000 A 
ATOM     19  C   UNL     1       1.550   8.288  20.350  0.00  0.00    +0.000 A 
ATOM     20  C   UNL     1       0.828   9.406  20.773  0.00  0.00    +0.000 A 
ATOM     21  C   UNL     1       0.482  10.386  19.849  0.00  0.00    +0.000 A 
ATOM     22  F   UNL     1      -0.211  11.458  20.258  0.00  0.00    +0.000 F 
ATOM     23  C   UNL     1       0.842  10.274  18.513  0.00  0.00    +0.000 A 
ATOM     24  C   UNL     1       1.563   9.157  18.088  0.00  0.00    +0.000 A 
ENDBRANCH  17  18
ENDBRANCH  16  17
ENDBRANCH   6  16
TORSDOF 7
ENDMDL
MODEL 2
REMARK VINA RESULT:      -7.6      3.117      5.796
REMARK  Name = 
REMARK  7 active torsions:
REMARK  status: ('A' for Active; 'I' for Inactive)
REMARK    1  A    between atoms: O_1  and  C_2
REMARK    2  A    between atoms: C_2  and  C_3
REMARK    3  A    between atoms: C_3  and  N_4
REMARK    4  A    between atoms: C_7  and  C_8
REMARK    5  A    between atoms: C_13  and  O_14
REMARK    6  A    between atoms: O_14  and  C_15
REMARK    7  A    between atoms: C_15  and  C_16
REMARK                            x       y       z     vdW  Elec       q    Type
REMARK                         _______ _______ _______ _____ _____    ______ ____
ROOT
ATOM      1  C   UNL     1       2.457   5.269  19.745  0.00  0.00    +0.000 A 
ATOM      2  C   UNL     1       2.099   4.735  21.004  0.00  0.00    +0.000 A 
ATOM      3  C   UNL     1       2.266   3.387  21.317  0.00  0.00    +0.000 A 
ATOM      4  C   UNL     1       2.835   2.535  20.387  0.00  0.00    +0.000 A 
ATOM      5  C   UNL     1       3.209   3.031  19.140  0.00  0.00    +0.000 A 
ATOM      6  C   UNL     1       2.991   4.378  18.785  0.00  0.00    +0.000 A 
ENDROOT
BRANCH   1  10
ATOM      7  N   UNL     1       1.496   8.684  19.960  0.00  0.00    +0.000 N 
ATOM      8  C   UNL     1       1.979   8.780  18.691  0.00  0.00    +0.000 A 
ATOM      9  C   UNL     1       2.450   7.527  18.380  0.00  0.00    +0.000 A 
ATOM     10  C   UNL     1       2.210   6.712  19.522  0.00  0.00    +0.000 A 
ATOM     11  N   UNL     1       1.668   7.469  20.500  0.00  0.00    +0.000 NA
BRANCH   7  12
ATOM     12  C   UNL     1       0.747   9.688  20.688  0.00  0.00    +0.000 C 
BRANCH  12  13
ATOM     13  C   UNL     1       0.675   9.427  22.184  0.00  0.00    +0.000 C 
BRANCH  13  14
ATOM     14  O   UNL     1       1.999   9.407  22.723  0.00  0.00    +0.000 OA
ATOM     15  H   UNL     1       2.063   8.631  23.307  0.00  0.00    +0.000 HD
ENDBRANCH  13  14
ENDBRANCH  12  13
ENDBRANCH   7  12
ENDBRANCH   1  10
BRANCH   6  16
ATOM     16  O   UNL     1       3.279   4.845  17.522  0.00  0.00    +0.000 OA
BRANCH  16  17
ATOM     17  C   UNL     1       4.524   4.407  16.967  0.00  0.00    +0.000 C 
BRANCH  17  18
ATOM     18  C   UNL     1       5.643   5.296  17.450  0.00  0.00    +0.000 A 
ATOM     19  C   UNL     1       6.514   4.864  18.462  0.00  0.00    +0.000 A 
ATOM     20  C   UNL     1       7.559   5.686  18.887  0.00  0.00    +0.000 A 
ATOM     21  C   UNL     1       7.729   6.935  18.301  0.00  0.00    +0.000 A 
ATOM     22  F   UNL     1       8.733   7.723  18.711  0.00  0.00    +0.000 F 
ATOM     23  C   UNL     1       6.876   7.381  17.299  0.00  0.00    +0.000 A 
ATOM     24  C   UNL     1       5.831   6.561  16.873  0.00  0.00    +0.000 A 
ENDBRANCH  17  18
ENDBRANCH  16  17
ENDBRANCH   6  16
TORSDOF 7
ENDMDL
MODEL 3
REMARK VINA RESULT:      -7.5      2.951      6.324
REMARK  Name = 
REMARK  7 active torsions:
REMARK  status: ('A' for Active; 'I' for Inactive)
REMARK    1  A    between atoms: O_1  and  C_2
REMARK    2  A    between atoms: C_2  and  C_3
REMARK    3  A    between atoms: C_3  and  N_4
REMARK    4  A    between atoms: C_7  and  C_8
REMARK    5  A    between atoms: C_13  and  O_14
REMARK    6  A    between atoms: O_14  and  C_15
REMARK    7  A    between atoms: C_15  and  C_16
REMARK                            x       y       z     vdW  Elec       q    Type
REMARK                         _______ _______ _______ _____ _____    ______ ____
ROOT
ATOM      1  C   UNL     1       4.814   5.909  17.419  0.00  0.00    +0.000 A 
ATOM      2  C   UNL     1       6.071   6.557  17.415  0.00  0.00    +0.000 A 
ATOM      3  C   UNL     1       7.192   6.004  16.797  0.00  0.00    +0.000 A 
ATOM      4  C   UNL     1       7.079   4.797  16.130  0.00  0.00    +0.000 A 
ATOM      5  C   UNL     1       5.853   4.137  16.105  0.00  0.00    +0.000 A 
ATOM      6  C   UNL     1       4.724   4.652  16.776  0.00  0.00    +0.000 A 
ENDROOT
BRANCH   1  10
ATOM      7  N   UNL     1       2.220   8.084  18.500  0.00  0.00    +0.000 N 
ATOM      8  C   UNL     1       2.146   7.267  19.586  0.00  0.00    +0.000 A 
ATOM      9  C   UNL     1       3.086   6.287  19.376  0.00  0.00    +0.000 A 
ATOM     10  C   UNL     1       3.703   6.583  18.128  0.00  0.00    +0.000 A 
ATOM     11  N   UNL     1       3.109   7.668  17.587  0.00  0.00    +0.000 NA
BRANCH   7  12
ATOM     12  C   UNL     1       1.547   9.354  18.314  0.00  0.00    +0.000 C 
BRANCH  12  13
ATOM     13  C   UNL     1       0.686   9.764  19.499  0.00  0.00    +0.000 C 
BRANCH  13  14
ATOM     14  O   UNL     1       1.101  11.052  19.958  0.00  0.00    +0.000 OA
ATOM     15  H   UNL     1       0.328  11.640  19.910  0.00  0.00    +0.000 HD
ENDBRANCH  13  14
ENDBRANCH  12  13
ENDBRANCH   7  12
ENDBRANCH   1  10
BRANCH   6  16
ATOM     16  O   UNL     1       3.538   3.955  16.827  0.00  0.00    +0.000 OA
BRANCH  16  17
ATOM     17  C   UNL     1       3.598   2.673  17.461  0.00  0.00    +0.000 C 
BRANCH  17  18
ATOM     18  C   UNL     1       2.854   2.711  18.773  0.00  0.00    +0.000 A 
ATOM     19  C   UNL     1       1.465   2.910  18.803  0.00  0.00    +0.000 A 
ATOM     20  C   UNL     1       0.785   2.923  20.021  0.00  0.00    +0.000 A 
ATOM     21  C   UNL     1       1.493   2.739  21.204  0.00  0.00    +0.000 A 
ATOM     22  F   UNL     1       0.837   2.753  22.372  0.00  0.00    +0.000 F 
ATOM     23  C   UNL     1       2.868   2.541  21.194  0.00  0.00    +0.000 A 
ATOM     24  C   UNL     1       3.551   2.528  19.977  0.00  0.00    +0.000 A 
ENDBRANCH  17  18
ENDBRANCH  16  17
ENDBRANCH   6  16
TORSDOF 7
ENDMDL
MODEL 4
REMARK VINA RESULT:      -7.5      2.978      6.336
REMARK  Name = 
REMARK  7 active torsions:
REMARK  status: ('A' for Active; 'I' for Inactive)
REMARK    1  A    between atoms: O_1  and  C_2
REMARK    2  A    between atoms: C_2  and  C_3
REMARK    3  A    between atoms: C_3  and  N_4
REMARK    4  A    between atoms: C_7  and  C_8
REMARK    5  A    between atoms: C_13  and  O_14
REMARK    6  A    between atoms: O_14  and  C_15
REMARK    7  A    between atoms: C_15  and  C_16
REMARK                            x       y       z     vdW  Elec       q    Type
REMARK                         _______ _______ _______ _____ _____    ______ ____
ROOT
ATOM      1  C   UNL     1       4.832   5.888  17.428  0.00  0.00    +0.000 A 
ATOM      2  C   UNL     1       6.080   6.551  17.421  0.00  0.00    +0.000 A 
ATOM      3  C   UNL     1       7.205   6.017  16.795  0.00  0.00    +0.000 A 
ATOM      4  C   UNL     1       7.104   4.812  16.120  0.00  0.00    +0.000 A 
ATOM      5  C   UNL     1       5.886   4.137  16.098  0.00  0.00    +0.000 A 
ATOM      6  C   UNL     1       4.754   4.634  16.778  0.00  0.00    +0.000 A 
ENDROOT
BRANCH   1  10
ATOM      7  N   UNL     1       2.229   8.034  18.546  0.00  0.00    +0.000 N 
ATOM      8  C   UNL     1       2.150   7.192  19.613  0.00  0.00    +0.000 A 
ATOM      9  C   UNL     1       3.093   6.218  19.385  0.00  0.00    +0.000 A 
ATOM     10  C   UNL     1       3.716   6.543  18.147  0.00  0.00    +0.000 A 
ATOM     11  N   UNL     1       3.123   7.641  17.628  0.00  0.00    +0.000 NA
BRANCH   7  12
ATOM     12  C   UNL     1       1.556   9.306  18.387  0.00  0.00    +0.000 C 
BRANCH  12  13
ATOM     13  C   UNL     1       0.883   9.801  19.658  0.00  0.00    +0.000 C 
BRANCH  13  14
ATOM     14  O   UNL     1       0.044  10.914  19.344  0.00  0.00    +0.000 OA
ATOM     15  H   UNL     1      -0.876  10.639  19.503  0.00  0.00    +0.000 HD
ENDBRANCH  13  14
ENDBRANCH  12  13
ENDBRANCH   7  12
ENDBRANCH   1  10
BRANCH   6  16
ATOM     16  O   UNL     1       3.577   3.922  16.830  0.00  0.00    +0.000 OA
BRANCH  16  17
ATOM     17  C   UNL     1       3.656   2.636  17.454  0.00  0.00    +0.000 C 
BRANCH  17  18
ATOM     18  C   UNL     1       2.908   2.652  18.764  0.00  0.00    +0.000 A 
ATOM     19  C   UNL     1       3.595   2.526  19.981  0.00  0.00    +0.000 A 
ATOM     20  C   UNL     1       2.895   2.563  21.189  0.00  0.00    +0.000 A 
ATOM     21  C   UNL     1       1.514   2.724  21.175  0.00  0.00    +0.000 A 
ATOM     22  F   UNL     1       0.844   2.758  22.335  0.00  0.00    +0.000 F 
ATOM     23  C   UNL     1       0.817   2.849  19.980  0.00  0.00    +0.000 A 
ATOM     24  C   UNL     1       1.514   2.812  18.772  0.00  0.00    +0.000 A 
ENDBRANCH  17  18
ENDBRANCH  16  17
ENDBRANCH   6  16
TORSDOF 7
ENDMDL
MODEL 5
REMARK VINA RESULT:      -7.5      2.301      2.776
REMARK  Name = 
REMARK  7 active torsions:
REMARK  status: ('A' for Active; 'I' for Inactive)
REMARK    1  A    between atoms: O_1  and  C_2
REMARK    2  A    between atoms: C_2  and  C_3
REMARK    3  A    between atoms: C_3  and  N_4
REMARK    4  A    between atoms: C_7  and  C_8
REMARK    5  A    between atoms: C_13  and  O_14
REMARK    6  A    between atoms: O_14  and  C_15
REMARK    7  A    between atoms: C_15  and  C_16
REMARK                            x       y       z     vdW  Elec       q    Type
REMARK                         _______ _______ _______ _____ _____    ______ ____
ROOT
ATOM      1  C   UNL     1       3.680   3.552  17.713  0.00  0.00    +0.000 A 
ATOM      2  C   UNL     1       3.563   2.187  18.064  0.00  0.00    +0.000 A 
ATOM      3  C   UNL     1       2.420   1.669  18.672  0.00  0.00    +0.000 A 
ATOM      4  C   UNL     1       1.339   2.499  18.915  0.00  0.00    +0.000 A 
ATOM      5  C   UNL     1       1.418   3.847  18.572  0.00  0.00    +0.000 A 
ATOM      6  C   UNL     1       2.588   4.400  18.012  0.00  0.00    +0.000 A 
ENDROOT
BRANCH   1  10
ATOM      7  N   UNL     1       6.338   4.408  15.515  0.00  0.00    +0.000 N 
ATOM      8  C   UNL     1       7.055   4.623  16.652  0.00  0.00    +0.000 A 
ATOM      9  C   UNL     1       6.190   4.365  17.688  0.00  0.00    +0.000 A 
ATOM     10  C   UNL     1       4.952   3.989  17.095  0.00  0.00    +0.000 A 
ATOM     11  N   UNL     1       5.060   4.077  15.751  0.00  0.00    +0.000 NA
BRANCH   7  12
ATOM     12  C   UNL     1       6.840   4.390  14.156  0.00  0.00    +0.000 C 
BRANCH  12  13
ATOM     13  C   UNL     1       5.865   3.787  13.156  0.00  0.00    +0.000 C 
BRANCH  13  14
ATOM     14  O   UNL     1       6.541   2.797  12.378  0.00  0.00    +0.000 OA
ATOM     15  H   UNL     1       6.760   3.201  11.521  0.00  0.00    +0.000 HD
ENDBRANCH  13  14
ENDBRANCH  12  13
ENDBRANCH   7  12
ENDBRANCH   1  10
BRANCH   6  16
ATOM     16  O   UNL     1       2.696   5.749  17.757  0.00  0.00    +0.000 OA
BRANCH  16  17
ATOM     17  C   UNL     1       3.147   6.554  18.852  0.00  0.00    +0.000 C 
BRANCH  17  18
ATOM     18  C   UNL     1       2.223   7.732  19.040  0.00  0.00    +0.000 A 
ATOM     19  C   UNL     1       1.684   8.024  20.303  0.00  0.00    +0.000 A 
ATOM     20  C   UNL     1       0.848   9.129  20.469  0.00  0.00    +0.000 A 
ATOM     21  C   UNL     1       0.552   9.935  19.375  0.00  0.00    +0.000 A 
ATOM     22  F   UNL     1      -0.253  10.994  19.539  0.00  0.00    +0.000 F 
ATOM     23  C   UNL     1       1.074   9.661  18.119  0.00  0.00    +0.000 A 
ATOM     24  C   UNL     1       1.910   8.557  17.949  0.00  0.00    +0.000 A 
ENDBRANCH  17  18
ENDBRANCH  16  17
ENDBRANCH   6  16
TORSDOF 7
ENDMDL
MODEL 6
REMARK VINA RESULT:      -7.4      2.907      6.027
REMARK  Name = 
REMARK  7 active torsions:
REMARK  status: ('A' for Active; 'I' for Inactive)
REMARK    1  A    between atoms: O_1  and  C_2
REMARK    2  A    between atoms: C_2  and  C_3
REMARK    3  A    between atoms: C_3  and  N_4
REMARK    4  A    between atoms: C_7  and  C_8
REMARK    5  A    between atoms: C_13  and  O_14
REMARK    6  A    between atoms: O_14  and  C_15
REMARK    7  A    between atoms: C_15  and  C_16
REMARK                            x       y       z     vdW  Elec       q    Type
REMARK                         _______ _______ _______ _____ _____    ______ ____
ROOT
ATOM      1  C   UNL     1       4.885   5.846  17.495  0.00  0.00    +0.000 A 
ATOM      2  C   UNL     1       6.206   6.327  17.644  0.00  0.00    +0.000 A 
ATOM      3  C   UNL     1       7.307   5.657  17.112  0.00  0.00    +0.000 A 
ATOM      4  C   UNL     1       7.114   4.499  16.379  0.00  0.00    +0.000 A 
ATOM      5  C   UNL     1       5.823   4.004  16.205  0.00  0.00    +0.000 A 
ATOM      6  C   UNL     1       4.705   4.636  16.787  0.00  0.00    +0.000 A 
ENDROOT
BRANCH   1  10
ATOM      7  N   UNL     1       2.324   7.137  19.596  0.00  0.00    +0.000 N 
ATOM      8  C   UNL     1       2.139   8.057  18.610  0.00  0.00    +0.000 A 
ATOM      9  C   UNL     1       3.077   7.762  17.649  0.00  0.00    +0.000 A 
ATOM     10  C   UNL     1       3.799   6.632  18.125  0.00  0.00    +0.000 A 
ATOM     11  N   UNL     1       3.346   6.303  19.354  0.00  0.00    +0.000 NA
BRANCH   7  12
ATOM     12  C   UNL     1       1.485   6.919  20.756  0.00  0.00    +0.000 C 
BRANCH  12  13
ATOM     13  C   UNL     1       0.902   8.200  21.333  0.00  0.00    +0.000 C 
BRANCH  13  14
ATOM     14  O   UNL     1       1.852   8.789  22.223  0.00  0.00    +0.000 OA
ATOM     15  H   UNL     1       2.595   8.168  22.308  0.00  0.00    +0.000 HD
ENDBRANCH  13  14
ENDBRANCH  12  13
ENDBRANCH   7  12
ENDBRANCH   1  10
BRANCH   6  16
ATOM     16  O   UNL     1       3.442   4.095  16.689  0.00  0.00    +0.000 OA
BRANCH  16  17
ATOM     17  C   UNL     1       3.298   2.760  17.184  0.00  0.00    +0.000 C 
BRANCH  17  18
ATOM     18  C   UNL     1       2.695   2.786  18.568  0.00  0.00    +0.000 A 
ATOM     19  C   UNL     1       3.499   2.597  19.702  0.00  0.00    +0.000 A 
ATOM     20  C   UNL     1       2.935   2.644  20.978  0.00  0.00    +0.000 A 
ATOM     21  C   UNL     1       1.571   2.878  21.115  0.00  0.00    +0.000 A 
ATOM     22  F   UNL     1       1.032   2.921  22.341  0.00  0.00    +0.000 F 
ATOM     23  C   UNL     1       0.759   3.066  20.004  0.00  0.00    +0.000 A 
ATOM     24  C   UNL     1       1.321   3.020  18.728  0.00  0.00    +0.000 A 
ENDBRANCH  17  18
ENDBRANCH  16  17
ENDBRANCH   6  16
TORSDOF 7
ENDMDL
MODEL 7
REMARK VINA RESULT:      -7.4      2.760      5.276
REMARK  Name = 
REMARK  7 active torsions:
REMARK  status: ('A' for Active; 'I' for Inactive)
REMARK    1  A    between atoms: O_1  and  C_2
REMARK    2  A    between atoms: C_2  and  C_3
REMARK    3  A    between atoms: C_3  and  N_4
REMARK    4  A    between atoms: C_7  and  C_8
REMARK    5  A    between atoms: C_13  and  O_14
REMARK    6  A    between atoms: O_14  and  C_15
REMARK    7  A    between atoms: C_15  and  C_16
REMARK                            x       y       z     vdW  Elec       q    Type
REMARK                         _______ _______ _______ _____ _____    ______ ____
ROOT
ATOM      1  C   UNL     1       2.956   7.257  18.496  0.00  0.00    +0.000 A 
ATOM      2  C   UNL     1       2.679   8.331  17.620  0.00  0.00    +0.000 A 
ATOM      3  C   UNL     1       1.773   9.341  17.942  0.00  0.00    +0.000 A 
ATOM      4  C   UNL     1       1.142   9.325  19.174  0.00  0.00    +0.000 A 
ATOM      5  C   UNL     1       1.400   8.285  20.065  0.00  0.00    +0.000 A 
ATOM      6  C   UNL     1       2.267   7.224  19.730  0.00  0.00    +0.000 A 
ENDROOT
BRANCH   1  10
ATOM      7  N   UNL     1       5.775   5.165  17.939  0.00  0.00    +0.000 N 
ATOM      8  C   UNL     1       5.024   4.613  16.946  0.00  0.00    +0.000 A 
ATOM      9  C   UNL     1       3.820   5.275  16.982  0.00  0.00    +0.000 A 
ATOM     10  C   UNL     1       3.919   6.232  18.032  0.00  0.00    +0.000 A 
ATOM     11  N   UNL     1       5.119   6.102  18.638  0.00  0.00    +0.000 NA
BRANCH   7  12
ATOM     12  C   UNL     1       7.178   4.926  18.208  0.00  0.00    +0.000 C 
BRANCH  12  13
ATOM     13  C   UNL     1       7.865   6.079  18.923  0.00  0.00    +0.000 C 
BRANCH  13  14
ATOM     14  O   UNL     1       7.847   7.233  18.081  0.00  0.00    +0.000 OA
ATOM     15  H   UNL     1       8.029   6.933  17.173  0.00  0.00    +0.000 HD
ENDBRANCH  13  14
ENDBRANCH  12  13
ENDBRANCH   7  12
ENDBRANCH   1  10
BRANCH   6  16
ATOM     16  O   UNL     1       2.451   6.153  20.575  0.00  0.00    +0.000 OA
BRANCH  16  17
ATOM     17  C   UNL     1       1.488   5.100  20.462  0.00  0.00    +0.000 C 
BRANCH  17  18
ATOM     18  C   UNL     1       2.121   3.887  19.827  0.00  0.00    +0.000 A 
ATOM     19  C   UNL     1       1.498   3.233  18.754  0.00  0.00    +0.000 A 
ATOM     20  C   UNL     1       2.103   2.124  18.161  0.00  0.00    +0.000 A 
ATOM     21  C   UNL     1       3.327   1.673  18.643  0.00  0.00    +0.000 A 
ATOM     22  F   UNL     1       3.906   0.607  18.072  0.00  0.00    +0.000 F 
ATOM     23  C   UNL     1       3.959   2.307  19.705  0.00  0.00    +0.000 A 
ATOM     24  C   UNL     1       3.356   3.415  20.299  0.00  0.00    +0.000 A 
ENDBRANCH  17  18
ENDBRANCH  16  17
ENDBRANCH   6  16
TORSDOF 7
ENDMDL
MODEL 8
REMARK VINA RESULT:      -7.4      1.011      1.485
REMARK  Name = 
REMARK  7 active torsions:
REMARK  status: ('A' for Active; 'I' for Inactive)
REMARK    1  A    between atoms: O_1  and  C_2
REMARK    2  A    between atoms: C_2  and  C_3
REMARK    3  A    between atoms: C_3  and  N_4
REMARK    4  A    between atoms: C_7  and  C_8
REMARK    5  A    between atoms: C_13  and  O_14
REMARK    6  A    between atoms: O_14  and  C_15
REMARK    7  A    between atoms: C_15  and  C_16
REMARK                            x       y       z     vdW  Elec       q    Type
REMARK                         _______ _______ _______ _____ _____    ______ ____
ROOT
ATOM      1  C   UNL     1       2.898   4.316  18.622  0.00  0.00    +0.000 A 
ATOM      2  C   UNL     1       2.503   3.026  18.200  0.00  0.00    +0.000 A 
ATOM      3  C   UNL     1       1.398   2.370  18.742  0.00  0.00    +0.000 A 
ATOM      4  C   UNL     1       0.629   3.006  19.702  0.00  0.00    +0.000 A 
ATOM      5  C   UNL     1       0.985   4.282  20.132  0.00  0.00    +0.000 A 
ATOM      6  C   UNL     1       2.134   4.934  19.639  0.00  0.00    +0.000 A 
ENDROOT
BRANCH   1  10
ATOM      7  N   UNL     1       6.193   5.218  17.642  0.00  0.00    +0.000 N 
ATOM      8  C   UNL     1       5.580   6.127  16.835  0.00  0.00    +0.000 A 
ATOM      9  C   UNL     1       4.232   5.946  17.032  0.00  0.00    +0.000 A 
ATOM     10  C   UNL     1       4.102   4.900  17.989  0.00  0.00    +0.000 A 
ATOM     11  N   UNL     1       5.331   4.435  18.306  0.00  0.00    +0.000 NA
BRANCH   7  12
ATOM     12  C   UNL     1       7.611   5.112  17.919  0.00  0.00    +0.000 C 
BRANCH  12  13
ATOM     13  C   UNL     1       8.080   6.020  19.045  0.00  0.00    +0.000 C 
BRANCH  13  14
ATOM     14  O   UNL     1       7.739   5.429  20.300  0.00  0.00    +0.000 OA
ATOM     15  H   UNL     1       6.892   4.965  20.182  0.00  0.00    +0.000 HD
ENDBRANCH  13  14
ENDBRANCH  12  13
ENDBRANCH   7  12
ENDBRANCH   1  10
BRANCH   6  16
ATOM     16  O   UNL     1       2.533   6.157  20.131  0.00  0.00    +0.000 OA
BRANCH  16  17
ATOM     17  C   UNL     1       1.507   6.946  20.741  0.00  0.00    +0.000 C 
BRANCH  17  18
ATOM     18  C   UNL     1       1.427   8.296  20.071  0.00  0.00    +0.000 A 
ATOM     19  C   UNL     1       1.888   8.471  18.757  0.00  0.00    +0.000 A 
ATOM     20  C   UNL     1       1.790   9.719  18.140  0.00  0.00    +0.000 A 
ATOM     21  C   UNL     1       1.234  10.786  18.838  0.00  0.00    +0.000 A 
ATOM     22  F   UNL     1       1.142  11.983  18.243  0.00  0.00    +0.000 F 
ATOM     23  C   UNL     1       0.773  10.632  20.138  0.00  0.00    +0.000 A 
ATOM     24  C   UNL     1       0.871   9.386  20.758  0.00  0.00    +0.000 A 
ENDBRANCH  17  18
ENDBRANCH  16  17
ENDBRANCH   6  16
TORSDOF 7
ENDMDL
MODEL 9
REMARK VINA RESULT:      -7.4      3.048      5.906
REMARK  Name = 
REMARK  7 active torsions:
REMARK  status: ('A' for Active; 'I' for Inactive)
REMARK    1  A    between atoms: O_1  and  C_2
REMARK    2  A    between atoms: C_2  and  C_3
REMARK    3  A    between atoms: C_3  and  N_4
REMARK    4  A    between atoms: C_7  and  C_8
REMARK    5  A    between atoms: C_13  and  O_14
REMARK    6  A    between atoms: O_14  and  C_15
REMARK    7  A    between atoms: C_15  and  C_16
REMARK                            x       y       z     vdW  Elec       q    Type
REMARK                         _______ _______ _______ _____ _____    ______ ____
ROOT
ATOM      1  C   UNL     1       2.153   4.672  19.086  0.00  0.00    +0.000 A 
ATOM      2  C   UNL     1       1.429   3.942  20.056  0.00  0.00    +0.000 A 
ATOM      3  C   UNL     1       1.358   2.550  20.042  0.00  0.00    +0.000 A 
ATOM      4  C   UNL     1       2.045   1.841  19.072  0.00  0.00    +0.000 A 
ATOM      5  C   UNL     1       2.778   2.529  18.107  0.00  0.00    +0.000 A 
ATOM      6  C   UNL     1       2.810   3.939  18.071  0.00  0.00    +0.000 A 
ENDROOT
BRANCH   1  10
ATOM      7  N   UNL     1       1.839   8.059  20.118  0.00  0.00    +0.000 N 
ATOM      8  C   UNL     1       2.162   8.360  18.831  0.00  0.00    +0.000 A 
ATOM      9  C   UNL     1       2.362   7.151  18.208  0.00  0.00    +0.000 A 
ATOM     10  C   UNL     1       2.135   6.149  19.192  0.00  0.00    +0.000 A 
ATOM     11  N   UNL     1       1.866   6.743  20.375  0.00  0.00    +0.000 NA
BRANCH   7  12
ATOM     12  C   UNL     1       1.379   8.976  21.141  0.00  0.00    +0.000 C 
BRANCH  12  13
ATOM     13  C   UNL     1      -0.130   9.168  21.151  0.00  0.00    +0.000 C 
BRANCH  13  14
ATOM     14  O   UNL     1      -0.746   8.020  21.735  0.00  0.00    +0.000 OA
ATOM     15  H   UNL     1      -1.704   8.094  21.581  0.00  0.00    +0.000 HD
ENDBRANCH  13  14
ENDBRANCH  12  13
ENDBRANCH   7  12
ENDBRANCH   1  10
BRANCH   6  16
ATOM     16  O   UNL     1       3.460   4.618  17.065  0.00  0.00    +0.000 OA
BRANCH  16  17
ATOM     17  C   UNL     1       4.769   4.140  16.738  0.00  0.00    +0.000 C 
BRANCH  17  18
ATOM     18  C   UNL     1       5.812   5.098  17.258  0.00  0.00    +0.000 A 
ATOM     19  C   UNL     1       5.900   6.403  16.750  0.00  0.00    +0.000 A 
ATOM     20  C   UNL     1       6.855   7.289  17.252  0.00  0.00    +0.000 A 
ATOM     21  C   UNL     1       7.719   6.866  18.257  0.00  0.00    +0.000 A 
ATOM     22  F   UNL     1       8.635   7.718  18.737  0.00  0.00    +0.000 F 
ATOM     23  C   UNL     1       7.647   5.578  18.771  0.00  0.00    +0.000 A 
ATOM     24  C   UNL     1       6.694   4.692  18.271  0.00  0.00    +0.000 A 
ENDBRANCH  17  18
ENDBRANCH  16  17
ENDBRANCH   6  16
TORSDOF 7
ENDMDL
