MODEL 1
REMARK VINA RESULT:      -5.3      0.000      0.000
REMARK  Name = 
REMARK  8 active torsions:
REMARK  status: ('A' for Active; 'I' for Inactive)
REMARK    1  A    between atoms: C_1  and  C_2
REMARK    2  A    between atoms: C_2  and  C_3
REMARK    3  A    between atoms: C_3  and  C_4
REMARK    4  A    between atoms: C_5  and  C_6
REMARK    5  A    between atoms: C_5  and  C_8
REMARK    6  A    between atoms: C_6  and  C_7
REMARK    7  A    between atoms: C_8  and  S_9
REMARK    8  A    between atoms: S_9  and  C_10
REMARK                            x       y       z     vdW  Elec       q    Type
REMARK                         _______ _______ _______ _____ _____    ______ ____
ROOT
ATOM      1  C   UNL     1       4.991   5.900  17.857  0.00  0.00    +0.000 C 
ENDROOT
BRANCH   1   3
ATOM      2  C   UNL     1       2.899   4.489  17.723  0.00  0.00    +0.000 C 
ATOM      3  C   UNL     1       3.487   5.659  18.080  0.00  0.00    +0.000 C 
BRANCH   3   4
ATOM      4  C   UNL     1       2.673   6.835  18.632  0.00  0.00    +0.000 C 
ATOM      5  C   UNL     1       2.615   8.146  17.843  0.00  0.00    +0.000 C 
ENDBRANCH   3   4
BRANCH   2   6
ATOM      6  C   UNL     1       1.461   4.072  17.877  0.00  0.00    +0.000 C 
BRANCH   6   8
ATOM      7  C   UNL     1       1.010   3.829  20.355  0.00  0.00    +0.000 C 
ATOM      8  C   UNL     1       1.170   3.105  19.028  0.00  0.00    +0.000 C 
ENDBRANCH   6   8
ENDBRANCH   2   6
ENDBRANCH   1   3
BRANCH   1   9
ATOM      9  S   UNL     1       5.453   6.012  16.088  0.00  0.00    +0.000 S 
BRANCH   9  10
ATOM     10  C   UNL     1       6.951   5.153  15.996  0.00  0.00    +0.000 C 
ATOM     11  N   UNL     1       7.396   4.421  16.935  0.00  0.00    +0.000 NA
ATOM     12  N   UNL     1       7.595   5.263  14.807  0.00  0.00    +0.000 N 
ATOM     13  H   UNL     1       6.724   4.440  17.715  0.00  0.00    +0.000 HD
ATOM     14  H   UNL     1       7.097   5.650  14.021  0.00  0.00    +0.000 HD
ATOM     15  H   UNL     1       8.321   4.579  14.626  0.00  0.00    +0.000 HD
ENDBRANCH   9  10
ENDBRANCH   1   9
TORSDOF 6
ENDMDL
MODEL 2
REMARK VINA RESULT:      -5.2      1.239      1.397
REMARK  Name = 
REMARK  8 active torsions:
REMARK  status: ('A' for Active; 'I' for Inactive)
REMARK    1  A    between atoms: C_1  and  C_2
REMARK    2  A    between atoms: C_2  and  C_3
REMARK    3  A    between atoms: C_3  and  C_4
REMARK    4  A    between atoms: C_5  and  C_6
REMARK    5  A    between atoms: C_5  and  C_8
REMARK    6  A    between atoms: C_6  and  C_7
REMARK    7  A    between atoms: C_8  and  S_9
REMARK    8  A    between atoms: S_9  and  C_10
REMARK                            x       y       z     vdW  Elec       q    Type
REMARK                         _______ _______ _______ _____ _____    ______ ____
ROOT
ATOM      1  C   UNL     1       4.426   5.219  17.278  0.00  0.00    +0.000 C 
ENDROOT
BRANCH   1   3
ATOM      2  C   UNL     1       2.525   4.011  18.426  0.00  0.00    +0.000 C 
ATOM      3  C   UNL     1       3.081   5.183  18.028  0.00  0.00    +0.000 C 
BRANCH   3   4
ATOM      4  C   UNL     1       2.358   6.522  18.213  0.00  0.00    +0.000 C 
ATOM      5  C   UNL     1       3.053   7.818  17.783  0.00  0.00    +0.000 C 
ENDBRANCH   3   4
BRANCH   2   6
ATOM      6  C   UNL     1       1.240   3.784  19.176  0.00  0.00    +0.000 C 
BRANCH   6   8
ATOM      7  C   UNL     1       1.655   2.775  21.459  0.00  0.00    +0.000 C 
ATOM      8  C   UNL     1       1.299   4.034  20.685  0.00  0.00    +0.000 C 
ENDBRANCH   6   8
ENDBRANCH   2   6
ENDBRANCH   1   3
BRANCH   1   9
ATOM      9  S   UNL     1       5.875   5.334  18.392  0.00  0.00    +0.000 S 
BRANCH   9  10
ATOM     10  C   UNL     1       7.229   5.208  17.325  0.00  0.00    +0.000 C 
ATOM     11  N   UNL     1       7.987   4.188  17.275  0.00  0.00    +0.000 NA
ATOM     12  N   UNL     1       7.391   6.261  16.486  0.00  0.00    +0.000 N 
ATOM     13  H   UNL     1       7.650   3.492  17.956  0.00  0.00    +0.000 HD
ATOM     14  H   UNL     1       6.639   6.926  16.395  0.00  0.00    +0.000 HD
ATOM     15  H   UNL     1       7.996   6.109  15.687  0.00  0.00    +0.000 HD
ENDBRANCH   9  10
ENDBRANCH   1   9
TORSDOF 6
ENDMDL
MODEL 3
REMARK VINA RESULT:      -5.1      1.615      2.650
REMARK  Name = 
REMARK  8 active torsions:
REMARK  status: ('A' for Active; 'I' for Inactive)
REMARK    1  A    between atoms: C_1  and  C_2
REMARK    2  A    between atoms: C_2  and  C_3
REMARK    3  A    between atoms: C_3  and  C_4
REMARK    4  A    between atoms: C_5  and  C_6
REMARK    5  A    between atoms: C_5  and  C_8
REMARK    6  A    between atoms: C_6  and  C_7
REMARK    7  A    between atoms: C_8  and  S_9
REMARK    8  A    between atoms: S_9  and  C_10
REMARK                            x       y       z     vdW  Elec       q    Type
REMARK                         _______ _______ _______ _____ _____    ______ ____
ROOT
ATOM      1  C   UNL     1       4.243   5.561  17.114  0.00  0.00    +0.000 C 
ENDROOT
BRANCH   1   3
ATOM      2  C   UNL     1       3.144   5.434  19.387  0.00  0.00    +0.000 C 
ATOM      3  C   UNL     1       3.715   4.790  18.338  0.00  0.00    +0.000 C 
BRANCH   3   4
ATOM      4  C   UNL     1       3.955   3.276  18.356  0.00  0.00    +0.000 C 
ATOM      5  C   UNL     1       2.877   2.337  17.805  0.00  0.00    +0.000 C 
ENDBRANCH   3   4
BRANCH   2   6
ATOM      6  C   UNL     1       2.563   4.853  20.648  0.00  0.00    +0.000 C 
BRANCH   6   8
ATOM      7  C   UNL     1       1.133   2.824  21.143  0.00  0.00    +0.000 C 
ATOM      8  C   UNL     1       1.183   4.204  20.506  0.00  0.00    +0.000 C 
ENDBRANCH   6   8
ENDBRANCH   2   6
ENDBRANCH   1   3
BRANCH   1   9
ATOM      9  S   UNL     1       5.488   4.627  16.150  0.00  0.00    +0.000 S 
BRANCH   9  10
ATOM     10  C   UNL     1       7.001   5.172  16.786  0.00  0.00    +0.000 C 
ATOM     11  N   UNL     1       7.565   6.251  16.421  0.00  0.00    +0.000 NA
ATOM     12  N   UNL     1       7.518   4.390  17.766  0.00  0.00    +0.000 N 
ATOM     13  H   UNL     1       6.974   6.709  15.712  0.00  0.00    +0.000 HD
ATOM     14  H   UNL     1       6.930   3.688  18.186  0.00  0.00    +0.000 HD
ATOM     15  H   UNL     1       8.247   4.807  18.334  0.00  0.00    +0.000 HD
ENDBRANCH   9  10
ENDBRANCH   1   9
TORSDOF 6
ENDMDL
MODEL 4
REMARK VINA RESULT:      -5.1      1.063      1.261
REMARK  Name = 
REMARK  8 active torsions:
REMARK  status: ('A' for Active; 'I' for Inactive)
REMARK    1  A    between atoms: C_1  and  C_2
REMARK    2  A    between atoms: C_2  and  C_3
REMARK    3  A    between atoms: C_3  and  C_4
REMARK    4  A    between atoms: C_5  and  C_6
REMARK    5  A    between atoms: C_5  and  C_8
REMARK    6  A    between atoms: C_6  and  C_7
REMARK    7  A    between atoms: C_8  and  S_9
REMARK    8  A    between atoms: S_9  and  C_10
REMARK                            x       y       z     vdW  Elec       q    Type
REMARK                         _______ _______ _______ _____ _____    ______ ____
ROOT
ATOM      1  C   UNL     1       4.571   6.542  17.344  0.00  0.00    +0.000 C 
ENDROOT
BRANCH   1   3
ATOM      2  C   UNL     1       2.902   4.915  18.320  0.00  0.00    +0.000 C 
ATOM      3  C   UNL     1       3.295   6.201  18.134  0.00  0.00    +0.000 C 
BRANCH   3   4
ATOM      4  C   UNL     1       2.441   7.381  18.611  0.00  0.00    +0.000 C 
ATOM      5  C   UNL     1       2.331   8.633  17.735  0.00  0.00    +0.000 C 
ENDBRANCH   3   4
BRANCH   2   6
ATOM      6  C   UNL     1       1.705   4.394  19.070  0.00  0.00    +0.000 C 
BRANCH   6   8
ATOM      7  C   UNL     1       1.322   2.968  21.126  0.00  0.00    +0.000 C 
ATOM      8  C   UNL     1       1.870   4.281  20.588  0.00  0.00    +0.000 C 
ENDBRANCH   6   8
ENDBRANCH   2   6
ENDBRANCH   1   3
BRANCH   1   9
ATOM      9  S   UNL     1       5.203   5.143  16.346  0.00  0.00    +0.000 S 
BRANCH   9  10
ATOM     10  C   UNL     1       6.583   4.592  17.230  0.00  0.00    +0.000 C 
ATOM     11  N   UNL     1       6.527   4.189  18.435  0.00  0.00    +0.000 NA
ATOM     12  N   UNL     1       7.737   4.557  16.517  0.00  0.00    +0.000 N 
ATOM     13  H   UNL     1       5.550   4.251  18.758  0.00  0.00    +0.000 HD
ATOM     14  H   UNL     1       7.689   4.655  15.515  0.00  0.00    +0.000 HD
ATOM     15  H   UNL     1       8.489   4.004  16.910  0.00  0.00    +0.000 HD
ENDBRANCH   9  10
ENDBRANCH   1   9
TORSDOF 6
ENDMDL
MODEL 5
REMARK VINA RESULT:      -5.1      0.453      1.012
REMARK  Name = 
REMARK  8 active torsions:
REMARK  status: ('A' for Active; 'I' for Inactive)
REMARK    1  A    between atoms: C_1  and  C_2
REMARK    2  A    between atoms: C_2  and  C_3
REMARK    3  A    between atoms: C_3  and  C_4
REMARK    4  A    between atoms: C_5  and  C_6
REMARK    5  A    between atoms: C_5  and  C_8
REMARK    6  A    between atoms: C_6  and  C_7
REMARK    7  A    between atoms: C_8  and  S_9
REMARK    8  A    between atoms: S_9  and  C_10
REMARK                            x       y       z     vdW  Elec       q    Type
REMARK                         _______ _______ _______ _____ _____    ______ ____
ROOT
ATOM      1  C   UNL     1       5.125   5.714  18.304  0.00  0.00    +0.000 C 
ENDROOT
BRANCH   1   3
ATOM      2  C   UNL     1       3.000   4.421  17.854  0.00  0.00    +0.000 C 
ATOM      3  C   UNL     1       3.602   5.509  18.398  0.00  0.00    +0.000 C 
BRANCH   3   4
ATOM      4  C   UNL     1       2.792   6.638  19.046  0.00  0.00    +0.000 C 
ATOM      5  C   UNL     1       2.357   7.836  18.196  0.00  0.00    +0.000 C 
ENDBRANCH   3   4
BRANCH   2   6
ATOM      6  C   UNL     1       1.542   4.049  17.860  0.00  0.00    +0.000 C 
BRANCH   6   8
ATOM      7  C   UNL     1       0.938   3.533  20.264  0.00  0.00    +0.000 C 
ATOM      8  C   UNL     1       1.137   2.968  18.866  0.00  0.00    +0.000 C 
ENDBRANCH   6   8
ENDBRANCH   2   6
ENDBRANCH   1   3
BRANCH   1   9
ATOM      9  S   UNL     1       5.668   6.394  16.694  0.00  0.00    +0.000 S 
BRANCH   9  10
ATOM     10  C   UNL     1       6.708   5.170  16.055  0.00  0.00    +0.000 C 
ATOM     11  N   UNL     1       7.461   5.348  15.046  0.00  0.00    +0.000 NA
ATOM     12  N   UNL     1       6.713   4.008  16.755  0.00  0.00    +0.000 N 
ATOM     13  H   UNL     1       7.335   6.313  14.708  0.00  0.00    +0.000 HD
ATOM     14  H   UNL     1       6.291   3.993  17.670  0.00  0.00    +0.000 HD
ATOM     15  H   UNL     1       7.486   3.379  16.573  0.00  0.00    +0.000 HD
ENDBRANCH   9  10
ENDBRANCH   1   9
TORSDOF 6
ENDMDL
MODEL 6
REMARK VINA RESULT:      -5.1      1.868      2.920
REMARK  Name = 
REMARK  8 active torsions:
REMARK  status: ('A' for Active; 'I' for Inactive)
REMARK    1  A    between atoms: C_1  and  C_2
REMARK    2  A    between atoms: C_2  and  C_3
REMARK    3  A    between atoms: C_3  and  C_4
REMARK    4  A    between atoms: C_5  and  C_6
REMARK    5  A    between atoms: C_5  and  C_8
REMARK    6  A    between atoms: C_6  and  C_7
REMARK    7  A    between atoms: C_8  and  S_9
REMARK    8  A    between atoms: S_9  and  C_10
REMARK                            x       y       z     vdW  Elec       q    Type
REMARK                         _______ _______ _______ _____ _____    ______ ____
ROOT
ATOM      1  C   UNL     1       4.438   5.049  16.967  0.00  0.00    +0.000 C 
ENDROOT
BRANCH   1   3
ATOM      2  C   UNL     1       3.140   5.269  19.124  0.00  0.00    +0.000 C 
ATOM      3  C   UNL     1       3.269   4.692  17.903  0.00  0.00    +0.000 C 
BRANCH   3   4
ATOM      4  C   UNL     1       2.318   3.586  17.430  0.00  0.00    +0.000 C 
ATOM      5  C   UNL     1       2.622   2.128  17.789  0.00  0.00    +0.000 C 
ENDBRANCH   3   4
BRANCH   2   6
ATOM      6  C   UNL     1       2.066   5.060  20.158  0.00  0.00    +0.000 C 
BRANCH   6   8
ATOM      7  C   UNL     1       1.311   2.891  21.222  0.00  0.00    +0.000 C 
ATOM      8  C   UNL     1       2.361   3.991  21.215  0.00  0.00    +0.000 C 
ENDBRANCH   6   8
ENDBRANCH   2   6
ENDBRANCH   1   3
BRANCH   1   9
ATOM      9  S   UNL     1       5.659   6.180  17.730  0.00  0.00    +0.000 S 
BRANCH   9  10
ATOM     10  C   UNL     1       6.851   5.118  18.393  0.00  0.00    +0.000 C 
ATOM     11  N   UNL     1       7.446   4.223  17.713  0.00  0.00    +0.000 NA
ATOM     12  N   UNL     1       7.161   5.353  19.692  0.00  0.00    +0.000 N 
ATOM     13  H   UNL     1       7.096   4.257  16.745  0.00  0.00    +0.000 HD
ATOM     14  H   UNL     1       6.846   6.212  20.116  0.00  0.00    +0.000 HD
ATOM     15  H   UNL     1       8.021   4.938  20.030  0.00  0.00    +0.000 HD
ENDBRANCH   9  10
ENDBRANCH   1   9
TORSDOF 6
ENDMDL
MODEL 7
REMARK VINA RESULT:      -5.1      1.174      1.279
REMARK  Name = 
REMARK  8 active torsions:
REMARK  status: ('A' for Active; 'I' for Inactive)
REMARK    1  A    between atoms: C_1  and  C_2
REMARK    2  A    between atoms: C_2  and  C_3
REMARK    3  A    between atoms: C_3  and  C_4
REMARK    4  A    between atoms: C_5  and  C_6
REMARK    5  A    between atoms: C_5  and  C_8
REMARK    6  A    between atoms: C_6  and  C_7
REMARK    7  A    between atoms: C_8  and  S_9
REMARK    8  A    between atoms: S_9  and  C_10
REMARK                            x       y       z     vdW  Elec       q    Type
REMARK                         _______ _______ _______ _____ _____    ______ ____
ROOT
ATOM      1  C   UNL     1       5.557   5.187  19.135  0.00  0.00    +0.000 C 
ENDROOT
BRANCH   1   3
ATOM      2  C   UNL     1       3.658   3.732  18.320  0.00  0.00    +0.000 C 
ATOM      3  C   UNL     1       4.210   4.968  18.423  0.00  0.00    +0.000 C 
BRANCH   3   4
ATOM      4  C   UNL     1       3.575   6.192  17.753  0.00  0.00    +0.000 C 
ATOM      5  C   UNL     1       2.700   7.136  18.585  0.00  0.00    +0.000 C 
ENDBRANCH   3   4
BRANCH   2   6
ATOM      6  C   UNL     1       2.356   3.332  17.681  0.00  0.00    +0.000 C 
BRANCH   6   8
ATOM      7  C   UNL     1       1.017   3.686  19.799  0.00  0.00    +0.000 C 
ATOM      8  C   UNL     1       1.300   2.757  18.629  0.00  0.00    +0.000 C 
ENDBRANCH   6   8
ENDBRANCH   2   6
ENDBRANCH   1   3
BRANCH   1   9
ATOM      9  S   UNL     1       6.702   6.272  18.205  0.00  0.00    +0.000 S 
BRANCH   9  10
ATOM     10  C   UNL     1       7.374   5.231  17.000  0.00  0.00    +0.000 C 
ATOM     11  N   UNL     1       7.954   4.132  17.270  0.00  0.00    +0.000 NA
ATOM     12  N   UNL     1       7.179   5.641  15.722  0.00  0.00    +0.000 N 
ATOM     13  H   UNL     1       7.941   3.995  18.291  0.00  0.00    +0.000 HD
ATOM     14  H   UNL     1       6.517   6.380  15.548  0.00  0.00    +0.000 HD
ATOM     15  H   UNL     1       7.320   4.944  15.001  0.00  0.00    +0.000 HD
ENDBRANCH   9  10
ENDBRANCH   1   9
TORSDOF 6
ENDMDL
MODEL 8
REMARK VINA RESULT:      -5.0      2.010      2.894
REMARK  Name = 
REMARK  8 active torsions:
REMARK  status: ('A' for Active; 'I' for Inactive)
REMARK    1  A    between atoms: C_1  and  C_2
REMARK    2  A    between atoms: C_2  and  C_3
REMARK    3  A    between atoms: C_3  and  C_4
REMARK    4  A    between atoms: C_5  and  C_6
REMARK    5  A    between atoms: C_5  and  C_8
REMARK    6  A    between atoms: C_6  and  C_7
REMARK    7  A    between atoms: C_8  and  S_9
REMARK    8  A    between atoms: S_9  and  C_10
REMARK                            x       y       z     vdW  Elec       q    Type
REMARK                         _______ _______ _______ _____ _____    ______ ____
ROOT
ATOM      1  C   UNL     1       4.081   3.876  16.781  0.00  0.00    +0.000 C 
ENDROOT
BRANCH   1   3
ATOM      2  C   UNL     1       1.968   3.797  18.166  0.00  0.00    +0.000 C 
ATOM      3  C   UNL     1       3.152   3.227  17.823  0.00  0.00    +0.000 C 
BRANCH   3   4
ATOM      4  C   UNL     1       3.671   1.966  18.522  0.00  0.00    +0.000 C 
ATOM      5  C   UNL     1       4.420   2.097  19.852  0.00  0.00    +0.000 C 
ENDBRANCH   3   4
BRANCH   2   6
ATOM      6  C   UNL     1       0.933   3.305  19.142  0.00  0.00    +0.000 C 
BRANCH   6   8
ATOM      7  C   UNL     1       1.377   2.739  21.569  0.00  0.00    +0.000 C 
ATOM      8  C   UNL     1       1.059   3.842  20.571  0.00  0.00    +0.000 C 
ENDBRANCH   6   8
ENDBRANCH   2   6
ENDBRANCH   1   3
BRANCH   1   9
ATOM      9  S   UNL     1       5.486   4.782  17.526  0.00  0.00    +0.000 S 
BRANCH   9  10
ATOM     10  C   UNL     1       6.394   5.335  16.163  0.00  0.00    +0.000 C 
ATOM     11  N   UNL     1       7.564   4.920  15.887  0.00  0.00    +0.000 NA
ATOM     12  N   UNL     1       5.736   6.207  15.359  0.00  0.00    +0.000 N 
ATOM     13  H   UNL     1       7.844   4.227  16.596  0.00  0.00    +0.000 HD
ATOM     14  H   UNL     1       4.742   6.322  15.481  0.00  0.00    +0.000 HD
ATOM     15  H   UNL     1       6.124   6.344  14.433  0.00  0.00    +0.000 HD
ENDBRANCH   9  10
ENDBRANCH   1   9
TORSDOF 6
ENDMDL
MODEL 9
REMARK VINA RESULT:      -5.0      1.324      1.681
REMARK  Name = 
REMARK  8 active torsions:
REMARK  status: ('A' for Active; 'I' for Inactive)
REMARK    1  A    between atoms: C_1  and  C_2
REMARK    2  A    between atoms: C_2  and  C_3
REMARK    3  A    between atoms: C_3  and  C_4
REMARK    4  A    between atoms: C_5  and  C_6
REMARK    5  A    between atoms: C_5  and  C_8
REMARK    6  A    between atoms: C_6  and  C_7
REMARK    7  A    between atoms: C_8  and  S_9
REMARK    8  A    between atoms: S_9  and  C_10
REMARK                            x       y       z     vdW  Elec       q    Type
REMARK                         _______ _______ _______ _____ _____    ______ ____
ROOT
ATOM      1  C   UNL     1       4.905   3.667  16.491  0.00  0.00    +0.000 C 
ENDROOT
BRANCH   1   3
ATOM      2  C   UNL     1       2.600   3.603  17.525  0.00  0.00    +0.000 C 
ATOM      3  C   UNL     1       3.822   4.190  17.452  0.00  0.00    +0.000 C 
BRANCH   3   4
ATOM      4  C   UNL     1       4.156   5.458  18.245  0.00  0.00    +0.000 C 
ATOM      5  C   UNL     1       3.560   6.799  17.807  0.00  0.00    +0.000 C 
ENDBRANCH   3   4
BRANCH   2   6
ATOM      6  C   UNL     1       1.434   3.962  18.407  0.00  0.00    +0.000 C 
BRANCH   6   8
ATOM      7  C   UNL     1       1.142   3.201  20.803  0.00  0.00    +0.000 C 
ATOM      8  C   UNL     1       0.938   2.851  19.337  0.00  0.00    +0.000 C 
ENDBRANCH   6   8
ENDBRANCH   2   6
ENDBRANCH   1   3
BRANCH   1   9
ATOM      9  S   UNL     1       6.331   4.803  16.317  0.00  0.00    +0.000 S 
BRANCH   9  10
ATOM     10  C   UNL     1       6.849   4.572  14.684  0.00  0.00    +0.000 C 
ATOM     11  N   UNL     1       6.389   3.660  13.927  0.00  0.00    +0.000 NA
ATOM     12  N   UNL     1       7.747   5.486  14.239  0.00  0.00    +0.000 N 
ATOM     13  H   UNL     1       5.685   3.121  14.451  0.00  0.00    +0.000 HD
ATOM     14  H   UNL     1       7.899   6.319  14.785  0.00  0.00    +0.000 HD
ATOM     15  H   UNL     1       7.869   5.542  13.235  0.00  0.00    +0.000 HD
ENDBRANCH   9  10
ENDBRANCH   1   9
TORSDOF 6
ENDMDL
