MODEL 1
REMARK VINA RESULT:      -6.1      0.000      0.000
REMARK  Name = 
REMARK  15 active torsions:
REMARK  status: ('A' for Active; 'I' for Inactive)
REMARK    1  A    between atoms: C_1  and  C_2
REMARK    2  A    between atoms: C_2  and  C_3
REMARK    3  A    between atoms: C_3  and  C_4
REMARK    4  A    between atoms: C_4  and  C_5
REMARK    5  A    between atoms: C_5  and  C_6
REMARK    6  A    between atoms: C_7  and  C_8
REMARK    7  A    between atoms: C_8  and  C_9
REMARK    8  A    between atoms: C_10  and  C_11
REMARK    9  A    between atoms: C_11  and  C_12
REMARK   10  A    between atoms: C_13  and  C_14
REMARK   11  A    between atoms: C_14  and  C_15
REMARK   12  A    between atoms: C_15  and  C_16
REMARK   13  A    between atoms: C_16  and  C_17
REMARK   14  A    between atoms: C_17  and  C_18
REMARK   15  A    between atoms: C_18  and  O_20
REMARK                            x       y       z     vdW  Elec       q    Type
REMARK                         _______ _______ _______ _____ _____    ______ ____
ROOT
ATOM      1  C   UNL     1       5.275   4.456  15.718  0.00  0.00    +0.000 C 
ENDROOT
BRANCH   1   3
ATOM      2  C   UNL     1       6.897   4.571  17.630  0.00  0.00    +0.000 C 
ATOM      3  C   UNL     1       6.293   5.146  16.576  0.00  0.00    +0.000 C 
BRANCH   2   4
ATOM      4  C   UNL     1       7.932   5.252  18.475  0.00  0.00    +0.000 C 
BRANCH   4   6
ATOM      5  C   UNL     1       8.205   7.643  17.773  0.00  0.00    +0.000 C 
ATOM      6  C   UNL     1       7.657   6.722  18.580  0.00  0.00    +0.000 C 
BRANCH   5   7
ATOM      7  C   UNL     1       7.915   9.111  17.871  0.00  0.00    +0.000 C 
BRANCH   7   8
ATOM      8  C   UNL     1       8.857   9.786  18.868  0.00  0.00    +0.000 C 
BRANCH   8   9
ATOM      9  C   UNL     1       9.590  10.956  18.215  0.00  0.00    +0.000 C 
BRANCH   9  11
ATOM     10  C   UNL     1      11.960  11.642  18.684  0.00  0.00    +0.000 C 
ATOM     11  C   UNL     1      10.531  11.643  19.201  0.00  0.00    +0.000 C 
ENDBRANCH   9  11
ENDBRANCH   8   9
ENDBRANCH   7   8
ENDBRANCH   5   7
ENDBRANCH   4   6
ENDBRANCH   2   4
ENDBRANCH   1   3
BRANCH   1  12
ATOM     12  C   UNL     1       4.058   4.085  16.512  0.00  0.00    +0.000 C 
ATOM     13  C   UNL     1       3.475   4.895  17.409  0.00  0.00    +0.000 C 
BRANCH  13  14
ATOM     14  C   UNL     1       2.252   4.525  18.195  0.00  0.00    +0.000 C 
BRANCH  14  15
ATOM     15  C   UNL     1       1.879   3.056  17.979  0.00  0.00    +0.000 C 
BRANCH  15  16
ATOM     16  C   UNL     1       0.930   2.579  19.078  0.00  0.00    +0.000 C 
BRANCH  16  17
ATOM     17  C   UNL     1       1.033   3.431  20.342  0.00  0.00    +0.000 C 
BRANCH  17  18
ATOM     18  C   UNL     1       1.946   2.784  21.361  0.00  0.00    +0.000 C 
ATOM     19  O   UNL     1       3.146   2.609  21.226  0.00  0.00    +0.000 OA
BRANCH  18  20
ATOM     20  O   UNL     1       1.283   2.407  22.478  0.00  0.00    +0.000 OA
ATOM     21  H   UNL     1       1.787   1.793  23.047  0.00  0.00    +0.000 HD
ENDBRANCH  18  20
ENDBRANCH  17  18
ENDBRANCH  16  17
ENDBRANCH  15  16
ENDBRANCH  14  15
ENDBRANCH  13  14
ENDBRANCH   1  12
TORSDOF 14
ENDMDL
MODEL 2
REMARK VINA RESULT:      -6.1      3.833      6.352
REMARK  Name = 
REMARK  15 active torsions:
REMARK  status: ('A' for Active; 'I' for Inactive)
REMARK    1  A    between atoms: C_1  and  C_2
REMARK    2  A    between atoms: C_2  and  C_3
REMARK    3  A    between atoms: C_3  and  C_4
REMARK    4  A    between atoms: C_4  and  C_5
REMARK    5  A    between atoms: C_5  and  C_6
REMARK    6  A    between atoms: C_7  and  C_8
REMARK    7  A    between atoms: C_8  and  C_9
REMARK    8  A    between atoms: C_10  and  C_11
REMARK    9  A    between atoms: C_11  and  C_12
REMARK   10  A    between atoms: C_13  and  C_14
REMARK   11  A    between atoms: C_14  and  C_15
REMARK   12  A    between atoms: C_15  and  C_16
REMARK   13  A    between atoms: C_16  and  C_17
REMARK   14  A    between atoms: C_17  and  C_18
REMARK   15  A    between atoms: C_18  and  O_20
REMARK                            x       y       z     vdW  Elec       q    Type
REMARK                         _______ _______ _______ _____ _____    ______ ____
ROOT
ATOM      1  C   UNL     1       3.509   6.258  18.983  0.00  0.00    +0.000 C 
ENDROOT
BRANCH   1   3
ATOM      2  C   UNL     1       5.721   5.645  17.970  0.00  0.00    +0.000 C 
ATOM      3  C   UNL     1       4.462   5.319  18.306  0.00  0.00    +0.000 C 
BRANCH   2   4
ATOM      4  C   UNL     1       6.684   4.700  17.314  0.00  0.00    +0.000 C 
BRANCH   4   6
ATOM      5  C   UNL     1       5.766   4.804  14.982  0.00  0.00    +0.000 C 
ATOM      6  C   UNL     1       6.086   4.098  16.078  0.00  0.00    +0.000 C 
BRANCH   5   7
ATOM      7  C   UNL     1       5.185   4.194  13.742  0.00  0.00    +0.000 C 
BRANCH   7   8
ATOM      8  C   UNL     1       6.288   3.641  12.840  0.00  0.00    +0.000 C 
BRANCH   8   9
ATOM      9  C   UNL     1       5.693   2.967  11.606  0.00  0.00    +0.000 C 
BRANCH   9  11
ATOM     10  C   UNL     1       3.681   3.713  10.302  0.00  0.00    +0.000 C 
ATOM     11  C   UNL     1       4.171   3.076  11.591  0.00  0.00    +0.000 C 
ENDBRANCH   9  11
ENDBRANCH   8   9
ENDBRANCH   7   8
ENDBRANCH   5   7
ENDBRANCH   4   6
ENDBRANCH   2   4
ENDBRANCH   1   3
BRANCH   1  12
ATOM     12  C   UNL     1       2.606   5.525  19.930  0.00  0.00    +0.000 C 
ATOM     13  C   UNL     1       3.002   4.495  20.694  0.00  0.00    +0.000 C 
BRANCH  13  14
ATOM     14  C   UNL     1       2.099   3.770  21.647  0.00  0.00    +0.000 C 
BRANCH  14  15
ATOM     15  C   UNL     1       0.931   3.108  20.910  0.00  0.00    +0.000 C 
BRANCH  15  16
ATOM     16  C   UNL     1       1.442   2.013  19.976  0.00  0.00    +0.000 C 
BRANCH  16  17
ATOM     17  C   UNL     1       1.071   2.275  18.518  0.00  0.00    +0.000 C 
BRANCH  17  18
ATOM     18  C   UNL     1       2.307   2.376  17.651  0.00  0.00    +0.000 C 
ATOM     19  O   UNL     1       2.458   3.150  16.720  0.00  0.00    +0.000 OA
BRANCH  18  20
ATOM     20  O   UNL     1       3.267   1.497  18.020  0.00  0.00    +0.000 OA
ATOM     21  H   UNL     1       3.631   0.977  17.278  0.00  0.00    +0.000 HD
ENDBRANCH  18  20
ENDBRANCH  17  18
ENDBRANCH  16  17
ENDBRANCH  15  16
ENDBRANCH  14  15
ENDBRANCH  13  14
ENDBRANCH   1  12
TORSDOF 14
ENDMDL
MODEL 3
REMARK VINA RESULT:      -6.1      4.008      6.908
REMARK  Name = 
REMARK  15 active torsions:
REMARK  status: ('A' for Active; 'I' for Inactive)
REMARK    1  A    between atoms: C_1  and  C_2
REMARK    2  A    between atoms: C_2  and  C_3
REMARK    3  A    between atoms: C_3  and  C_4
REMARK    4  A    between atoms: C_4  and  C_5
REMARK    5  A    between atoms: C_5  and  C_6
REMARK    6  A    between atoms: C_7  and  C_8
REMARK    7  A    between atoms: C_8  and  C_9
REMARK    8  A    between atoms: C_10  and  C_11
REMARK    9  A    between atoms: C_11  and  C_12
REMARK   10  A    between atoms: C_13  and  C_14
REMARK   11  A    between atoms: C_14  and  C_15
REMARK   12  A    between atoms: C_15  and  C_16
REMARK   13  A    between atoms: C_16  and  C_17
REMARK   14  A    between atoms: C_17  and  C_18
REMARK   15  A    between atoms: C_18  and  O_20
REMARK                            x       y       z     vdW  Elec       q    Type
REMARK                         _______ _______ _______ _____ _____    ______ ____
ROOT
ATOM      1  C   UNL     1       5.563   5.017  18.747  0.00  0.00    +0.000 C 
ENDROOT
BRANCH   1   3
ATOM      2  C   UNL     1       5.530   5.914  16.404  0.00  0.00    +0.000 C 
ATOM      3  C   UNL     1       5.300   4.917  17.274  0.00  0.00    +0.000 C 
BRANCH   2   4
ATOM      4  C   UNL     1       5.289   5.808  14.927  0.00  0.00    +0.000 C 
BRANCH   4   6
ATOM      5  C   UNL     1       5.660   4.107  13.122  0.00  0.00    +0.000 C 
ATOM      6  C   UNL     1       5.648   4.443  14.421  0.00  0.00    +0.000 C 
BRANCH   5   7
ATOM      7  C   UNL     1       6.036   2.746  12.620  0.00  0.00    +0.000 C 
BRANCH   7   8
ATOM      8  C   UNL     1       5.208   2.372  11.391  0.00  0.00    +0.000 C 
BRANCH   8   9
ATOM      9  C   UNL     1       4.020   3.317  11.229  0.00  0.00    +0.000 C 
BRANCH   9  11
ATOM     10  C   UNL     1       2.644   4.604   9.568  0.00  0.00    +0.000 C 
ATOM     11  C   UNL     1       3.604   3.443   9.765  0.00  0.00    +0.000 C 
ENDBRANCH   9  11
ENDBRANCH   8   9
ENDBRANCH   7   8
ENDBRANCH   5   7
ENDBRANCH   4   6
ENDBRANCH   2   4
ENDBRANCH   1   3
BRANCH   1  12
ATOM     12  C   UNL     1       4.318   5.386  19.497  0.00  0.00    +0.000 C 
ATOM     13  C   UNL     1       3.483   4.490  20.047  0.00  0.00    +0.000 C 
BRANCH  13  14
ATOM     14  C   UNL     1       2.244   4.863  20.805  0.00  0.00    +0.000 C 
BRANCH  14  15
ATOM     15  C   UNL     1       1.259   3.692  20.867  0.00  0.00    +0.000 C 
BRANCH  15  16
ATOM     16  C   UNL     1       0.667   3.419  19.485  0.00  0.00    +0.000 C 
BRANCH  16  17
ATOM     17  C   UNL     1       1.098   2.065  18.927  0.00  0.00    +0.000 C 
BRANCH  17  18
ATOM     18  C   UNL     1       2.221   2.221  17.925  0.00  0.00    +0.000 C 
ATOM     19  O   UNL     1       2.282   3.078  17.058  0.00  0.00    +0.000 OA
BRANCH  18  20
ATOM     20  O   UNL     1       3.189   1.289  18.087  0.00  0.00    +0.000 OA
ATOM     21  H   UNL     1       4.024   1.505  17.631  0.00  0.00    +0.000 HD
ENDBRANCH  18  20
ENDBRANCH  17  18
ENDBRANCH  16  17
ENDBRANCH  15  16
ENDBRANCH  14  15
ENDBRANCH  13  14
ENDBRANCH   1  12
TORSDOF 14
ENDMDL
MODEL 4
REMARK VINA RESULT:      -6.1      1.353      1.970
REMARK  Name = 
REMARK  15 active torsions:
REMARK  status: ('A' for Active; 'I' for Inactive)
REMARK    1  A    between atoms: C_1  and  C_2
REMARK    2  A    between atoms: C_2  and  C_3
REMARK    3  A    between atoms: C_3  and  C_4
REMARK    4  A    between atoms: C_4  and  C_5
REMARK    5  A    between atoms: C_5  and  C_6
REMARK    6  A    between atoms: C_7  and  C_8
REMARK    7  A    between atoms: C_8  and  C_9
REMARK    8  A    between atoms: C_10  and  C_11
REMARK    9  A    between atoms: C_11  and  C_12
REMARK   10  A    between atoms: C_13  and  C_14
REMARK   11  A    between atoms: C_14  and  C_15
REMARK   12  A    between atoms: C_15  and  C_16
REMARK   13  A    between atoms: C_16  and  C_17
REMARK   14  A    between atoms: C_17  and  C_18
REMARK   15  A    between atoms: C_18  and  O_20
REMARK                            x       y       z     vdW  Elec       q    Type
REMARK                         _______ _______ _______ _____ _____    ______ ____
ROOT
ATOM      1  C   UNL     1       3.538   6.600  18.176  0.00  0.00    +0.000 C 
ENDROOT
BRANCH   1   3
ATOM      2  C   UNL     1       6.000   6.384  17.745  0.00  0.00    +0.000 C 
ATOM      3  C   UNL     1       4.844   7.051  17.596  0.00  0.00    +0.000 C 
BRANCH   2   4
ATOM      4  C   UNL     1       7.303   6.821  17.146  0.00  0.00    +0.000 C 
BRANCH   4   6
ATOM      5  C   UNL     1       8.175   9.053  17.885  0.00  0.00    +0.000 C 
ATOM      6  C   UNL     1       8.044   7.731  18.078  0.00  0.00    +0.000 C 
BRANCH   5   7
ATOM      7  C   UNL     1       8.902   9.962  18.830  0.00  0.00    +0.000 C 
BRANCH   7   8
ATOM      8  C   UNL     1       9.749  10.978  18.062  0.00  0.00    +0.000 C 
BRANCH   8   9
ATOM      9  C   UNL     1      10.671  11.742  19.009  0.00  0.00    +0.000 C 
BRANCH   9  11
ATOM     10  C   UNL     1      10.014  12.426  21.334  0.00  0.00    +0.000 C 
ATOM     11  C   UNL     1       9.893  12.747  19.855  0.00  0.00    +0.000 C 
ENDBRANCH   9  11
ENDBRANCH   8   9
ENDBRANCH   7   8
ENDBRANCH   5   7
ENDBRANCH   4   6
ENDBRANCH   2   4
ENDBRANCH   1   3
BRANCH   1  12
ATOM     12  C   UNL     1       3.126   5.270  17.618  0.00  0.00    +0.000 C 
ATOM     13  C   UNL     1       3.597   4.094  18.064  0.00  0.00    +0.000 C 
BRANCH  13  14
ATOM     14  C   UNL     1       3.177   2.765  17.511  0.00  0.00    +0.000 C 
BRANCH  14  15
ATOM     15  C   UNL     1       1.787   2.370  18.016  0.00  0.00    +0.000 C 
BRANCH  15  16
ATOM     16  C   UNL     1       1.817   2.125  19.524  0.00  0.00    +0.000 C 
BRANCH  16  17
ATOM     17  C   UNL     1       1.103   3.227  20.304  0.00  0.00    +0.000 C 
BRANCH  17  18
ATOM     18  C   UNL     1       1.969   3.742  21.434  0.00  0.00    +0.000 C 
ATOM     19  O   UNL     1       2.281   3.111  22.430  0.00  0.00    +0.000 OA
BRANCH  18  20
ATOM     20  O   UNL     1       2.382   5.013  21.226  0.00  0.00    +0.000 OA
ATOM     21  H   UNL     1       3.017   5.335  21.894  0.00  0.00    +0.000 HD
ENDBRANCH  18  20
ENDBRANCH  17  18
ENDBRANCH  16  17
ENDBRANCH  15  16
ENDBRANCH  14  15
ENDBRANCH  13  14
ENDBRANCH   1  12
TORSDOF 14
ENDMDL
MODEL 5
REMARK VINA RESULT:      -5.9      3.749      5.912
REMARK  Name = 
REMARK  15 active torsions:
REMARK  status: ('A' for Active; 'I' for Inactive)
REMARK    1  A    between atoms: C_1  and  C_2
REMARK    2  A    between atoms: C_2  and  C_3
REMARK    3  A    between atoms: C_3  and  C_4
REMARK    4  A    between atoms: C_4  and  C_5
REMARK    5  A    between atoms: C_5  and  C_6
REMARK    6  A    between atoms: C_7  and  C_8
REMARK    7  A    between atoms: C_8  and  C_9
REMARK    8  A    between atoms: C_10  and  C_11
REMARK    9  A    between atoms: C_11  and  C_12
REMARK   10  A    between atoms: C_13  and  C_14
REMARK   11  A    between atoms: C_14  and  C_15
REMARK   12  A    between atoms: C_15  and  C_16
REMARK   13  A    between atoms: C_16  and  C_17
REMARK   14  A    between atoms: C_17  and  C_18
REMARK   15  A    between atoms: C_18  and  O_20
REMARK                            x       y       z     vdW  Elec       q    Type
REMARK                         _______ _______ _______ _____ _____    ______ ____
ROOT
ATOM      1  C   UNL     1       2.348   5.985  18.020  0.00  0.00    +0.000 C 
ENDROOT
BRANCH   1   3
ATOM      2  C   UNL     1       4.811   5.523  18.156  0.00  0.00    +0.000 C 
ATOM      3  C   UNL     1       3.717   5.813  17.432  0.00  0.00    +0.000 C 
BRANCH   2   4
ATOM      4  C   UNL     1       6.176   5.327  17.567  0.00  0.00    +0.000 C 
BRANCH   4   6
ATOM      5  C   UNL     1       7.139   4.956  15.282  0.00  0.00    +0.000 C 
ATOM      6  C   UNL     1       6.088   4.963  16.116  0.00  0.00    +0.000 C 
BRANCH   5   7
ATOM      7  C   UNL     1       7.049   4.574  13.835  0.00  0.00    +0.000 C 
BRANCH   7   8
ATOM      8  C   UNL     1       5.728   3.861  13.542  0.00  0.00    +0.000 C 
BRANCH   8   9
ATOM      9  C   UNL     1       5.655   3.432  12.079  0.00  0.00    +0.000 C 
BRANCH   9  11
ATOM     10  C   UNL     1       6.990   1.543  11.100  0.00  0.00    +0.000 C 
ATOM     11  C   UNL     1       7.021   2.991  11.559  0.00  0.00    +0.000 C 
ENDBRANCH   9  11
ENDBRANCH   8   9
ENDBRANCH   7   8
ENDBRANCH   5   7
ENDBRANCH   4   6
ENDBRANCH   2   4
ENDBRANCH   1   3
BRANCH   1  12
ATOM     12  C   UNL     1       2.012   4.859  18.952  0.00  0.00    +0.000 C 
ATOM     13  C   UNL     1       1.373   3.741  18.573  0.00  0.00    +0.000 C 
BRANCH  13  14
ATOM     14  C   UNL     1       1.046   2.613  19.505  0.00  0.00    +0.000 C 
BRANCH  14  15
ATOM     15  C   UNL     1       1.188   3.043  20.968  0.00  0.00    +0.000 C 
BRANCH  15  16
ATOM     16  C   UNL     1       2.483   2.492  21.563  0.00  0.00    +0.000 C 
BRANCH  16  17
ATOM     17  C   UNL     1       3.720   2.983  20.815  0.00  0.00    +0.000 C 
BRANCH  17  18
ATOM     18  C   UNL     1       4.675   1.843  20.533  0.00  0.00    +0.000 C 
ATOM     19  O   UNL     1       5.390   1.299  21.358  0.00  0.00    +0.000 OA
BRANCH  18  20
ATOM     20  O   UNL     1       4.657   1.467  19.233  0.00  0.00    +0.000 OA
ATOM     21  H   UNL     1       4.083   2.021  18.671  0.00  0.00    +0.000 HD
ENDBRANCH  18  20
ENDBRANCH  17  18
ENDBRANCH  16  17
ENDBRANCH  15  16
ENDBRANCH  14  15
ENDBRANCH  13  14
ENDBRANCH   1  12
TORSDOF 14
ENDMDL
MODEL 6
REMARK VINA RESULT:      -5.9      3.137      6.013
REMARK  Name = 
REMARK  15 active torsions:
REMARK  status: ('A' for Active; 'I' for Inactive)
REMARK    1  A    between atoms: C_1  and  C_2
REMARK    2  A    between atoms: C_2  and  C_3
REMARK    3  A    between atoms: C_3  and  C_4
REMARK    4  A    between atoms: C_4  and  C_5
REMARK    5  A    between atoms: C_5  and  C_6
REMARK    6  A    between atoms: C_7  and  C_8
REMARK    7  A    between atoms: C_8  and  C_9
REMARK    8  A    between atoms: C_10  and  C_11
REMARK    9  A    between atoms: C_11  and  C_12
REMARK   10  A    between atoms: C_13  and  C_14
REMARK   11  A    between atoms: C_14  and  C_15
REMARK   12  A    between atoms: C_15  and  C_16
REMARK   13  A    between atoms: C_16  and  C_17
REMARK   14  A    between atoms: C_17  and  C_18
REMARK   15  A    between atoms: C_18  and  O_20
REMARK                            x       y       z     vdW  Elec       q    Type
REMARK                         _______ _______ _______ _____ _____    ______ ____
ROOT
ATOM      1  C   UNL     1       3.002   7.109  18.287  0.00  0.00    +0.000 C 
ENDROOT
BRANCH   1   3
ATOM      2  C   UNL     1       5.255   7.028  17.187  0.00  0.00    +0.000 C 
ATOM      3  C   UNL     1       4.433   6.673  18.188  0.00  0.00    +0.000 C 
BRANCH   2   4
ATOM      4  C   UNL     1       6.693   6.611  17.097  0.00  0.00    +0.000 C 
BRANCH   4   6
ATOM      5  C   UNL     1       6.065   4.526  15.855  0.00  0.00    +0.000 C 
ATOM      6  C   UNL     1       6.886   5.572  16.035  0.00  0.00    +0.000 C 
BRANCH   5   7
ATOM      7  C   UNL     1       6.252   3.498  14.779  0.00  0.00    +0.000 C 
BRANCH   7   8
ATOM      8  C   UNL     1       5.485   3.888  13.516  0.00  0.00    +0.000 C 
BRANCH   8   9
ATOM      9  C   UNL     1       6.232   3.432  12.265  0.00  0.00    +0.000 C 
BRANCH   9  11
ATOM     10  C   UNL     1       6.134   1.157  11.206  0.00  0.00    +0.000 C 
ATOM     11  C   UNL     1       5.392   2.463  11.437  0.00  0.00    +0.000 C 
ENDBRANCH   9  11
ENDBRANCH   8   9
ENDBRANCH   7   8
ENDBRANCH   5   7
ENDBRANCH   4   6
ENDBRANCH   2   4
ENDBRANCH   1   3
BRANCH   1  12
ATOM     12  C   UNL     1       2.070   5.937  18.204  0.00  0.00    +0.000 C 
ATOM     13  C   UNL     1       2.438   4.718  17.777  0.00  0.00    +0.000 C 
BRANCH  13  14
ATOM     14  C   UNL     1       1.506   3.545  17.704  0.00  0.00    +0.000 C 
BRANCH  14  15
ATOM     15  C   UNL     1       1.038   3.122  19.098  0.00  0.00    +0.000 C 
BRANCH  15  16
ATOM     16  C   UNL     1       1.856   1.931  19.597  0.00  0.00    +0.000 C 
BRANCH  16  17
ATOM     17  C   UNL     1       3.235   1.861  18.944  0.00  0.00    +0.000 C 
BRANCH  17  18
ATOM     18  C   UNL     1       4.307   2.374  19.881  0.00  0.00    +0.000 C 
ATOM     19  O   UNL     1       4.297   2.266  21.096  0.00  0.00    +0.000 OA
BRANCH  18  20
ATOM     20  O   UNL     1       5.319   2.983  19.220  0.00  0.00    +0.000 OA
ATOM     21  H   UNL     1       5.939   3.461  19.803  0.00  0.00    +0.000 HD
ENDBRANCH  18  20
ENDBRANCH  17  18
ENDBRANCH  16  17
ENDBRANCH  15  16
ENDBRANCH  14  15
ENDBRANCH  13  14
ENDBRANCH   1  12
TORSDOF 14
ENDMDL
MODEL 7
REMARK VINA RESULT:      -5.9      4.284      8.156
REMARK  Name = 
REMARK  15 active torsions:
REMARK  status: ('A' for Active; 'I' for Inactive)
REMARK    1  A    between atoms: C_1  and  C_2
REMARK    2  A    between atoms: C_2  and  C_3
REMARK    3  A    between atoms: C_3  and  C_4
REMARK    4  A    between atoms: C_4  and  C_5
REMARK    5  A    between atoms: C_5  and  C_6
REMARK    6  A    between atoms: C_7  and  C_8
REMARK    7  A    between atoms: C_8  and  C_9
REMARK    8  A    between atoms: C_10  and  C_11
REMARK    9  A    between atoms: C_11  and  C_12
REMARK   10  A    between atoms: C_13  and  C_14
REMARK   11  A    between atoms: C_14  and  C_15
REMARK   12  A    between atoms: C_15  and  C_16
REMARK   13  A    between atoms: C_16  and  C_17
REMARK   14  A    between atoms: C_17  and  C_18
REMARK   15  A    between atoms: C_18  and  O_20
REMARK                            x       y       z     vdW  Elec       q    Type
REMARK                         _______ _______ _______ _____ _____    ______ ____
ROOT
ATOM      1  C   UNL     1       3.400   7.710  17.457  0.00  0.00    +0.000 C 
ENDROOT
BRANCH   1   3
ATOM      2  C   UNL     1       2.689   6.633  19.609  0.00  0.00    +0.000 C 
ATOM      3  C   UNL     1       2.406   7.383  18.531  0.00  0.00    +0.000 C 
BRANCH   2   4
ATOM      4  C   UNL     1       1.703   6.324  20.696  0.00  0.00    +0.000 C 
BRANCH   4   6
ATOM      5  C   UNL     1       2.138   3.893  21.129  0.00  0.00    +0.000 C 
ATOM      6  C   UNL     1       1.333   4.872  20.687  0.00  0.00    +0.000 C 
BRANCH   5   7
ATOM      7  C   UNL     1       1.756   2.443  21.134  0.00  0.00    +0.000 C 
BRANCH   7   8
ATOM      8  C   UNL     1       1.359   1.980  19.733  0.00  0.00    +0.000 C 
BRANCH   8   9
ATOM      9  C   UNL     1       2.521   2.145  18.756  0.00  0.00    +0.000 C 
BRANCH   9  11
ATOM     10  C   UNL     1       3.373   3.780  17.052  0.00  0.00    +0.000 C 
ATOM     11  C   UNL     1       2.149   3.065  17.597  0.00  0.00    +0.000 C 
ENDBRANCH   9  11
ENDBRANCH   8   9
ENDBRANCH   7   8
ENDBRANCH   5   7
ENDBRANCH   4   6
ENDBRANCH   2   4
ENDBRANCH   1   3
BRANCH   1  12
ATOM     12  C   UNL     1       4.680   6.953  17.653  0.00  0.00    +0.000 C 
ATOM     13  C   UNL     1       5.836   7.270  17.048  0.00  0.00    +0.000 C 
BRANCH  13  14
ATOM     14  C   UNL     1       7.117   6.517  17.254  0.00  0.00    +0.000 C 
BRANCH  14  15
ATOM     15  C   UNL     1       6.850   5.035  17.528  0.00  0.00    +0.000 C 
BRANCH  15  16
ATOM     16  C   UNL     1       6.868   4.239  16.224  0.00  0.00    +0.000 C 
BRANCH  16  17
ATOM     17  C   UNL     1       6.270   5.024  15.058  0.00  0.00    +0.000 C 
BRANCH  17  18
ATOM     18  C   UNL     1       7.140   4.914  13.825  0.00  0.00    +0.000 C 
ATOM     19  O   UNL     1       8.115   5.606  13.582  0.00  0.00    +0.000 OA
BRANCH  18  20
ATOM     20  O   UNL     1       6.723   3.937  12.987  0.00  0.00    +0.000 OA
ATOM     21  H   UNL     1       6.803   4.168  12.042  0.00  0.00    +0.000 HD
ENDBRANCH  18  20
ENDBRANCH  17  18
ENDBRANCH  16  17
ENDBRANCH  15  16
ENDBRANCH  14  15
ENDBRANCH  13  14
ENDBRANCH   1  12
TORSDOF 14
ENDMDL
MODEL 8
REMARK VINA RESULT:      -5.8      5.499     10.650
REMARK  Name = 
REMARK  15 active torsions:
REMARK  status: ('A' for Active; 'I' for Inactive)
REMARK    1  A    between atoms: C_1  and  C_2
REMARK    2  A    between atoms: C_2  and  C_3
REMARK    3  A    between atoms: C_3  and  C_4
REMARK    4  A    between atoms: C_4  and  C_5
REMARK    5  A    between atoms: C_5  and  C_6
REMARK    6  A    between atoms: C_7  and  C_8
REMARK    7  A    between atoms: C_8  and  C_9
REMARK    8  A    between atoms: C_10  and  C_11
REMARK    9  A    between atoms: C_11  and  C_12
REMARK   10  A    between atoms: C_13  and  C_14
REMARK   11  A    between atoms: C_14  and  C_15
REMARK   12  A    between atoms: C_15  and  C_16
REMARK   13  A    between atoms: C_16  and  C_17
REMARK   14  A    between atoms: C_17  and  C_18
REMARK   15  A    between atoms: C_18  and  O_20
REMARK                            x       y       z     vdW  Elec       q    Type
REMARK                         _______ _______ _______ _____ _____    ______ ____
ROOT
ATOM      1  C   UNL     1       8.165   7.952  18.024  0.00  0.00    +0.000 C 
ENDROOT
BRANCH   1   3
ATOM      2  C   UNL     1       6.157   6.597  17.371  0.00  0.00    +0.000 C 
ATOM      3  C   UNL     1       6.810   7.771  17.410  0.00  0.00    +0.000 C 
BRANCH   2   4
ATOM      4  C   UNL     1       4.791   6.418  16.778  0.00  0.00    +0.000 C 
BRANCH   4   6
ATOM      5  C   UNL     1       4.239   3.990  17.076  0.00  0.00    +0.000 C 
ATOM      6  C   UNL     1       4.071   5.275  17.426  0.00  0.00    +0.000 C 
BRANCH   5   7
ATOM      7  C   UNL     1       3.529   2.848  17.739  0.00  0.00    +0.000 C 
BRANCH   7   8
ATOM      8  C   UNL     1       3.058   3.240  19.140  0.00  0.00    +0.000 C 
BRANCH   8   9
ATOM      9  C   UNL     1       1.545   3.086  19.267  0.00  0.00    +0.000 C 
BRANCH   9  11
ATOM     10  C   UNL     1       1.912   5.290  20.414  0.00  0.00    +0.000 C 
ATOM     11  C   UNL     1       0.957   4.125  20.219  0.00  0.00    +0.000 C 
ENDBRANCH   9  11
ENDBRANCH   8   9
ENDBRANCH   7   8
ENDBRANCH   5   7
ENDBRANCH   4   6
ENDBRANCH   2   4
ENDBRANCH   1   3
BRANCH   1  12
ATOM     12  C   UNL     1       8.475   9.405  18.235  0.00  0.00    +0.000 C 
ATOM     13  C   UNL     1       9.236   9.868  19.239  0.00  0.00    +0.000 C 
BRANCH  13  14
ATOM     14  C   UNL     1       9.552  11.320  19.443  0.00  0.00    +0.000 C 
BRANCH  14  15
ATOM     15  C   UNL     1       9.531  12.083  18.116  0.00  0.00    +0.000 C 
BRANCH  15  16
ATOM     16  C   UNL     1      10.647  13.126  18.082  0.00  0.00    +0.000 C 
BRANCH  16  17
ATOM     17  C   UNL     1      10.113  14.537  17.843  0.00  0.00    +0.000 C 
BRANCH  17  18
ATOM     18  C   UNL     1      11.163  15.413  17.193  0.00  0.00    +0.000 C 
ATOM     19  O   UNL     1      12.081  15.967  17.775  0.00  0.00    +0.000 OA
BRANCH  18  20
ATOM     20  O   UNL     1      10.983  15.526  15.857  0.00  0.00    +0.000 OA
ATOM     21  H   UNL     1      10.787  16.436  15.561  0.00  0.00    +0.000 HD
ENDBRANCH  18  20
ENDBRANCH  17  18
ENDBRANCH  16  17
ENDBRANCH  15  16
ENDBRANCH  14  15
ENDBRANCH  13  14
ENDBRANCH   1  12
TORSDOF 14
ENDMDL
MODEL 9
REMARK VINA RESULT:      -5.8      5.449     11.014
REMARK  Name = 
REMARK  15 active torsions:
REMARK  status: ('A' for Active; 'I' for Inactive)
REMARK    1  A    between atoms: C_1  and  C_2
REMARK    2  A    between atoms: C_2  and  C_3
REMARK    3  A    between atoms: C_3  and  C_4
REMARK    4  A    between atoms: C_4  and  C_5
REMARK    5  A    between atoms: C_5  and  C_6
REMARK    6  A    between atoms: C_7  and  C_8
REMARK    7  A    between atoms: C_8  and  C_9
REMARK    8  A    between atoms: C_10  and  C_11
REMARK    9  A    between atoms: C_11  and  C_12
REMARK   10  A    between atoms: C_13  and  C_14
REMARK   11  A    between atoms: C_14  and  C_15
REMARK   12  A    between atoms: C_15  and  C_16
REMARK   13  A    between atoms: C_16  and  C_17
REMARK   14  A    between atoms: C_17  and  C_18
REMARK   15  A    between atoms: C_18  and  O_20
REMARK                            x       y       z     vdW  Elec       q    Type
REMARK                         _______ _______ _______ _____ _____    ______ ____
ROOT
ATOM      1  C   UNL     1       8.523   9.951  18.058  0.00  0.00    +0.000 C 
ENDROOT
BRANCH   1   3
ATOM      2  C   UNL     1       7.562   7.668  17.655  0.00  0.00    +0.000 C 
ATOM      3  C   UNL     1       8.469   8.464  18.245  0.00  0.00    +0.000 C 
BRANCH   2   4
ATOM      4  C   UNL     1       7.521   6.179  17.822  0.00  0.00    +0.000 C 
BRANCH   4   6
ATOM      5  C   UNL     1       5.676   4.502  17.557  0.00  0.00    +0.000 C 
ATOM      6  C   UNL     1       6.111   5.696  17.987  0.00  0.00    +0.000 C 
BRANCH   5   7
ATOM      7  C   UNL     1       4.269   4.016  17.739  0.00  0.00    +0.000 C 
BRANCH   7   8
ATOM      8  C   UNL     1       3.285   5.186  17.736  0.00  0.00    +0.000 C 
BRANCH   8   9
ATOM      9  C   UNL     1       1.848   4.687  17.867  0.00  0.00    +0.000 C 
BRANCH   9  11
ATOM     10  C   UNL     1       1.778   5.137  20.336  0.00  0.00    +0.000 C 
ATOM     11  C   UNL     1       1.587   4.094  19.249  0.00  0.00    +0.000 C 
ENDBRANCH   9  11
ENDBRANCH   8   9
ENDBRANCH   7   8
ENDBRANCH   5   7
ENDBRANCH   4   6
ENDBRANCH   2   4
ENDBRANCH   1   3
BRANCH   1  12
ATOM     12  C   UNL     1       9.316  10.607  19.150  0.00  0.00    +0.000 C 
ATOM     13  C   UNL     1      10.495  11.217  18.953  0.00  0.00    +0.000 C 
BRANCH  13  14
ATOM     14  C   UNL     1      11.281  11.881  20.045  0.00  0.00    +0.000 C 
BRANCH  14  15
ATOM     15  C   UNL     1      11.893  13.199  19.564  0.00  0.00    +0.000 C 
BRANCH  15  16
ATOM     16  C   UNL     1      10.912  13.945  18.661  0.00  0.00    +0.000 C 
BRANCH  16  17
ATOM     17  C   UNL     1      11.207  15.443  18.598  0.00  0.00    +0.000 C 
BRANCH  17  18
ATOM     18  C   UNL     1      11.075  15.964  17.183  0.00  0.00    +0.000 C 
ATOM     19  O   UNL     1      10.933  17.134  16.870  0.00  0.00    +0.000 OA
BRANCH  18  20
ATOM     20  O   UNL     1      11.136  14.974  16.263  0.00  0.00    +0.000 OA
ATOM     21  H   UNL     1      11.033  14.079  16.639  0.00  0.00    +0.000 HD
ENDBRANCH  18  20
ENDBRANCH  17  18
ENDBRANCH  16  17
ENDBRANCH  15  16
ENDBRANCH  14  15
ENDBRANCH  13  14
ENDBRANCH   1  12
TORSDOF 14
ENDMDL
