MODEL 1
REMARK VINA RESULT:      -9.2      0.000      0.000
REMARK  Name = 
REMARK  8 active torsions:
REMARK  status: ('A' for Active; 'I' for Inactive)
REMARK    1  A    between atoms: C_1  and  C_2
REMARK    2  A    between atoms: C_2  and  C_3
REMARK    3  A    between atoms: C_2  and  O_4
REMARK    4  A    between atoms: O_4  and  C_5
REMARK    5  A    between atoms: N_13  and  C_14
REMARK    6  A    between atoms: C_14  and  C_15
REMARK    7  A    between atoms: C_15  and  C_16
REMARK    8  A    between atoms: N_26  and  C_27
REMARK                            x       y       z     vdW  Elec       q    Type
REMARK                         _______ _______ _______ _____ _____    ______ ____
ROOT
ATOM      1  C   UNL     1       0.891  12.530  20.183  0.00  0.00    +0.000 A 
ATOM      2  N   UNL     1       1.907  12.687  19.396  0.00  0.00    +0.000 NA
ATOM      3  C   UNL     1       2.147  13.945  18.849  0.00  0.00    +0.000 A 
ATOM      4  N   UNL     1       3.263  14.025  18.094  0.00  0.00    +0.000 NA
ATOM      5  C   UNL     1       3.585  15.241  17.596  0.00  0.00    +0.000 A 
ATOM      6  C   UNL     1       2.843  16.391  17.822  0.00  0.00    +0.000 A 
ATOM      7  C   UNL     1       1.685  16.281  18.585  0.00  0.00    +0.000 A 
ATOM      8  C   UNL     1       1.332  15.032  19.098  0.00  0.00    +0.000 A 
ATOM      9  C   UNL     1       0.148  14.823  19.930  0.00  0.00    +0.000 A 
ATOM     10  O   UNL     1      -0.621  15.771  20.083  0.00  0.00    +0.000 OA
ATOM     11  N   UNL     1       0.011  13.558  20.505  0.00  0.00    +0.000 N 
ENDROOT
BRANCH  11  12
ATOM     12  C   UNL     1      -1.070  13.372  21.418  0.00  0.00    +0.000 A 
ATOM     13  C   UNL     1      -0.869  13.563  22.793  0.00  0.00    +0.000 A 
ATOM     14  C   UNL     1      -1.916  13.386  23.709  0.00  0.00    +0.000 A 
ATOM     15  C   UNL     1      -3.178  13.002  23.227  0.00  0.00    +0.000 A 
ATOM     16  C   UNL     1      -4.446  12.733  23.789  0.00  0.00    +0.000 A 
ATOM     17  N   UNL     1      -5.353  12.384  22.873  0.00  0.00    +0.000 NA
ATOM     18  N   UNL     1      -4.665  12.434  21.719  0.00  0.00    +0.000 N 
ATOM     19  C   UNL     1      -3.356  12.814  21.863  0.00  0.00    +0.000 A 
ATOM     20  C   UNL     1      -2.334  13.004  20.926  0.00  0.00    +0.000 A 
ATOM     21  H   UNL     1      -5.149  12.193  20.861  0.00  0.00    +0.000 HD
ENDBRANCH  11  12
BRANCH   1  22
ATOM     22  C   UNL     1       0.681  11.152  20.794  0.00  0.00    +0.000 C 
BRANCH  22  23
ATOM     23  C   UNL     1       0.110  10.135  19.812  0.00  0.00    +0.000 C 
BRANCH  23  32
ATOM     24  C   UNL     1       2.680   5.908  19.761  0.00  0.00    +0.000 A 
ATOM     25  C   UNL     1       3.608   5.366  18.852  0.00  0.00    +0.000 A 
ATOM     26  C   UNL     1       4.060   6.094  17.733  0.00  0.00    +0.000 A 
ATOM     27  C   UNL     1       3.562   7.373  17.471  0.00  0.00    +0.000 A 
ATOM     28  C   UNL     1       2.676   7.896  18.393  0.00  0.00    +0.000 A 
ATOM     29  C   UNL     1       2.298   7.214  19.542  0.00  0.00    +0.000 A 
ATOM     30  C   UNL     1       1.484   8.153  20.308  0.00  0.00    +0.000 C 
ATOM     31  O   UNL     1       1.289   8.101  21.510  0.00  0.00    +0.000 OA
ATOM     32  N   UNL     1       1.089   9.125  19.442  0.00  0.00    +0.000 N 
ATOM     33  C   UNL     1       1.913   9.145  18.353  0.00  0.00    +0.000 C 
ATOM     34  O   UNL     1       2.033   9.985  17.483  0.00  0.00    +0.000 OA
BRANCH  24  35
ATOM     35  O   UNL     1       2.256   5.082  20.759  0.00  0.00    +0.000 OA
BRANCH  35  37
ATOM     36  C   UNL     1       2.389   2.838  21.704  0.00  0.00    +0.000 C 
ATOM     37  C   UNL     1       2.128   3.678  20.461  0.00  0.00    +0.000 C 
ATOM     38  C   UNL     1       0.723   3.440  19.920  0.00  0.00    +0.000 C 
ENDBRANCH  35  37
ENDBRANCH  24  35
ENDBRANCH  23  32
ENDBRANCH  22  23
ENDBRANCH   1  22
TORSDOF 6
ENDMDL
MODEL 2
REMARK VINA RESULT:      -8.9      0.740      1.112
REMARK  Name = 
REMARK  8 active torsions:
REMARK  status: ('A' for Active; 'I' for Inactive)
REMARK    1  A    between atoms: C_1  and  C_2
REMARK    2  A    between atoms: C_2  and  C_3
REMARK    3  A    between atoms: C_2  and  O_4
REMARK    4  A    between atoms: O_4  and  C_5
REMARK    5  A    between atoms: N_13  and  C_14
REMARK    6  A    between atoms: C_14  and  C_15
REMARK    7  A    between atoms: C_15  and  C_16
REMARK    8  A    between atoms: N_26  and  C_27
REMARK                            x       y       z     vdW  Elec       q    Type
REMARK                         _______ _______ _______ _____ _____    ______ ____
ROOT
ATOM      1  C   UNL     1       0.960  12.570  20.024  0.00  0.00    +0.000 A 
ATOM      2  N   UNL     1       2.098  12.727  19.427  0.00  0.00    +0.000 NA
ATOM      3  C   UNL     1       2.388  13.958  18.843  0.00  0.00    +0.000 A 
ATOM      4  N   UNL     1       3.621  14.046  18.301  0.00  0.00    +0.000 NA
ATOM      5  C   UNL     1       3.983  15.242  17.782  0.00  0.00    +0.000 A 
ATOM      6  C   UNL     1       3.168  16.364  17.784  0.00  0.00    +0.000 A 
ATOM      7  C   UNL     1       1.894  16.245  18.328  0.00  0.00    +0.000 A 
ATOM      8  C   UNL     1       1.500  15.016  18.858  0.00  0.00    +0.000 A 
ATOM      9  C   UNL     1       0.190  14.801  19.471  0.00  0.00    +0.000 A 
ATOM     10  O   UNL     1      -0.630  15.717  19.412  0.00  0.00    +0.000 OA
ATOM     11  N   UNL     1      -0.004  13.571  20.103  0.00  0.00    +0.000 N 
ENDROOT
BRANCH  11  12
ATOM     12  C   UNL     1      -1.228  13.390  20.814  0.00  0.00    +0.000 A 
ATOM     13  C   UNL     1      -2.357  12.887  20.151  0.00  0.00    +0.000 A 
ATOM     14  C   UNL     1      -3.571  12.700  20.828  0.00  0.00    +0.000 A 
ATOM     15  C   UNL     1      -3.644  13.038  22.189  0.00  0.00    +0.000 A 
ATOM     16  C   UNL     1      -4.633  13.002  23.197  0.00  0.00    +0.000 A 
ATOM     17  N   UNL     1      -4.190  13.457  24.372  0.00  0.00    +0.000 NA
ATOM     18  N   UNL     1      -2.910  13.782  24.117  0.00  0.00    +0.000 N 
ATOM     19  C   UNL     1      -2.517  13.539  22.826  0.00  0.00    +0.000 A 
ATOM     20  C   UNL     1      -1.289  13.715  22.180  0.00  0.00    +0.000 A 
ATOM     21  H   UNL     1      -2.353  14.171  24.871  0.00  0.00    +0.000 HD
ENDBRANCH  11  12
BRANCH   1  22
ATOM     22  C   UNL     1       0.693  11.227  20.686  0.00  0.00    +0.000 C 
BRANCH  22  23
ATOM     23  C   UNL     1       0.115  10.186  19.732  0.00  0.00    +0.000 C 
BRANCH  23  32
ATOM     24  C   UNL     1       2.649   5.938  19.760  0.00  0.00    +0.000 A 
ATOM     25  C   UNL     1       3.583   5.378  18.869  0.00  0.00    +0.000 A 
ATOM     26  C   UNL     1       4.054   6.088  17.746  0.00  0.00    +0.000 A 
ATOM     27  C   UNL     1       3.569   7.368  17.463  0.00  0.00    +0.000 A 
ATOM     28  C   UNL     1       2.677   7.909  18.369  0.00  0.00    +0.000 A 
ATOM     29  C   UNL     1       2.281   7.245  19.522  0.00  0.00    +0.000 A 
ATOM     30  C   UNL     1       1.466   8.199  20.267  0.00  0.00    +0.000 C 
ATOM     31  O   UNL     1       1.258   8.163  21.467  0.00  0.00    +0.000 OA
ATOM     32  N   UNL     1       1.089   9.164  19.385  0.00  0.00    +0.000 N 
ATOM     33  C   UNL     1       1.926   9.164  18.305  0.00  0.00    +0.000 C 
ATOM     34  O   UNL     1       2.063   9.993  17.427  0.00  0.00    +0.000 OA
BRANCH  24  35
ATOM     35  O   UNL     1       2.207   5.127  20.762  0.00  0.00    +0.000 OA
BRANCH  35  37
ATOM     36  C   UNL     1       2.287   2.913  21.780  0.00  0.00    +0.000 C 
ATOM     37  C   UNL     1       2.119   3.714  20.496  0.00  0.00    +0.000 C 
ATOM     38  C   UNL     1       0.765   3.442  19.850  0.00  0.00    +0.000 C 
ENDBRANCH  35  37
ENDBRANCH  24  35
ENDBRANCH  23  32
ENDBRANCH  22  23
ENDBRANCH   1  22
TORSDOF 6
ENDMDL
MODEL 3
REMARK VINA RESULT:      -8.6      1.413      5.146
REMARK  Name = 
REMARK  8 active torsions:
REMARK  status: ('A' for Active; 'I' for Inactive)
REMARK    1  A    between atoms: C_1  and  C_2
REMARK    2  A    between atoms: C_2  and  C_3
REMARK    3  A    between atoms: C_2  and  O_4
REMARK    4  A    between atoms: O_4  and  C_5
REMARK    5  A    between atoms: N_13  and  C_14
REMARK    6  A    between atoms: C_14  and  C_15
REMARK    7  A    between atoms: C_15  and  C_16
REMARK    8  A    between atoms: N_26  and  C_27
REMARK                            x       y       z     vdW  Elec       q    Type
REMARK                         _______ _______ _______ _____ _____    ______ ____
ROOT
ATOM      1  C   UNL     1      -0.001  12.275  21.173  0.00  0.00    +0.000 A 
ATOM      2  N   UNL     1      -0.988  11.691  21.776  0.00  0.00    +0.000 NA
ATOM      3  C   UNL     1      -1.735  12.416  22.701  0.00  0.00    +0.000 A 
ATOM      4  N   UNL     1      -2.779  11.744  23.229  0.00  0.00    +0.000 NA
ATOM      5  C   UNL     1      -3.583  12.423  24.080  0.00  0.00    +0.000 A 
ATOM      6  C   UNL     1      -3.394  13.752  24.428  0.00  0.00    +0.000 A 
ATOM      7  C   UNL     1      -2.299  14.419  23.889  0.00  0.00    +0.000 A 
ATOM      8  C   UNL     1      -1.454  13.731  23.017  0.00  0.00    +0.000 A 
ATOM      9  C   UNL     1      -0.293  14.355  22.383  0.00  0.00    +0.000 A 
ATOM     10  O   UNL     1       0.004  15.498  22.727  0.00  0.00    +0.000 OA
ATOM     11  N   UNL     1       0.363  13.597  21.412  0.00  0.00    +0.000 N 
ENDROOT
BRANCH  11  12
ATOM     12  C   UNL     1       1.420  14.232  20.695  0.00  0.00    +0.000 A 
ATOM     13  C   UNL     1       1.144  14.938  19.514  0.00  0.00    +0.000 A 
ATOM     14  C   UNL     1       2.166  15.571  18.792  0.00  0.00    +0.000 A 
ATOM     15  C   UNL     1       3.484  15.479  19.267  0.00  0.00    +0.000 A 
ATOM     16  C   UNL     1       4.751  15.954  18.859  0.00  0.00    +0.000 A 
ATOM     17  N   UNL     1       5.734  15.572  19.677  0.00  0.00    +0.000 NA
ATOM     18  N   UNL     1       5.095  14.853  20.617  0.00  0.00    +0.000 N 
ATOM     19  C   UNL     1       3.739  14.773  20.435  0.00  0.00    +0.000 A 
ATOM     20  C   UNL     1       2.735  14.150  21.185  0.00  0.00    +0.000 A 
ATOM     21  H   UNL     1       5.645  14.438  21.361  0.00  0.00    +0.000 HD
ENDBRANCH  11  12
BRANCH   1  22
ATOM     22  C   UNL     1       0.769  11.466  20.139  0.00  0.00    +0.000 C 
BRANCH  22  23
ATOM     23  C   UNL     1       0.101  10.140  19.789  0.00  0.00    +0.000 C 
BRANCH  23  32
ATOM     24  C   UNL     1       2.652   5.902  19.808  0.00  0.00    +0.000 A 
ATOM     25  C   UNL     1       3.570   5.337  18.904  0.00  0.00    +0.000 A 
ATOM     26  C   UNL     1       4.016   6.038  17.764  0.00  0.00    +0.000 A 
ATOM     27  C   UNL     1       3.520   7.313  17.479  0.00  0.00    +0.000 A 
ATOM     28  C   UNL     1       2.645   7.859  18.398  0.00  0.00    +0.000 A 
ATOM     29  C   UNL     1       2.274   7.205  19.565  0.00  0.00    +0.000 A 
ATOM     30  C   UNL     1       1.471   8.163  20.317  0.00  0.00    +0.000 C 
ATOM     31  O   UNL     1       1.287   8.139  21.521  0.00  0.00    +0.000 OA
ATOM     32  N   UNL     1       1.072   9.118  19.433  0.00  0.00    +0.000 N 
ATOM     33  C   UNL     1       1.887   9.111  18.336  0.00  0.00    +0.000 C 
ATOM     34  O   UNL     1       2.003   9.931  17.448  0.00  0.00    +0.000 OA
BRANCH  24  35
ATOM     35  O   UNL     1       2.234   5.099  20.827  0.00  0.00    +0.000 OA
BRANCH  35  37
ATOM     36  C   UNL     1       2.196   2.882  21.841  0.00  0.00    +0.000 C 
ATOM     37  C   UNL     1       2.082   3.693  20.557  0.00  0.00    +0.000 C 
ATOM     38  C   UNL     1       0.725   3.486  19.894  0.00  0.00    +0.000 C 
ENDBRANCH  35  37
ENDBRANCH  24  35
ENDBRANCH  23  32
ENDBRANCH  22  23
ENDBRANCH   1  22
TORSDOF 6
ENDMDL
MODEL 4
REMARK VINA RESULT:      -8.3      1.413      5.018
REMARK  Name = 
REMARK  8 active torsions:
REMARK  status: ('A' for Active; 'I' for Inactive)
REMARK    1  A    between atoms: C_1  and  C_2
REMARK    2  A    between atoms: C_2  and  C_3
REMARK    3  A    between atoms: C_2  and  O_4
REMARK    4  A    between atoms: O_4  and  C_5
REMARK    5  A    between atoms: N_13  and  C_14
REMARK    6  A    between atoms: C_14  and  C_15
REMARK    7  A    between atoms: C_15  and  C_16
REMARK    8  A    between atoms: N_26  and  C_27
REMARK                            x       y       z     vdW  Elec       q    Type
REMARK                         _______ _______ _______ _____ _____    ______ ____
ROOT
ATOM      1  C   UNL     1       0.041  12.249  21.390  0.00  0.00    +0.000 A 
ATOM      2  N   UNL     1      -0.933  11.637  21.984  0.00  0.00    +0.000 NA
ATOM      3  C   UNL     1      -1.758  12.361  22.842  0.00  0.00    +0.000 A 
ATOM      4  N   UNL     1      -2.782  11.653  23.365  0.00  0.00    +0.000 NA
ATOM      5  C   UNL     1      -3.657  12.323  24.149  0.00  0.00    +0.000 A 
ATOM      6  C   UNL     1      -3.562  13.677  24.434  0.00  0.00    +0.000 A 
ATOM      7  C   UNL     1      -2.487  14.382  23.902  0.00  0.00    +0.000 A 
ATOM      8  C   UNL     1      -1.568  13.704  23.100  0.00  0.00    +0.000 A 
ATOM      9  C   UNL     1      -0.422  14.365  22.478  0.00  0.00    +0.000 A 
ATOM     10  O   UNL     1      -0.206  15.540  22.773  0.00  0.00    +0.000 OA
ATOM     11  N   UNL     1       0.317  13.601  21.572  0.00  0.00    +0.000 N 
ENDROOT
BRANCH  11  12
ATOM     12  C   UNL     1       1.363  14.263  20.863  0.00  0.00    +0.000 A 
ATOM     13  C   UNL     1       2.699  14.086  21.254  0.00  0.00    +0.000 A 
ATOM     14  C   UNL     1       3.744  14.727  20.572  0.00  0.00    +0.000 A 
ATOM     15  C   UNL     1       3.430  15.564  19.490  0.00  0.00    +0.000 A 
ATOM     16  C   UNL     1       4.154  16.359  18.572  0.00  0.00    +0.000 A 
ATOM     17  N   UNL     1       3.363  16.995  17.705  0.00  0.00    +0.000 NA
ATOM     18  N   UNL     1       2.127  16.603  18.064  0.00  0.00    +0.000 N 
ATOM     19  C   UNL     1       2.102  15.731  19.121  0.00  0.00    +0.000 A 
ATOM     20  C   UNL     1       1.043  15.087  19.770  0.00  0.00    +0.000 A 
ATOM     21  H   UNL     1       1.337  16.972  17.547  0.00  0.00    +0.000 HD
ENDBRANCH  11  12
BRANCH   1  22
ATOM     22  C   UNL     1       0.898  11.438  20.428  0.00  0.00    +0.000 C 
BRANCH  22  23
ATOM     23  C   UNL     1       0.177  10.223  19.853  0.00  0.00    +0.000 C 
BRANCH  23  32
ATOM     24  C   UNL     1       2.580   5.901  19.980  0.00  0.00    +0.000 A 
ATOM     25  C   UNL     1       3.447   5.264  19.074  0.00  0.00    +0.000 A 
ATOM     26  C   UNL     1       3.880   5.899  17.892  0.00  0.00    +0.000 A 
ATOM     27  C   UNL     1       3.420   7.178  17.565  0.00  0.00    +0.000 A 
ATOM     28  C   UNL     1       2.594   7.794  18.485  0.00  0.00    +0.000 A 
ATOM     29  C   UNL     1       2.239   7.205  19.691  0.00  0.00    +0.000 A 
ATOM     30  C   UNL     1       1.494   8.223  20.425  0.00  0.00    +0.000 C 
ATOM     31  O   UNL     1       1.349   8.257  21.634  0.00  0.00    +0.000 OA
ATOM     32  N   UNL     1       1.100   9.152  19.512  0.00  0.00    +0.000 N 
ATOM     33  C   UNL     1       1.878   9.069  18.392  0.00  0.00    +0.000 C 
ATOM     34  O   UNL     1       1.994   9.845  17.465  0.00  0.00    +0.000 OA
BRANCH  24  35
ATOM     35  O   UNL     1       2.167   5.159  21.047  0.00  0.00    +0.000 OA
BRANCH  35  37
ATOM     36  C   UNL     1       1.116   3.830  19.293  0.00  0.00    +0.000 C 
ATOM     37  C   UNL     1       1.301   4.036  20.791  0.00  0.00    +0.000 C 
ATOM     38  C   UNL     1       1.921   2.807  21.444  0.00  0.00    +0.000 C 
ENDBRANCH  35  37
ENDBRANCH  24  35
ENDBRANCH  23  32
ENDBRANCH  22  23
ENDBRANCH   1  22
TORSDOF 6
ENDMDL
MODEL 5
REMARK VINA RESULT:      -8.3      2.626      4.417
REMARK  Name = 
REMARK  8 active torsions:
REMARK  status: ('A' for Active; 'I' for Inactive)
REMARK    1  A    between atoms: C_1  and  C_2
REMARK    2  A    between atoms: C_2  and  C_3
REMARK    3  A    between atoms: C_2  and  O_4
REMARK    4  A    between atoms: O_4  and  C_5
REMARK    5  A    between atoms: N_13  and  C_14
REMARK    6  A    between atoms: C_14  and  C_15
REMARK    7  A    between atoms: C_15  and  C_16
REMARK    8  A    between atoms: N_26  and  C_27
REMARK                            x       y       z     vdW  Elec       q    Type
REMARK                         _______ _______ _______ _____ _____    ______ ____
ROOT
ATOM      1  C   UNL     1      -1.333  11.039  19.494  0.00  0.00    +0.000 A 
ATOM      2  N   UNL     1      -1.276  10.302  18.431  0.00  0.00    +0.000 NA
ATOM      3  C   UNL     1      -2.283  10.418  17.476  0.00  0.00    +0.000 A 
ATOM      4  N   UNL     1      -2.105   9.657  16.376  0.00  0.00    +0.000 NA
ATOM      5  C   UNL     1      -3.016   9.784  15.384  0.00  0.00    +0.000 A 
ATOM      6  C   UNL     1      -4.102  10.644  15.436  0.00  0.00    +0.000 A 
ATOM      7  C   UNL     1      -4.279  11.402  16.589  0.00  0.00    +0.000 A 
ATOM      8  C   UNL     1      -3.354  11.276  17.626  0.00  0.00    +0.000 A 
ATOM      9  C   UNL     1      -3.444  12.049  18.864  0.00  0.00    +0.000 A 
ATOM     10  O   UNL     1      -4.440  12.751  19.033  0.00  0.00    +0.000 OA
ATOM     11  N   UNL     1      -2.363  11.941  19.742  0.00  0.00    +0.000 N 
ENDROOT
BRANCH  11  12
ATOM     12  C   UNL     1      -2.374  12.780  20.895  0.00  0.00    +0.000 A 
ATOM     13  C   UNL     1      -1.653  13.984  20.896  0.00  0.00    +0.000 A 
ATOM     14  C   UNL     1      -1.649  14.825  22.017  0.00  0.00    +0.000 A 
ATOM     15  C   UNL     1      -2.375  14.438  23.155  0.00  0.00    +0.000 A 
ATOM     16  C   UNL     1      -2.626  14.975  24.437  0.00  0.00    +0.000 A 
ATOM     17  N   UNL     1      -3.404  14.188  25.184  0.00  0.00    +0.000 NA
ATOM     18  N   UNL     1      -3.657  13.143  24.376  0.00  0.00    +0.000 N 
ATOM     19  C   UNL     1      -3.080  13.241  23.137  0.00  0.00    +0.000 A 
ATOM     20  C   UNL     1      -3.117  12.394  22.024  0.00  0.00    +0.000 A 
ATOM     21  H   UNL     1      -4.232  12.388  24.733  0.00  0.00    +0.000 HD
ENDBRANCH  11  12
BRANCH   1  22
ATOM     22  C   UNL     1      -0.195  10.916  20.497  0.00  0.00    +0.000 C 
BRANCH  22  23
ATOM     23  C   UNL     1       1.173  10.752  19.842  0.00  0.00    +0.000 C 
BRANCH  23  32
ATOM     24  C   UNL     1       3.320   6.629  18.148  0.00  0.00    +0.000 A 
ATOM     25  C   UNL     1       3.418   5.324  18.663  0.00  0.00    +0.000 A 
ATOM     26  C   UNL     1       2.748   4.940  19.843  0.00  0.00    +0.000 A 
ATOM     27  C   UNL     1       1.993   5.870  20.563  0.00  0.00    +0.000 A 
ATOM     28  C   UNL     1       1.886   7.137  20.021  0.00  0.00    +0.000 A 
ATOM     29  C   UNL     1       2.473   7.490  18.813  0.00  0.00    +0.000 A 
ATOM     30  C   UNL     1       2.008   8.844  18.529  0.00  0.00    +0.000 C 
ATOM     31  O   UNL     1       1.966   9.358  17.425  0.00  0.00    +0.000 OA
ATOM     32  N   UNL     1       1.548   9.353  19.704  0.00  0.00    +0.000 N 
ATOM     33  C   UNL     1       1.262   8.341  20.574  0.00  0.00    +0.000 C 
ATOM     34  O   UNL     1       0.637   8.362  21.616  0.00  0.00    +0.000 OA
BRANCH  24  35
ATOM     35  O   UNL     1       4.076   6.905  17.048  0.00  0.00    +0.000 OA
BRANCH  35  37
ATOM     36  C   UNL     1       5.425   5.679  15.428  0.00  0.00    +0.000 C 
ATOM     37  C   UNL     1       5.297   6.161  16.867  0.00  0.00    +0.000 C 
ATOM     38  C   UNL     1       6.460   7.068  17.250  0.00  0.00    +0.000 C 
ENDBRANCH  35  37
ENDBRANCH  24  35
ENDBRANCH  23  32
ENDBRANCH  22  23
ENDBRANCH   1  22
TORSDOF 6
ENDMDL
MODEL 6
REMARK VINA RESULT:      -8.2      2.044      2.515
REMARK  Name = 
REMARK  8 active torsions:
REMARK  status: ('A' for Active; 'I' for Inactive)
REMARK    1  A    between atoms: C_1  and  C_2
REMARK    2  A    between atoms: C_2  and  C_3
REMARK    3  A    between atoms: C_2  and  O_4
REMARK    4  A    between atoms: O_4  and  C_5
REMARK    5  A    between atoms: N_13  and  C_14
REMARK    6  A    between atoms: C_14  and  C_15
REMARK    7  A    between atoms: C_15  and  C_16
REMARK    8  A    between atoms: N_26  and  C_27
REMARK                            x       y       z     vdW  Elec       q    Type
REMARK                         _______ _______ _______ _____ _____    ______ ____
ROOT
ATOM      1  C   UNL     1       0.945  12.234  20.531  0.00  0.00    +0.000 A 
ATOM      2  N   UNL     1       2.118  12.579  20.957  0.00  0.00    +0.000 NA
ATOM      3  C   UNL     1       2.582  13.863  20.683  0.00  0.00    +0.000 A 
ATOM      4  N   UNL     1       3.786  14.151  21.221  0.00  0.00    +0.000 NA
ATOM      5  C   UNL     1       4.254  15.409  21.048  0.00  0.00    +0.000 A 
ATOM      6  C   UNL     1       3.570  16.401  20.364  0.00  0.00    +0.000 A 
ATOM      7  C   UNL     1       2.341  16.077  19.799  0.00  0.00    +0.000 A 
ATOM      8  C   UNL     1       1.848  14.781  19.959  0.00  0.00    +0.000 A 
ATOM      9  C   UNL     1       0.556  14.354  19.422  0.00  0.00    +0.000 A 
ATOM     10  O   UNL     1      -0.060  15.145  18.708  0.00  0.00    +0.000 OA
ATOM     11  N   UNL     1       0.120  13.082  19.798  0.00  0.00    +0.000 N 
ENDROOT
BRANCH  11  12
ATOM     12  C   UNL     1      -1.191  12.696  19.387  0.00  0.00    +0.000 A 
ATOM     13  C   UNL     1      -2.274  12.839  20.267  0.00  0.00    +0.000 A 
ATOM     14  C   UNL     1      -3.571  12.467  19.886  0.00  0.00    +0.000 A 
ATOM     15  C   UNL     1      -3.771  11.934  18.602  0.00  0.00    +0.000 A 
ATOM     16  C   UNL     1      -4.872  11.457  17.856  0.00  0.00    +0.000 A 
ATOM     17  N   UNL     1      -4.525  11.032  16.638  0.00  0.00    +0.000 NA
ATOM     18  N   UNL     1      -3.197  11.241  16.603  0.00  0.00    +0.000 N 
ATOM     19  C   UNL     1      -2.686  11.795  17.747  0.00  0.00    +0.000 A 
ATOM     20  C   UNL     1      -1.386  12.178  18.095  0.00  0.00    +0.000 A 
ATOM     21  H   UNL     1      -2.692  10.980  15.763  0.00  0.00    +0.000 HD
ENDBRANCH  11  12
BRANCH   1  22
ATOM     22  C   UNL     1       0.452  10.838  20.881  0.00  0.00    +0.000 C 
BRANCH  22  23
ATOM     23  C   UNL     1       0.072  10.006  19.660  0.00  0.00    +0.000 C 
BRANCH  23  32
ATOM     24  C   UNL     1       2.731   5.835  19.710  0.00  0.00    +0.000 A 
ATOM     25  C   UNL     1       3.715   5.321  18.846  0.00  0.00    +0.000 A 
ATOM     26  C   UNL     1       4.208   6.067  17.757  0.00  0.00    +0.000 A 
ATOM     27  C   UNL     1       3.697   7.337  17.479  0.00  0.00    +0.000 A 
ATOM     28  C   UNL     1       2.754   7.833  18.358  0.00  0.00    +0.000 A 
ATOM     29  C   UNL     1       2.333   7.135  19.482  0.00  0.00    +0.000 A 
ATOM     30  C   UNL     1       1.460   8.050  20.212  0.00  0.00    +0.000 C 
ATOM     31  O   UNL     1       1.206   7.984  21.401  0.00  0.00    +0.000 OA
ATOM     32  N   UNL     1       1.090   9.020  19.333  0.00  0.00    +0.000 N 
ATOM     33  C   UNL     1       1.967   9.067  18.288  0.00  0.00    +0.000 C 
ATOM     34  O   UNL     1       2.114   9.916  17.432  0.00  0.00    +0.000 OA
BRANCH  24  35
ATOM     35  O   UNL     1       2.274   4.992  20.679  0.00  0.00    +0.000 OA
BRANCH  35  37
ATOM     36  C   UNL     1       2.598   2.752  21.588  0.00  0.00    +0.000 C 
ATOM     37  C   UNL     1       2.213   3.585  20.372  0.00  0.00    +0.000 C 
ATOM     38  C   UNL     1       0.795   3.267  19.913  0.00  0.00    +0.000 C 
ENDBRANCH  35  37
ENDBRANCH  24  35
ENDBRANCH  23  32
ENDBRANCH  22  23
ENDBRANCH   1  22
TORSDOF 6
ENDMDL
MODEL 7
REMARK VINA RESULT:      -8.1      2.714      4.477
REMARK  Name = 
REMARK  8 active torsions:
REMARK  status: ('A' for Active; 'I' for Inactive)
REMARK    1  A    between atoms: C_1  and  C_2
REMARK    2  A    between atoms: C_2  and  C_3
REMARK    3  A    between atoms: C_2  and  O_4
REMARK    4  A    between atoms: O_4  and  C_5
REMARK    5  A    between atoms: N_13  and  C_14
REMARK    6  A    between atoms: C_14  and  C_15
REMARK    7  A    between atoms: C_15  and  C_16
REMARK    8  A    between atoms: N_26  and  C_27
REMARK                            x       y       z     vdW  Elec       q    Type
REMARK                         _______ _______ _______ _____ _____    ______ ____
ROOT
ATOM      1  C   UNL     1      -0.912  10.867  19.431  0.00  0.00    +0.000 A 
ATOM      2  N   UNL     1      -1.007  10.231  18.308  0.00  0.00    +0.000 NA
ATOM      3  C   UNL     1      -2.127  10.441  17.508  0.00  0.00    +0.000 A 
ATOM      4  N   UNL     1      -2.107   9.784  16.329  0.00  0.00    +0.000 NA
ATOM      5  C   UNL     1      -3.137  10.007  15.481  0.00  0.00    +0.000 A 
ATOM      6  C   UNL     1      -4.191  10.865  15.753  0.00  0.00    +0.000 A 
ATOM      7  C   UNL     1      -4.204  11.515  16.983  0.00  0.00    +0.000 A 
ATOM      8  C   UNL     1      -3.154  11.289  17.874  0.00  0.00    +0.000 A 
ATOM      9  C   UNL     1      -3.069  11.944  19.179  0.00  0.00    +0.000 A 
ATOM     10  O   UNL     1      -4.022  12.634  19.539  0.00  0.00    +0.000 OA
ATOM     11  N   UNL     1      -1.885  11.749  19.893  0.00  0.00    +0.000 N 
ENDROOT
BRANCH  11  12
ATOM     12  C   UNL     1      -1.731  12.478  21.109  0.00  0.00    +0.000 A 
ATOM     13  C   UNL     1      -2.348  12.023  22.285  0.00  0.00    +0.000 A 
ATOM     14  C   UNL     1      -2.211  12.723  23.492  0.00  0.00    +0.000 A 
ATOM     15  C   UNL     1      -1.449  13.903  23.506  0.00  0.00    +0.000 A 
ATOM     16  C   UNL     1      -1.075  14.863  24.472  0.00  0.00    +0.000 A 
ATOM     17  N   UNL     1      -0.320  15.840  23.963  0.00  0.00    +0.000 NA
ATOM     18  N   UNL     1      -0.207  15.502  22.666  0.00  0.00    +0.000 N 
ATOM     19  C   UNL     1      -0.850  14.339  22.332  0.00  0.00    +0.000 A 
ATOM     20  C   UNL     1      -0.954  13.649  21.120  0.00  0.00    +0.000 A 
ATOM     21  H   UNL     1       0.325  16.113  22.056  0.00  0.00    +0.000 HD
ENDBRANCH  11  12
BRANCH   1  22
ATOM     22  C   UNL     1       0.344  10.645  20.261  0.00  0.00    +0.000 C 
BRANCH  22  23
ATOM     23  C   UNL     1       1.552  10.225  19.430  0.00  0.00    +0.000 C 
BRANCH  23  32
ATOM     24  C   UNL     1       3.440   5.743  18.522  0.00  0.00    +0.000 A 
ATOM     25  C   UNL     1       3.368   4.520  19.213  0.00  0.00    +0.000 A 
ATOM     26  C   UNL     1       2.565   4.363  20.361  0.00  0.00    +0.000 A 
ATOM     27  C   UNL     1       1.841   5.444  20.872  0.00  0.00    +0.000 A 
ATOM     28  C   UNL     1       1.903   6.626  20.159  0.00  0.00    +0.000 A 
ATOM     29  C   UNL     1       2.623   6.755  18.979  0.00  0.00    +0.000 A 
ATOM     30  C   UNL     1       2.314   8.089  18.472  0.00  0.00    +0.000 C 
ATOM     31  O   UNL     1       2.417   8.443  17.311  0.00  0.00    +0.000 OA
ATOM     32  N   UNL     1       1.803   8.795  19.517  0.00  0.00    +0.000 N 
ATOM     33  C   UNL     1       1.349   7.942  20.482  0.00  0.00    +0.000 C 
ATOM     34  O   UNL     1       0.640   8.162  21.444  0.00  0.00    +0.000 OA
BRANCH  24  35
ATOM     35  O   UNL     1       4.311   5.798  17.475  0.00  0.00    +0.000 OA
BRANCH  35  37
ATOM     36  C   UNL     1       6.425   4.613  17.204  0.00  0.00    +0.000 C 
ATOM     37  C   UNL     1       5.720   5.837  17.773  0.00  0.00    +0.000 C 
ATOM     38  C   UNL     1       6.288   7.124  17.186  0.00  0.00    +0.000 C 
ENDBRANCH  35  37
ENDBRANCH  24  35
ENDBRANCH  23  32
ENDBRANCH  22  23
ENDBRANCH   1  22
TORSDOF 6
ENDMDL
MODEL 8
REMARK VINA RESULT:      -8.1      3.962      9.472
REMARK  Name = 
REMARK  8 active torsions:
REMARK  status: ('A' for Active; 'I' for Inactive)
REMARK    1  A    between atoms: C_1  and  C_2
REMARK    2  A    between atoms: C_2  and  C_3
REMARK    3  A    between atoms: C_2  and  O_4
REMARK    4  A    between atoms: O_4  and  C_5
REMARK    5  A    between atoms: N_13  and  C_14
REMARK    6  A    between atoms: C_14  and  C_15
REMARK    7  A    between atoms: C_15  and  C_16
REMARK    8  A    between atoms: N_26  and  C_27
REMARK                            x       y       z     vdW  Elec       q    Type
REMARK                         _______ _______ _______ _____ _____    ______ ____
ROOT
ATOM      1  C   UNL     1       4.757   5.948  16.886  0.00  0.00    +0.000 A 
ATOM      2  N   UNL     1       5.559   6.369  15.961  0.00  0.00    +0.000 NA
ATOM      3  C   UNL     1       6.040   5.460  15.022  0.00  0.00    +0.000 A 
ATOM      4  N   UNL     1       6.818   6.003  14.062  0.00  0.00    +0.000 NA
ATOM      5  C   UNL     1       7.254   5.179  13.082  0.00  0.00    +0.000 A 
ATOM      6  C   UNL     1       6.943   3.830  13.011  0.00  0.00    +0.000 A 
ATOM      7  C   UNL     1       6.158   3.286  14.022  0.00  0.00    +0.000 A 
ATOM      8  C   UNL     1       5.708   4.120  15.047  0.00  0.00    +0.000 A 
ATOM      9  C   UNL     1       4.860   3.644  16.138  0.00  0.00    +0.000 A 
ATOM     10  O   UNL     1       4.633   2.437  16.207  0.00  0.00    +0.000 OA
ATOM     11  N   UNL     1       4.354   4.620  16.999  0.00  0.00    +0.000 N 
ENDROOT
BRANCH  11  12
ATOM     12  C   UNL     1       3.426   4.193  17.994  0.00  0.00    +0.000 A 
ATOM     13  C   UNL     1       2.046   4.288  17.757  0.00  0.00    +0.000 A 
ATOM     14  C   UNL     1       1.115   3.874  18.720  0.00  0.00    +0.000 A 
ATOM     15  C   UNL     1       1.587   3.367  19.942  0.00  0.00    +0.000 A 
ATOM     16  C   UNL     1       1.009   2.859  21.127  0.00  0.00    +0.000 A 
ATOM     17  N   UNL     1       1.921   2.502  22.034  0.00  0.00    +0.000 NA
ATOM     18  N   UNL     1       3.089   2.777  21.426  0.00  0.00    +0.000 N 
ATOM     19  C   UNL     1       2.955   3.285  20.160  0.00  0.00    +0.000 A 
ATOM     20  C   UNL     1       3.905   3.672  19.209  0.00  0.00    +0.000 A 
ATOM     21  H   UNL     1       3.948   2.596  21.933  0.00  0.00    +0.000 HD
ENDBRANCH  11  12
BRANCH   1  22
ATOM     22  C   UNL     1       4.219   6.975  17.872  0.00  0.00    +0.000 C 
BRANCH  22  23
ATOM     23  C   UNL     1       2.905   7.610  17.427  0.00  0.00    +0.000 C 
BRANCH  23  32
ATOM     24  C   UNL     1      -0.151  10.512  20.018  0.00  0.00    +0.000 A 
ATOM     25  C   UNL     1      -0.643  10.445  21.334  0.00  0.00    +0.000 A 
ATOM     26  C   UNL     1      -0.200   9.462  22.242  0.00  0.00    +0.000 A 
ATOM     27  C   UNL     1       0.722   8.491  21.841  0.00  0.00    +0.000 A 
ATOM     28  C   UNL     1       1.215   8.597  20.555  0.00  0.00    +0.000 A 
ATOM     29  C   UNL     1       0.845   9.617  19.689  0.00  0.00    +0.000 A 
ATOM     30  C   UNL     1       1.685   9.456  18.506  0.00  0.00    +0.000 C 
ATOM     31  O   UNL     1       1.954  10.335  17.707  0.00  0.00    +0.000 OA
ATOM     32  N   UNL     1       2.173   8.186  18.544  0.00  0.00    +0.000 N 
ATOM     33  C   UNL     1       2.100   7.694  19.816  0.00  0.00    +0.000 C 
ATOM     34  O   UNL     1       2.623   6.710  20.301  0.00  0.00    +0.000 OA
BRANCH  24  35
ATOM     35  O   UNL     1      -0.713  11.454  19.208  0.00  0.00    +0.000 OA
BRANCH  35  37
ATOM     36  C   UNL     1      -2.997  12.303  19.289  0.00  0.00    +0.000 C 
ATOM     37  C   UNL     1      -2.060  11.230  18.750  0.00  0.00    +0.000 C 
ATOM     38  C   UNL     1      -2.043  11.228  17.226  0.00  0.00    +0.000 C 
ENDBRANCH  35  37
ENDBRANCH  24  35
ENDBRANCH  23  32
ENDBRANCH  22  23
ENDBRANCH   1  22
TORSDOF 6
ENDMDL
MODEL 9
REMARK VINA RESULT:      -8.1      1.786      5.637
REMARK  Name = 
REMARK  8 active torsions:
REMARK  status: ('A' for Active; 'I' for Inactive)
REMARK    1  A    between atoms: C_1  and  C_2
REMARK    2  A    between atoms: C_2  and  C_3
REMARK    3  A    between atoms: C_2  and  O_4
REMARK    4  A    between atoms: O_4  and  C_5
REMARK    5  A    between atoms: N_13  and  C_14
REMARK    6  A    between atoms: C_14  and  C_15
REMARK    7  A    between atoms: C_15  and  C_16
REMARK    8  A    between atoms: N_26  and  C_27
REMARK                            x       y       z     vdW  Elec       q    Type
REMARK                         _______ _______ _______ _____ _____    ______ ____
ROOT
ATOM      1  C   UNL     1       0.416  12.443  21.443  0.00  0.00    +0.000 A 
ATOM      2  N   UNL     1      -0.572  11.796  21.975  0.00  0.00    +0.000 NA
ATOM      3  C   UNL     1      -1.476  12.488  22.776  0.00  0.00    +0.000 A 
ATOM      4  N   UNL     1      -2.505  11.744  23.233  0.00  0.00    +0.000 NA
ATOM      5  C   UNL     1      -3.453  12.381  23.958  0.00  0.00    +0.000 A 
ATOM      6  C   UNL     1      -3.426  13.737  24.246  0.00  0.00    +0.000 A 
ATOM      7  C   UNL     1      -2.345  14.481  23.784  0.00  0.00    +0.000 A 
ATOM      8  C   UNL     1      -1.353  13.837  23.043  0.00  0.00    +0.000 A 
ATOM      9  C   UNL     1      -0.193  14.540  22.496  0.00  0.00    +0.000 A 
ATOM     10  O   UNL     1      -0.039  15.722  22.802  0.00  0.00    +0.000 OA
ATOM     11  N   UNL     1       0.630  13.804  21.641  0.00  0.00    +0.000 N 
ENDROOT
BRANCH  11  12
ATOM     12  C   UNL     1       1.695  14.505  21.001  0.00  0.00    +0.000 A 
ATOM     13  C   UNL     1       2.968  14.539  21.589  0.00  0.00    +0.000 A 
ATOM     14  C   UNL     1       4.030  15.221  20.978  0.00  0.00    +0.000 A 
ATOM     15  C   UNL     1       3.796  15.884  19.762  0.00  0.00    +0.000 A 
ATOM     16  C   UNL     1       4.561  16.652  18.855  0.00  0.00    +0.000 A 
ATOM     17  N   UNL     1       3.847  17.082  17.812  0.00  0.00    +0.000 NA
ATOM     18  N   UNL     1       2.620  16.585  18.049  0.00  0.00    +0.000 N 
ATOM     19  C   UNL     1       2.528  15.842  19.198  0.00  0.00    +0.000 A 
ATOM     20  C   UNL     1       1.458  15.152  19.776  0.00  0.00    +0.000 A 
ATOM     21  H   UNL     1       1.882  16.791  17.385  0.00  0.00    +0.000 HD
ENDBRANCH  11  12
BRANCH   1  22
ATOM     22  C   UNL     1       1.362  11.665  20.541  0.00  0.00    +0.000 C 
BRANCH  22  23
ATOM     23  C   UNL     1       0.641  10.763  19.544  0.00  0.00    +0.000 C 
BRANCH  23  32
ATOM     24  C   UNL     1       3.391   6.843  18.299  0.00  0.00    +0.000 A 
ATOM     25  C   UNL     1       3.604   5.594  18.911  0.00  0.00    +0.000 A 
ATOM     26  C   UNL     1       2.898   5.205  20.067  0.00  0.00    +0.000 A 
ATOM     27  C   UNL     1       1.984   6.076  20.666  0.00  0.00    +0.000 A 
ATOM     28  C   UNL     1       1.768   7.283  20.029  0.00  0.00    +0.000 A 
ATOM     29  C   UNL     1       2.398   7.630  18.842  0.00  0.00    +0.000 A 
ATOM     30  C   UNL     1       1.797   8.895  18.431  0.00  0.00    +0.000 C 
ATOM     31  O   UNL     1       1.777   9.330  17.293  0.00  0.00    +0.000 OA
ATOM     32  N   UNL     1       1.191   9.416  19.532  0.00  0.00    +0.000 N 
ATOM     33  C   UNL     1       0.963   8.432  20.452  0.00  0.00    +0.000 C 
ATOM     34  O   UNL     1       0.263   8.441  21.444  0.00  0.00    +0.000 OA
BRANCH  24  35
ATOM     35  O   UNL     1       4.189   7.141  17.235  0.00  0.00    +0.000 OA
BRANCH  35  37
ATOM     36  C   UNL     1       5.387   5.811  15.579  0.00  0.00    +0.000 C 
ATOM     37  C   UNL     1       5.351   6.318  17.015  0.00  0.00    +0.000 C 
ATOM     38  C   UNL     1       6.585   7.152  17.336  0.00  0.00    +0.000 C 
ENDBRANCH  35  37
ENDBRANCH  24  35
ENDBRANCH  23  32
ENDBRANCH  22  23
ENDBRANCH   1  22
TORSDOF 6
ENDMDL
