MODEL 1
REMARK VINA RESULT:      -8.7      0.000      0.000
REMARK  Name = 
REMARK  3 active torsions:
REMARK  status: ('A' for Active; 'I' for Inactive)
REMARK    1  A    between atoms: C_1  and  C_2
REMARK    2  A    between atoms: C_3  and  C_4
REMARK    3  A    between atoms: N_14  and  C_15
REMARK                            x       y       z     vdW  Elec       q    Type
REMARK                         _______ _______ _______ _____ _____    ______ ____
ROOT
ATOM      1  C   UNL     1       3.195   5.131  19.048  0.00  0.00    +0.000 A 
ATOM      2  C   UNL     1       2.617   3.868  19.148  0.00  0.00    +0.000 A 
ATOM      3  C   UNL     1       1.362   3.329  19.623  0.00  0.00    +0.000 A 
ATOM      4  N   UNL     1       0.439   4.204  20.088  0.00  0.00    +0.000 N 
ATOM      5  N   UNL     1       1.134   2.046  19.598  0.00  0.00    +0.000 NA
ATOM      6  N   UNL     1       2.087   1.190  19.078  0.00  0.00    +0.000 N 
ATOM      7  C   UNL     1       3.295   1.551  18.499  0.00  0.00    +0.000 A 
ATOM      8  O   UNL     1       4.054   0.718  18.015  0.00  0.00    +0.000 OA
ATOM      9  C   UNL     1       3.546   2.985  18.564  0.00  0.00    +0.000 A 
ATOM     10  N   UNL     1       4.612   3.623  18.074  0.00  0.00    +0.000 NA
ATOM     11  N   UNL     1       4.471   4.897  18.520  0.00  0.00    +0.000 N 
ATOM     12  H   UNL     1       0.774   5.087  20.461  0.00  0.00    +0.000 HD
ATOM     13  H   UNL     1      -0.287   3.772  20.648  0.00  0.00    +0.000 HD
ATOM     14  H   UNL     1       1.853   0.204  19.071  0.00  0.00    +0.000 HD
ENDROOT
BRANCH   1  17
ATOM     15  C   UNL     1       2.644   7.806  17.134  0.00  0.00    +0.000 C 
ATOM     16  C   UNL     1       2.412   7.566  18.583  0.00  0.00    +0.000 A 
ATOM     17  C   UNL     1       2.636   6.423  19.368  0.00  0.00    +0.000 A 
ATOM     18  O   UNL     1       2.161   6.681  20.636  0.00  0.00    +0.000 OA
ATOM     19  C   UNL     1       1.661   7.942  20.672  0.00  0.00    +0.000 A 
ATOM     20  C   UNL     1       1.040   8.541  21.766  0.00  0.00    +0.000 A 
ATOM     21  C   UNL     1       0.620   9.865  21.593  0.00  0.00    +0.000 A 
ATOM     22  C   UNL     1       0.835  10.541  20.389  0.00  0.00    +0.000 A 
ATOM     23  C   UNL     1       1.445   9.898  19.306  0.00  0.00    +0.000 A 
ATOM     24  C   UNL     1       1.847   8.558  19.451  0.00  0.00    +0.000 A 
ENDBRANCH   1  17
BRANCH  11  25
ATOM     25  C   UNL     1       5.576   5.779  18.385  0.00  0.00    +0.000 A 
ATOM     26  C   UNL     1       6.670   5.620  19.250  0.00  0.00    +0.000 A 
ATOM     27  C   UNL     1       7.830   6.367  19.047  0.00  0.00    +0.000 A 
ATOM     28  C   UNL     1       7.883   7.308  18.019  0.00  0.00    +0.000 A 
ATOM     29  C   UNL     1       6.770   7.514  17.199  0.00  0.00    +0.000 A 
ATOM     30  C   UNL     1       5.615   6.750  17.377  0.00  0.00    +0.000 A 
ENDBRANCH  11  25
TORSDOF 2
ENDMDL
MODEL 2
REMARK VINA RESULT:      -7.4      0.848      1.612
REMARK  Name = 
REMARK  3 active torsions:
REMARK  status: ('A' for Active; 'I' for Inactive)
REMARK    1  A    between atoms: C_1  and  C_2
REMARK    2  A    between atoms: C_3  and  C_4
REMARK    3  A    between atoms: N_14  and  C_15
REMARK                            x       y       z     vdW  Elec       q    Type
REMARK                         _______ _______ _______ _____ _____    ______ ____
ROOT
ATOM      1  C   UNL     1       3.204   5.160  18.815  0.00  0.00    +0.000 A 
ATOM      2  C   UNL     1       2.626   3.900  18.947  0.00  0.00    +0.000 A 
ATOM      3  C   UNL     1       1.346   3.378  19.372  0.00  0.00    +0.000 A 
ATOM      4  N   UNL     1       0.392   4.270  19.730  0.00  0.00    +0.000 N 
ATOM      5  N   UNL     1       1.125   2.094  19.404  0.00  0.00    +0.000 NA
ATOM      6  N   UNL     1       2.112   1.218  18.991  0.00  0.00    +0.000 N 
ATOM      7  C   UNL     1       3.353   1.556  18.470  0.00  0.00    +0.000 A 
ATOM      8  O   UNL     1       4.144   0.703  18.081  0.00  0.00    +0.000 OA
ATOM      9  C   UNL     1       3.593   2.993  18.471  0.00  0.00    +0.000 A 
ATOM     10  N   UNL     1       4.685   3.611  18.015  0.00  0.00    +0.000 NA
ATOM     11  N   UNL     1       4.512   4.906  18.381  0.00  0.00    +0.000 N 
ATOM     12  H   UNL     1       0.699   5.174  20.074  0.00  0.00    +0.000 HD
ATOM     13  H   UNL     1      -0.365   3.863  20.266  0.00  0.00    +0.000 HD
ATOM     14  H   UNL     1       1.883   0.231  19.025  0.00  0.00    +0.000 HD
ENDROOT
BRANCH   1  17
ATOM     15  C   UNL     1       1.853   6.530  21.538  0.00  0.00    +0.000 C 
ATOM     16  C   UNL     1       2.033   7.052  20.157  0.00  0.00    +0.000 A 
ATOM     17  C   UNL     1       2.622   6.463  19.027  0.00  0.00    +0.000 A 
ATOM     18  O   UNL     1       2.628   7.401  18.016  0.00  0.00    +0.000 OA
ATOM     19  C   UNL     1       2.057   8.544  18.470  0.00  0.00    +0.000 A 
ATOM     20  C   UNL     1       1.936   9.734  17.756  0.00  0.00    +0.000 A 
ATOM     21  C   UNL     1       1.286  10.787  18.410  0.00  0.00    +0.000 A 
ATOM     22  C   UNL     1       0.778  10.633  19.703  0.00  0.00    +0.000 A 
ATOM     23  C   UNL     1       0.937   9.427  20.396  0.00  0.00    +0.000 A 
ATOM     24  C   UNL     1       1.614   8.367  19.765  0.00  0.00    +0.000 A 
ENDBRANCH   1  17
BRANCH  11  25
ATOM     25  C   UNL     1       5.620   5.788  18.266  0.00  0.00    +0.000 A 
ATOM     26  C   UNL     1       6.713   5.605  19.127  0.00  0.00    +0.000 A 
ATOM     27  C   UNL     1       7.876   6.353  18.942  0.00  0.00    +0.000 A 
ATOM     28  C   UNL     1       7.931   7.318  17.936  0.00  0.00    +0.000 A 
ATOM     29  C   UNL     1       6.819   7.546  17.122  0.00  0.00    +0.000 A 
ATOM     30  C   UNL     1       5.661   6.782  17.282  0.00  0.00    +0.000 A 
ENDBRANCH  11  25
TORSDOF 2
ENDMDL
MODEL 3
REMARK VINA RESULT:      -7.4      8.175     10.282
REMARK  Name = 
REMARK  3 active torsions:
REMARK  status: ('A' for Active; 'I' for Inactive)
REMARK    1  A    between atoms: C_1  and  C_2
REMARK    2  A    between atoms: C_3  and  C_4
REMARK    3  A    between atoms: N_14  and  C_15
REMARK                            x       y       z     vdW  Elec       q    Type
REMARK                         _______ _______ _______ _____ _____    ______ ____
ROOT
ATOM      1  C   UNL     1      -2.517  12.892  20.966  0.00  0.00    +0.000 A 
ATOM      2  C   UNL     1      -3.482  13.033  21.958  0.00  0.00    +0.000 A 
ATOM      3  C   UNL     1      -4.855  12.619  22.145  0.00  0.00    +0.000 A 
ATOM      4  N   UNL     1      -5.427  11.878  21.166  0.00  0.00    +0.000 N 
ATOM      5  N   UNL     1      -5.512  12.947  23.223  0.00  0.00    +0.000 NA
ATOM      6  N   UNL     1      -4.880  13.671  24.217  0.00  0.00    +0.000 N 
ATOM      7  C   UNL     1      -3.549  14.063  24.235  0.00  0.00    +0.000 A 
ATOM      8  O   UNL     1      -3.064  14.659  25.192  0.00  0.00    +0.000 OA
ATOM      9  C   UNL     1      -2.840  13.713  23.011  0.00  0.00    +0.000 A 
ATOM     10  N   UNL     1      -1.551  13.945  22.752  0.00  0.00    +0.000 NA
ATOM     11  N   UNL     1      -1.407  13.597  21.448  0.00  0.00    +0.000 N 
ATOM     12  H   UNL     1      -5.063  11.983  20.225  0.00  0.00    +0.000 HD
ATOM     13  H   UNL     1      -6.438  11.849  21.215  0.00  0.00    +0.000 HD
ATOM     14  H   UNL     1      -5.433  13.889  25.038  0.00  0.00    +0.000 HD
ENDROOT
BRANCH   1  17
ATOM     15  C   UNL     1      -0.576  10.465  19.753  0.00  0.00    +0.000 C 
ATOM     16  C   UNL     1      -1.766  11.153  19.185  0.00  0.00    +0.000 A 
ATOM     17  C   UNL     1      -2.580  12.164  19.721  0.00  0.00    +0.000 A 
ATOM     18  O   UNL     1      -3.615  12.387  18.837  0.00  0.00    +0.000 OA
ATOM     19  C   UNL     1      -3.468  11.563  17.768  0.00  0.00    +0.000 A 
ATOM     20  C   UNL     1      -4.349  11.457  16.695  0.00  0.00    +0.000 A 
ATOM     21  C   UNL     1      -3.989  10.559  15.683  0.00  0.00    +0.000 A 
ATOM     22  C   UNL     1      -2.800   9.829  15.753  0.00  0.00    +0.000 A 
ATOM     23  C   UNL     1      -1.949   9.949  16.858  0.00  0.00    +0.000 A 
ATOM     24  C   UNL     1      -2.310  10.824  17.899  0.00  0.00    +0.000 A 
ENDBRANCH   1  17
BRANCH  11  25
ATOM     25  C   UNL     1      -0.203  13.963  20.787  0.00  0.00    +0.000 A 
ATOM     26  C   UNL     1       1.002  13.393  21.227  0.00  0.00    +0.000 A 
ATOM     27  C   UNL     1       2.177  13.612  20.508  0.00  0.00    +0.000 A 
ATOM     28  C   UNL     1       2.162  14.439  19.385  0.00  0.00    +0.000 A 
ATOM     29  C   UNL     1       0.976  15.059  18.985  0.00  0.00    +0.000 A 
ATOM     30  C   UNL     1      -0.210  14.823  19.683  0.00  0.00    +0.000 A 
ENDBRANCH  11  25
TORSDOF 2
ENDMDL
MODEL 4
REMARK VINA RESULT:      -7.3      8.124     10.335
REMARK  Name = 
REMARK  3 active torsions:
REMARK  status: ('A' for Active; 'I' for Inactive)
REMARK    1  A    between atoms: C_1  and  C_2
REMARK    2  A    between atoms: C_3  and  C_4
REMARK    3  A    between atoms: N_14  and  C_15
REMARK                            x       y       z     vdW  Elec       q    Type
REMARK                         _______ _______ _______ _____ _____    ______ ____
ROOT
ATOM      1  C   UNL     1      -1.454  13.491  21.748  0.00  0.00    +0.000 A 
ATOM      2  C   UNL     1      -2.251  13.688  22.873  0.00  0.00    +0.000 A 
ATOM      3  C   UNL     1      -3.540  13.221  23.333  0.00  0.00    +0.000 A 
ATOM      4  N   UNL     1      -4.208  12.344  22.547  0.00  0.00    +0.000 N 
ATOM      5  N   UNL     1      -4.033  13.631  24.468  0.00  0.00    +0.000 NA
ATOM      6  N   UNL     1      -3.301  14.496  25.261  0.00  0.00    +0.000 N 
ATOM      7  C   UNL     1      -2.019  14.962  25.011  0.00  0.00    +0.000 A 
ATOM      8  O   UNL     1      -1.429  15.688  25.805  0.00  0.00    +0.000 OA
ATOM      9  C   UNL     1      -1.497  14.517  23.725  0.00  0.00    +0.000 A 
ATOM     10  N   UNL     1      -0.289  14.791  23.226  0.00  0.00    +0.000 NA
ATOM     11  N   UNL     1      -0.335  14.307  21.959  0.00  0.00    +0.000 N 
ATOM     12  H   UNL     1      -4.013  12.363  21.551  0.00  0.00    +0.000 HD
ATOM     13  H   UNL     1      -5.193  12.264  22.771  0.00  0.00    +0.000 HD
ATOM     14  H   UNL     1      -3.726  14.774  26.138  0.00  0.00    +0.000 HD
ENDROOT
BRANCH   1  17
ATOM     15  C   UNL     1       0.391  10.995  20.528  0.00  0.00    +0.000 C 
ATOM     16  C   UNL     1      -0.897  11.583  20.073  0.00  0.00    +0.000 A 
ATOM     17  C   UNL     1      -1.667  12.625  20.613  0.00  0.00    +0.000 A 
ATOM     18  O   UNL     1      -2.828  12.719  19.875  0.00  0.00    +0.000 OA
ATOM     19  C   UNL     1      -2.804  11.784  18.892  0.00  0.00    +0.000 A 
ATOM     20  C   UNL     1      -3.827  11.534  17.981  0.00  0.00    +0.000 A 
ATOM     21  C   UNL     1      -3.580  10.537  17.029  0.00  0.00    +0.000 A 
ATOM     22  C   UNL     1      -2.363   9.852  16.998  0.00  0.00    +0.000 A 
ATOM     23  C   UNL     1      -1.366  10.118  17.944  0.00  0.00    +0.000 A 
ATOM     24  C   UNL     1      -1.608  11.096  18.927  0.00  0.00    +0.000 A 
ENDBRANCH   1  17
BRANCH  11  25
ATOM     25  C   UNL     1       0.712  14.663  21.068  0.00  0.00    +0.000 A 
ATOM     26  C   UNL     1       2.007  14.191  21.335  0.00  0.00    +0.000 A 
ATOM     27  C   UNL     1       3.026  14.395  20.403  0.00  0.00    +0.000 A 
ATOM     28  C   UNL     1       2.769  15.113  19.235  0.00  0.00    +0.000 A 
ATOM     29  C   UNL     1       1.497  15.640  19.002  0.00  0.00    +0.000 A 
ATOM     30  C   UNL     1       0.464  15.416  19.915  0.00  0.00    +0.000 A 
ENDBRANCH  11  25
TORSDOF 2
ENDMDL
MODEL 5
REMARK VINA RESULT:      -7.3      7.915     10.091
REMARK  Name = 
REMARK  3 active torsions:
REMARK  status: ('A' for Active; 'I' for Inactive)
REMARK    1  A    between atoms: C_1  and  C_2
REMARK    2  A    between atoms: C_3  and  C_4
REMARK    3  A    between atoms: N_14  and  C_15
REMARK                            x       y       z     vdW  Elec       q    Type
REMARK                         _______ _______ _______ _____ _____    ______ ____
ROOT
ATOM      1  C   UNL     1      -1.253  13.290  21.293  0.00  0.00    +0.000 A 
ATOM      2  C   UNL     1      -1.953  13.547  22.469  0.00  0.00    +0.000 A 
ATOM      3  C   UNL     1      -3.242  13.185  23.016  0.00  0.00    +0.000 A 
ATOM      4  N   UNL     1      -4.031  12.369  22.279  0.00  0.00    +0.000 N 
ATOM      5  N   UNL     1      -3.622  13.629  24.182  0.00  0.00    +0.000 NA
ATOM      6  N   UNL     1      -2.770  14.428  24.922  0.00  0.00    +0.000 N 
ATOM      7  C   UNL     1      -1.473  14.788  24.585  0.00  0.00    +0.000 A 
ATOM      8  O   UNL     1      -0.773  15.460  25.336  0.00  0.00    +0.000 OA
ATOM      9  C   UNL     1      -1.078  14.308  23.267  0.00  0.00    +0.000 A 
ATOM     10  N   UNL     1       0.112  14.484  22.687  0.00  0.00    +0.000 NA
ATOM     11  N   UNL     1      -0.060  14.011  21.426  0.00  0.00    +0.000 N 
ATOM     12  H   UNL     1      -3.904  12.376  21.272  0.00  0.00    +0.000 HD
ATOM     13  H   UNL     1      -5.002  12.369  22.569  0.00  0.00    +0.000 HD
ATOM     14  H   UNL     1      -3.110  14.736  25.826  0.00  0.00    +0.000 HD
ENDROOT
BRANCH   1  17
ATOM     15  C   UNL     1       0.274  10.633  19.978  0.00  0.00    +0.000 C 
ATOM     16  C   UNL     1      -0.977  11.340  19.597  0.00  0.00    +0.000 A 
ATOM     17  C   UNL     1      -1.613  12.450  20.176  0.00  0.00    +0.000 A 
ATOM     18  O   UNL     1      -2.802  12.654  19.507  0.00  0.00    +0.000 OA
ATOM     19  C   UNL     1      -2.923  11.722  18.528  0.00  0.00    +0.000 A 
ATOM     20  C   UNL     1      -4.017  11.570  17.679  0.00  0.00    +0.000 A 
ATOM     21  C   UNL     1      -3.921  10.556  16.719  0.00  0.00    +0.000 A 
ATOM     22  C   UNL     1      -2.777   9.759  16.620  0.00  0.00    +0.000 A 
ATOM     23  C   UNL     1      -1.707   9.929  17.505  0.00  0.00    +0.000 A 
ATOM     24  C   UNL     1      -1.797  10.924  18.496  0.00  0.00    +0.000 A 
ENDBRANCH   1  17
BRANCH  11  25
ATOM     25  C   UNL     1       0.951  14.285  20.466  0.00  0.00    +0.000 A 
ATOM     26  C   UNL     1       0.687  15.239  19.471  0.00  0.00    +0.000 A 
ATOM     27  C   UNL     1       1.706  15.641  18.607  0.00  0.00    +0.000 A 
ATOM     28  C   UNL     1       2.968  15.056  18.698  0.00  0.00    +0.000 A 
ATOM     29  C   UNL     1       3.212  14.058  19.645  0.00  0.00    +0.000 A 
ATOM     30  C   UNL     1       2.206  13.670  20.532  0.00  0.00    +0.000 A 
ENDBRANCH  11  25
TORSDOF 2
ENDMDL
MODEL 6
REMARK VINA RESULT:      -7.2      8.135     12.222
REMARK  Name = 
REMARK  3 active torsions:
REMARK  status: ('A' for Active; 'I' for Inactive)
REMARK    1  A    between atoms: C_1  and  C_2
REMARK    2  A    between atoms: C_3  and  C_4
REMARK    3  A    between atoms: N_14  and  C_15
REMARK                            x       y       z     vdW  Elec       q    Type
REMARK                         _______ _______ _______ _____ _____    ______ ____
ROOT
ATOM      1  C   UNL     1      -3.810  13.451  22.392  0.00  0.00    +0.000 A 
ATOM      2  C   UNL     1      -3.966  14.467  23.332  0.00  0.00    +0.000 A 
ATOM      3  C   UNL     1      -3.180  15.016  24.415  0.00  0.00    +0.000 A 
ATOM      4  N   UNL     1      -1.954  14.486  24.633  0.00  0.00    +0.000 N 
ATOM      5  N   UNL     1      -3.643  15.990  25.149  0.00  0.00    +0.000 NA
ATOM      6  N   UNL     1      -4.884  16.530  24.868  0.00  0.00    +0.000 N 
ATOM      7  C   UNL     1      -5.717  16.183  23.815  0.00  0.00    +0.000 A 
ATOM      8  O   UNL     1      -6.782  16.761  23.617  0.00  0.00    +0.000 OA
ATOM      9  C   UNL     1      -5.198  15.075  23.024  0.00  0.00    +0.000 A 
ATOM     10  N   UNL     1      -5.771  14.540  21.943  0.00  0.00    +0.000 NA
ATOM     11  N   UNL     1      -5.009  13.451  21.668  0.00  0.00    +0.000 N 
ATOM     12  H   UNL     1      -1.798  13.526  24.344  0.00  0.00    +0.000 HD
ATOM     13  H   UNL     1      -1.570  14.708  25.544  0.00  0.00    +0.000 HD
ATOM     14  H   UNL     1      -5.190  17.292  25.462  0.00  0.00    +0.000 HD
ENDROOT
BRANCH   1  17
ATOM     15  C   UNL     1      -1.543  13.456  19.946  0.00  0.00    +0.000 C 
ATOM     16  C   UNL     1      -1.723  12.564  21.122  0.00  0.00    +0.000 A 
ATOM     17  C   UNL     1      -2.677  12.590  22.152  0.00  0.00    +0.000 A 
ATOM     18  O   UNL     1      -2.348  11.604  23.059  0.00  0.00    +0.000 OA
ATOM     19  C   UNL     1      -1.235  10.959  22.626  0.00  0.00    +0.000 A 
ATOM     20  C   UNL     1      -0.568   9.942  23.304  0.00  0.00    +0.000 A 
ATOM     21  C   UNL     1       0.549   9.397  22.660  0.00  0.00    +0.000 A 
ATOM     22  C   UNL     1       0.951   9.848  21.400  0.00  0.00    +0.000 A 
ATOM     23  C   UNL     1       0.266  10.887  20.760  0.00  0.00    +0.000 A 
ATOM     24  C   UNL     1      -0.842  11.468  21.404  0.00  0.00    +0.000 A 
ENDBRANCH   1  17
BRANCH  11  25
ATOM     25  C   UNL     1      -5.499  12.513  20.720  0.00  0.00    +0.000 A 
ATOM     26  C   UNL     1      -6.609  11.727  21.069  0.00  0.00    +0.000 A 
ATOM     27  C   UNL     1      -7.208  10.908  20.111  0.00  0.00    +0.000 A 
ATOM     28  C   UNL     1      -6.672  10.831  18.827  0.00  0.00    +0.000 A 
ATOM     29  C   UNL     1      -5.528  11.563  18.499  0.00  0.00    +0.000 A 
ATOM     30  C   UNL     1      -4.939  12.407  19.443  0.00  0.00    +0.000 A 
ENDBRANCH  11  25
TORSDOF 2
ENDMDL
MODEL 7
REMARK VINA RESULT:      -7.1      8.186     10.361
REMARK  Name = 
REMARK  3 active torsions:
REMARK  status: ('A' for Active; 'I' for Inactive)
REMARK    1  A    between atoms: C_1  and  C_2
REMARK    2  A    between atoms: C_3  and  C_4
REMARK    3  A    between atoms: N_14  and  C_15
REMARK                            x       y       z     vdW  Elec       q    Type
REMARK                         _______ _______ _______ _____ _____    ______ ____
ROOT
ATOM      1  C   UNL     1      -3.194  12.487  20.193  0.00  0.00    +0.000 A 
ATOM      2  C   UNL     1      -4.109  12.663  21.227  0.00  0.00    +0.000 A 
ATOM      3  C   UNL     1      -4.064  13.153  22.588  0.00  0.00    +0.000 A 
ATOM      4  N   UNL     1      -2.874  13.599  23.056  0.00  0.00    +0.000 N 
ATOM      5  N   UNL     1      -5.136  13.165  23.329  0.00  0.00    +0.000 NA
ATOM      6  N   UNL     1      -6.340  12.739  22.800  0.00  0.00    +0.000 N 
ATOM      7  C   UNL     1      -6.571  12.331  21.494  0.00  0.00    +0.000 A 
ATOM      8  O   UNL     1      -7.693  12.020  21.103  0.00  0.00    +0.000 OA
ATOM      9  C   UNL     1      -5.357  12.295  20.690  0.00  0.00    +0.000 A 
ATOM     10  N   UNL     1      -5.274  11.962  19.400  0.00  0.00    +0.000 NA
ATOM     11  N   UNL     1      -3.940  11.918  19.153  0.00  0.00    +0.000 N 
ATOM     12  H   UNL     1      -2.032  13.218  22.637  0.00  0.00    +0.000 HD
ATOM     13  H   UNL     1      -2.834  13.669  24.066  0.00  0.00    +0.000 HD
ATOM     14  H   UNL     1      -7.145  12.781  23.415  0.00  0.00    +0.000 HD
ENDROOT
BRANCH   1  17
ATOM     15  C   UNL     1      -0.498  10.834  21.253  0.00  0.00    +0.000 C 
ATOM     16  C   UNL     1      -0.647  12.159  20.593  0.00  0.00    +0.000 A 
ATOM     17  C   UNL     1      -1.793  12.830  20.138  0.00  0.00    +0.000 A 
ATOM     18  O   UNL     1      -1.384  13.986  19.508  0.00  0.00    +0.000 OA
ATOM     19  C   UNL     1      -0.030  14.065  19.563  0.00  0.00    +0.000 A 
ATOM     20  C   UNL     1       0.752  15.061  18.984  0.00  0.00    +0.000 A 
ATOM     21  C   UNL     1       2.134  14.961  19.187  0.00  0.00    +0.000 A 
ATOM     22  C   UNL     1       2.680  13.923  19.946  0.00  0.00    +0.000 A 
ATOM     23  C   UNL     1       1.862  12.930  20.496  0.00  0.00    +0.000 A 
ATOM     24  C   UNL     1       0.474  12.996  20.277  0.00  0.00    +0.000 A 
ENDBRANCH   1  17
BRANCH  11  25
ATOM     25  C   UNL     1      -3.505  11.344  17.928  0.00  0.00    +0.000 A 
ATOM     26  C   UNL     1      -2.398  10.481  17.950  0.00  0.00    +0.000 A 
ATOM     27  C   UNL     1      -2.038   9.784  16.797  0.00  0.00    +0.000 A 
ATOM     28  C   UNL     1      -2.745   9.985  15.612  0.00  0.00    +0.000 A 
ATOM     29  C   UNL     1      -3.805  10.894  15.573  0.00  0.00    +0.000 A 
ATOM     30  C   UNL     1      -4.190  11.575  16.731  0.00  0.00    +0.000 A 
ENDBRANCH  11  25
TORSDOF 2
ENDMDL
MODEL 8
REMARK VINA RESULT:      -7.1      7.432     10.664
REMARK  Name = 
REMARK  3 active torsions:
REMARK  status: ('A' for Active; 'I' for Inactive)
REMARK    1  A    between atoms: C_1  and  C_2
REMARK    2  A    between atoms: C_3  and  C_4
REMARK    3  A    between atoms: N_14  and  C_15
REMARK                            x       y       z     vdW  Elec       q    Type
REMARK                         _______ _______ _______ _____ _____    ______ ____
ROOT
ATOM      1  C   UNL     1      -1.809  13.495  21.147  0.00  0.00    +0.000 A 
ATOM      2  C   UNL     1      -1.487  14.835  21.343  0.00  0.00    +0.000 A 
ATOM      3  C   UNL     1      -2.038  16.111  20.942  0.00  0.00    +0.000 A 
ATOM      4  N   UNL     1      -3.173  16.101  20.204  0.00  0.00    +0.000 N 
ATOM      5  N   UNL     1      -1.459  17.227  21.286  0.00  0.00    +0.000 NA
ATOM      6  N   UNL     1      -0.324  17.196  22.074  0.00  0.00    +0.000 N 
ATOM      7  C   UNL     1       0.275  16.068  22.617  0.00  0.00    +0.000 A 
ATOM      8  O   UNL     1       1.255  16.147  23.352  0.00  0.00    +0.000 OA
ATOM      9  C   UNL     1      -0.367  14.830  22.198  0.00  0.00    +0.000 A 
ATOM     10  N   UNL     1      -0.024  13.595  22.573  0.00  0.00    +0.000 NA
ATOM     11  N   UNL     1      -0.794  12.787  21.801  0.00  0.00    +0.000 N 
ATOM     12  H   UNL     1      -3.358  15.280  19.637  0.00  0.00    +0.000 HD
ATOM     13  H   UNL     1      -3.360  16.977  19.731  0.00  0.00    +0.000 HD
ATOM     14  H   UNL     1       0.080  18.092  22.323  0.00  0.00    +0.000 HD
ENDROOT
BRANCH   1  17
ATOM     15  C   UNL     1      -2.001  11.816  18.272  0.00  0.00    +0.000 C 
ATOM     16  C   UNL     1      -3.046  12.221  19.249  0.00  0.00    +0.000 A 
ATOM     17  C   UNL     1      -2.941  12.915  20.465  0.00  0.00    +0.000 A 
ATOM     18  O   UNL     1      -4.194  12.949  21.042  0.00  0.00    +0.000 OA
ATOM     19  C   UNL     1      -5.073  12.314  20.227  0.00  0.00    +0.000 A 
ATOM     20  C   UNL     1      -6.422  12.094  20.498  0.00  0.00    +0.000 A 
ATOM     21  C   UNL     1      -7.156  11.439  19.502  0.00  0.00    +0.000 A 
ATOM     22  C   UNL     1      -6.558  11.048  18.301  0.00  0.00    +0.000 A 
ATOM     23  C   UNL     1      -5.194  11.269  18.075  0.00  0.00    +0.000 A 
ATOM     24  C   UNL     1      -4.434  11.900  19.076  0.00  0.00    +0.000 A 
ENDBRANCH   1  17
BRANCH  11  25
ATOM     25  C   UNL     1      -0.490  11.399  21.775  0.00  0.00    +0.000 A 
ATOM     26  C   UNL     1       0.248  10.896  20.692  0.00  0.00    +0.000 A 
ATOM     27  C   UNL     1       0.693   9.574  20.709  0.00  0.00    +0.000 A 
ATOM     28  C   UNL     1       0.358   8.740  21.775  0.00  0.00    +0.000 A 
ATOM     29  C   UNL     1      -0.432   9.222  22.821  0.00  0.00    +0.000 A 
ATOM     30  C   UNL     1      -0.857  10.552  22.826  0.00  0.00    +0.000 A 
ENDBRANCH  11  25
TORSDOF 2
ENDMDL
MODEL 9
REMARK VINA RESULT:      -7.1      6.957      9.825
REMARK  Name = 
REMARK  3 active torsions:
REMARK  status: ('A' for Active; 'I' for Inactive)
REMARK    1  A    between atoms: C_1  and  C_2
REMARK    2  A    between atoms: C_3  and  C_4
REMARK    3  A    between atoms: N_14  and  C_15
REMARK                            x       y       z     vdW  Elec       q    Type
REMARK                         _______ _______ _______ _____ _____    ______ ____
ROOT
ATOM      1  C   UNL     1       0.645  12.910  19.959  0.00  0.00    +0.000 A 
ATOM      2  C   UNL     1       1.888  13.464  19.662  0.00  0.00    +0.000 A 
ATOM      3  C   UNL     1       2.786  13.465  18.529  0.00  0.00    +0.000 A 
ATOM      4  N   UNL     1       2.392  12.804  17.414  0.00  0.00    +0.000 N 
ATOM      5  N   UNL     1       3.931  14.086  18.584  0.00  0.00    +0.000 NA
ATOM      6  N   UNL     1       4.278  14.783  19.726  0.00  0.00    +0.000 N 
ATOM      7  C   UNL     1       3.496  14.958  20.858  0.00  0.00    +0.000 A 
ATOM      8  O   UNL     1       3.873  15.642  21.805  0.00  0.00    +0.000 OA
ATOM      9  C   UNL     1       2.234  14.233  20.790  0.00  0.00    +0.000 A 
ATOM     10  N   UNL     1       1.275  14.228  21.719  0.00  0.00    +0.000 NA
ATOM     11  N   UNL     1       0.394  13.293  21.283  0.00  0.00    +0.000 N 
ATOM     12  H   UNL     1       1.738  12.036  17.530  0.00  0.00    +0.000 HD
ATOM     13  H   UNL     1       3.147  12.606  16.769  0.00  0.00    +0.000 HD
ATOM     14  H   UNL     1       5.174  15.257  19.711  0.00  0.00    +0.000 HD
ENDROOT
BRANCH   1  17
ATOM     15  C   UNL     1       0.991   9.875  18.621  0.00  0.00    +0.000 C 
ATOM     16  C   UNL     1      -0.108  10.873  18.531  0.00  0.00    +0.000 A 
ATOM     17  C   UNL     1      -0.241  12.141  19.118  0.00  0.00    +0.000 A 
ATOM     18  O   UNL     1      -1.494  12.624  18.804  0.00  0.00    +0.000 OA
ATOM     19  C   UNL     1      -2.139  11.710  18.036  0.00  0.00    +0.000 A 
ATOM     20  C   UNL     1      -3.448  11.815  17.572  0.00  0.00    +0.000 A 
ATOM     21  C   UNL     1      -3.909  10.764  16.770  0.00  0.00    +0.000 A 
ATOM     22  C   UNL     1      -3.082   9.684  16.448  0.00  0.00    +0.000 A 
ATOM     23  C   UNL     1      -1.779   9.604  16.951  0.00  0.00    +0.000 A 
ATOM     24  C   UNL     1      -1.309  10.637  17.783  0.00  0.00    +0.000 A 
ENDBRANCH   1  17
BRANCH  11  25
ATOM     25  C   UNL     1      -0.622  12.861  22.178  0.00  0.00    +0.000 A 
ATOM     26  C   UNL     1      -1.533  13.813  22.664  0.00  0.00    +0.000 A 
ATOM     27  C   UNL     1      -2.630  13.400  23.421  0.00  0.00    +0.000 A 
ATOM     28  C   UNL     1      -2.790  12.051  23.738  0.00  0.00    +0.000 A 
ATOM     29  C   UNL     1      -1.847  11.113  23.309  0.00  0.00    +0.000 A 
ATOM     30  C   UNL     1      -0.762  11.514  22.527  0.00  0.00    +0.000 A 
ENDBRANCH  11  25
TORSDOF 2
ENDMDL
