MODEL 1
REMARK VINA RESULT:      -8.1      0.000      0.000
REMARK  Name = 
REMARK  11 active torsions:
REMARK  status: ('A' for Active; 'I' for Inactive)
REMARK    1  A    between atoms: C_1  and  C_2
REMARK    2  A    between atoms: C_5  and  N_6
REMARK    3  A    between atoms: N_9  and  C_10
REMARK    4  A    between atoms: C_10  and  C_11
REMARK    5  A    between atoms: C_11  and  C_12
REMARK    6  A    between atoms: C_12  and  N_13
REMARK    7  A    between atoms: N_13  and  C_14
REMARK    8  A    between atoms: C_19  and  C_20
REMARK    9  A    between atoms: N_22  and  C_23
REMARK   10  A    between atoms: N_22  and  C_24
REMARK   11  A    between atoms: C_27  and  N_28
REMARK                            x       y       z     vdW  Elec       q    Type
REMARK                         _______ _______ _______ _____ _____    ______ ____
ROOT
ATOM      1  N   UNL     1       4.333   3.997  16.804  0.00  0.00    +0.000 N 
ATOM      2  C   UNL     1       3.468   5.058  17.351  0.00  0.00    +0.000 C 
ATOM      3  C   UNL     1       2.088   4.454  17.698  0.00  0.00    +0.000 C 
ATOM      4  N   UNL     1       2.116   3.283  18.607  0.00  0.00    +0.000 NA
ATOM      5  C   UNL     1       3.069   2.284  18.067  0.00  0.00    +0.000 C 
ATOM      6  C   UNL     1       4.476   2.854  17.729  0.00  0.00    +0.000 C 
ENDROOT
BRANCH   1  11
ATOM      7  C   UNL     1       7.742   4.744  12.215  0.00  0.00    +0.000 C 
ATOM      8  C   UNL     1       6.834   4.594  13.400  0.00  0.00    +0.000 A 
ATOM      9  C   UNL     1       5.684   3.822  13.338  0.00  0.00    +0.000 A 
ATOM     10  C   UNL     1       4.875   3.657  14.473  0.00  0.00    +0.000 A 
ATOM     11  C   UNL     1       5.184   4.221  15.731  0.00  0.00    +0.000 A 
ATOM     12  C   UNL     1       6.373   5.002  15.770  0.00  0.00    +0.000 A 
ATOM     13  C   UNL     1       7.154   5.209  14.608  0.00  0.00    +0.000 A 
BRANCH  12  14
ATOM     14  N   UNL     1       6.909   5.535  16.971  0.00  0.00    +0.000 N 
ATOM     15  C   UNL     1       7.401   4.808  18.040  0.00  0.00    +0.000 A 
ATOM     16  C   UNL     1       8.032   5.677  18.906  0.00  0.00    +0.000 A 
ATOM     17  C   UNL     1       7.814   6.984  18.422  0.00  0.00    +0.000 A 
ATOM     18  C   UNL     1       7.023   6.867  17.301  0.00  0.00    +0.000 A 
ENDBRANCH  12  14
ENDBRANCH   1  11
BRANCH   4  19
ATOM     19  C   UNL     1       2.447   3.604  19.997  0.00  0.00    +0.000 C 
BRANCH  19  20
ATOM     20  C   UNL     1       1.599   4.730  20.585  0.00  0.00    +0.000 C 
BRANCH  20  21
ATOM     21  C   UNL     1       2.429   5.989  20.816  0.00  0.00    +0.000 C 
BRANCH  21  22
ATOM     22  N   UNL     1       1.539   7.121  21.029  0.00  0.00    +0.000 N 
ATOM     23  H   UNL     1       1.702   7.628  21.904  0.00  0.00    +0.000 HD
BRANCH  22  24
ATOM     24  C   UNL     1       1.525   8.062  19.988  0.00  0.00    +0.000 A 
ATOM     25  N   UNL     1       2.390   7.872  18.958  0.00  0.00    +0.000 NA
ATOM     26  C   UNL     1       2.421   8.769  17.957  0.00  0.00    +0.000 A 
ATOM     27  C   UNL     1       1.584   9.861  17.897  0.00  0.00    +0.000 A 
ATOM     28  C   UNL     1       0.692  10.064  18.947  0.00  0.00    +0.000 A 
ATOM     29  C   UNL     1       0.645   9.164  20.014  0.00  0.00    +0.000 A 
BRANCH  29  30
ATOM     30  C   UNL     1      -0.201   9.429  21.214  0.00  0.00    +0.000 C 
ATOM     31  O   UNL     1      -0.713   8.446  21.759  0.00  0.00    +0.000 OA
ATOM     32  N   UNL     1      -0.338  10.717  21.756  0.00  0.00    +0.000 N 
ATOM     33  C   UNL     1       0.177  11.962  21.201  0.00  0.00    +0.000 C 
ATOM     34  C   UNL     1      -0.912  10.823  23.091  0.00  0.00    +0.000 C 
ENDBRANCH  29  30
ENDBRANCH  22  24
ENDBRANCH  21  22
ENDBRANCH  20  21
ENDBRANCH  19  20
ENDBRANCH   4  19
TORSDOF 8
ENDMDL
MODEL 2
REMARK VINA RESULT:      -8.0      4.747      7.618
REMARK  Name = 
REMARK  11 active torsions:
REMARK  status: ('A' for Active; 'I' for Inactive)
REMARK    1  A    between atoms: C_1  and  C_2
REMARK    2  A    between atoms: C_5  and  N_6
REMARK    3  A    between atoms: N_9  and  C_10
REMARK    4  A    between atoms: C_10  and  C_11
REMARK    5  A    between atoms: C_11  and  C_12
REMARK    6  A    between atoms: C_12  and  N_13
REMARK    7  A    between atoms: N_13  and  C_14
REMARK    8  A    between atoms: C_19  and  C_20
REMARK    9  A    between atoms: N_22  and  C_23
REMARK   10  A    between atoms: N_22  and  C_24
REMARK   11  A    between atoms: C_27  and  N_28
REMARK                            x       y       z     vdW  Elec       q    Type
REMARK                         _______ _______ _______ _____ _____    ______ ____
ROOT
ATOM      1  N   UNL     1       4.976   5.306  17.867  0.00  0.00    +0.000 N 
ATOM      2  C   UNL     1       5.755   5.890  18.975  0.00  0.00    +0.000 C 
ATOM      3  C   UNL     1       7.259   5.821  18.625  0.00  0.00    +0.000 C 
ATOM      4  N   UNL     1       7.640   6.442  17.333  0.00  0.00    +0.000 NA
ATOM      5  C   UNL     1       6.769   5.896  16.266  0.00  0.00    +0.000 C 
ATOM      6  C   UNL     1       5.247   5.971  16.577  0.00  0.00    +0.000 C 
ENDROOT
BRANCH   1  11
ATOM      7  C   UNL     1       0.512   1.745  18.664  0.00  0.00    +0.000 C 
ATOM      8  C   UNL     1       1.684   2.667  18.505  0.00  0.00    +0.000 A 
ATOM      9  C   UNL     1       2.896   2.220  17.999  0.00  0.00    +0.000 A 
ATOM     10  C   UNL     1       3.963   3.111  17.814  0.00  0.00    +0.000 A 
ATOM     11  C   UNL     1       3.873   4.494  18.090  0.00  0.00    +0.000 A 
ATOM     12  C   UNL     1       2.618   4.930  18.602  0.00  0.00    +0.000 A 
ATOM     13  C   UNL     1       1.564   4.015  18.838  0.00  0.00    +0.000 A 
BRANCH  12  14
ATOM     14  N   UNL     1       2.302   6.296  18.813  0.00  0.00    +0.000 N 
ATOM     15  C   UNL     1       2.010   6.890  20.029  0.00  0.00    +0.000 A 
ATOM     16  C   UNL     1       1.984   8.258  19.852  0.00  0.00    +0.000 A 
ATOM     17  C   UNL     1       2.138   8.506  18.472  0.00  0.00    +0.000 A 
ATOM     18  C   UNL     1       2.212   7.278  17.852  0.00  0.00    +0.000 A 
ENDBRANCH  12  14
ENDBRANCH   1  11
BRANCH   4  19
ATOM     19  C   UNL     1       7.594   7.906  17.331  0.00  0.00    +0.000 C 
BRANCH  19  20
ATOM     20  C   UNL     1       8.433   8.549  18.433  0.00  0.00    +0.000 C 
BRANCH  20  21
ATOM     21  C   UNL     1       8.757  10.004  18.109  0.00  0.00    +0.000 C 
BRANCH  21  22
ATOM     22  N   UNL     1       9.179  10.686  19.324  0.00  0.00    +0.000 N 
ATOM     23  H   UNL     1       9.538  10.066  20.056  0.00  0.00    +0.000 HD
BRANCH  22  24
ATOM     24  C   UNL     1      10.125  11.705  19.128  0.00  0.00    +0.000 A 
ATOM     25  N   UNL     1      11.002  11.558  18.102  0.00  0.00    +0.000 NA
ATOM     26  C   UNL     1      11.938  12.502  17.902  0.00  0.00    +0.000 A 
ATOM     27  C   UNL     1      12.031  13.644  18.665  0.00  0.00    +0.000 A 
ATOM     28  C   UNL     1      11.136  13.805  19.719  0.00  0.00    +0.000 A 
ATOM     29  C   UNL     1      10.162  12.836  19.969  0.00  0.00    +0.000 A 
BRANCH  29  30
ATOM     30  C   UNL     1       9.280  12.916  21.170  0.00  0.00    +0.000 C 
ATOM     31  O   UNL     1       9.594  12.213  22.136  0.00  0.00    +0.000 OA
ATOM     32  N   UNL     1       8.200  13.811  21.240  0.00  0.00    +0.000 N 
ATOM     33  C   UNL     1       7.699  14.666  20.173  0.00  0.00    +0.000 C 
ATOM     34  C   UNL     1       7.607  14.041  22.551  0.00  0.00    +0.000 C 
ENDBRANCH  29  30
ENDBRANCH  22  24
ENDBRANCH  21  22
ENDBRANCH  20  21
ENDBRANCH  19  20
ENDBRANCH   4  19
TORSDOF 8
ENDMDL
MODEL 3
REMARK VINA RESULT:      -7.7      3.783     10.503
REMARK  Name = 
REMARK  11 active torsions:
REMARK  status: ('A' for Active; 'I' for Inactive)
REMARK    1  A    between atoms: C_1  and  C_2
REMARK    2  A    between atoms: C_5  and  N_6
REMARK    3  A    between atoms: N_9  and  C_10
REMARK    4  A    between atoms: C_10  and  C_11
REMARK    5  A    between atoms: C_11  and  C_12
REMARK    6  A    between atoms: C_12  and  N_13
REMARK    7  A    between atoms: N_13  and  C_14
REMARK    8  A    between atoms: C_19  and  C_20
REMARK    9  A    between atoms: N_22  and  C_23
REMARK   10  A    between atoms: N_22  and  C_24
REMARK   11  A    between atoms: C_27  and  N_28
REMARK                            x       y       z     vdW  Elec       q    Type
REMARK                         _______ _______ _______ _____ _____    ______ ____
ROOT
ATOM      1  N   UNL     1      -2.056  11.542  18.812  0.00  0.00    +0.000 N 
ATOM      2  C   UNL     1      -1.000  12.398  18.243  0.00  0.00    +0.000 C 
ATOM      3  C   UNL     1       0.206  12.423  19.210  0.00  0.00    +0.000 C 
ATOM      4  N   UNL     1       0.753  11.095  19.579  0.00  0.00    +0.000 NA
ATOM      5  C   UNL     1      -0.359  10.238  20.056  0.00  0.00    +0.000 C 
ATOM      6  C   UNL     1      -1.580  10.173  19.095  0.00  0.00    +0.000 C 
ENDROOT
BRANCH   1  11
ATOM      7  C   UNL     1      -7.634  12.893  18.261  0.00  0.00    +0.000 C 
ATOM      8  C   UNL     1      -6.196  12.502  18.431  0.00  0.00    +0.000 A 
ATOM      9  C   UNL     1      -5.502  11.839  17.430  0.00  0.00    +0.000 A 
ATOM     10  C   UNL     1      -4.144  11.526  17.593  0.00  0.00    +0.000 A 
ATOM     11  C   UNL     1      -3.400  11.882  18.740  0.00  0.00    +0.000 A 
ATOM     12  C   UNL     1      -4.132  12.568  19.749  0.00  0.00    +0.000 A 
ATOM     13  C   UNL     1      -5.515  12.832  19.601  0.00  0.00    +0.000 A 
BRANCH  12  14
ATOM     14  N   UNL     1      -3.525  13.116  20.908  0.00  0.00    +0.000 N 
ATOM     15  C   UNL     1      -2.948  14.370  21.013  0.00  0.00    +0.000 A 
ATOM     16  C   UNL     1      -2.677  14.616  22.344  0.00  0.00    +0.000 A 
ATOM     17  C   UNL     1      -2.977  13.437  23.058  0.00  0.00    +0.000 A 
ATOM     18  C   UNL     1      -3.382  12.502  22.132  0.00  0.00    +0.000 A 
ENDBRANCH  12  14
ENDBRANCH   1  11
BRANCH   4  19
ATOM     19  C   UNL     1       1.488  10.425  18.505  0.00  0.00    +0.000 C 
BRANCH  19  20
ATOM     20  C   UNL     1       1.513   8.903  18.634  0.00  0.00    +0.000 C 
BRANCH  20  21
ATOM     21  C   UNL     1       2.526   8.280  17.678  0.00  0.00    +0.000 C 
BRANCH  21  22
ATOM     22  N   UNL     1       3.345   7.320  18.402  0.00  0.00    +0.000 N 
ATOM     23  H   UNL     1       3.196   7.314  19.416  0.00  0.00    +0.000 HD
BRANCH  22  24
ATOM     24  C   UNL     1       3.238   5.995  17.949  0.00  0.00    +0.000 A 
ATOM     25  N   UNL     1       2.107   5.313  18.266  0.00  0.00    +0.000 NA
ATOM     26  C   UNL     1       1.982   4.034  17.871  0.00  0.00    +0.000 A 
ATOM     27  C   UNL     1       2.932   3.382  17.118  0.00  0.00    +0.000 A 
ATOM     28  C   UNL     1       4.095   4.072  16.786  0.00  0.00    +0.000 A 
ATOM     29  C   UNL     1       4.268   5.397  17.196  0.00  0.00    +0.000 A 
BRANCH  29  30
ATOM     30  C   UNL     1       5.557   6.114  16.973  0.00  0.00    +0.000 C 
ATOM     31  O   UNL     1       5.652   6.774  15.933  0.00  0.00    +0.000 OA
ATOM     32  N   UNL     1       6.581   6.119  17.935  0.00  0.00    +0.000 N 
ATOM     33  C   UNL     1       6.619   5.363  19.179  0.00  0.00    +0.000 C 
ATOM     34  C   UNL     1       7.650   7.094  17.768  0.00  0.00    +0.000 C 
ENDBRANCH  29  30
ENDBRANCH  22  24
ENDBRANCH  21  22
ENDBRANCH  20  21
ENDBRANCH  19  20
ENDBRANCH   4  19
TORSDOF 8
ENDMDL
MODEL 4
REMARK VINA RESULT:      -7.7      2.208      4.581
REMARK  Name = 
REMARK  11 active torsions:
REMARK  status: ('A' for Active; 'I' for Inactive)
REMARK    1  A    between atoms: C_1  and  C_2
REMARK    2  A    between atoms: C_5  and  N_6
REMARK    3  A    between atoms: N_9  and  C_10
REMARK    4  A    between atoms: C_10  and  C_11
REMARK    5  A    between atoms: C_11  and  C_12
REMARK    6  A    between atoms: C_12  and  N_13
REMARK    7  A    between atoms: N_13  and  C_14
REMARK    8  A    between atoms: C_19  and  C_20
REMARK    9  A    between atoms: N_22  and  C_23
REMARK   10  A    between atoms: N_22  and  C_24
REMARK   11  A    between atoms: C_27  and  N_28
REMARK                            x       y       z     vdW  Elec       q    Type
REMARK                         _______ _______ _______ _____ _____    ______ ____
ROOT
ATOM      1  N   UNL     1       3.209   6.604  18.469  0.00  0.00    +0.000 N 
ATOM      2  C   UNL     1       2.759   7.990  18.244  0.00  0.00    +0.000 C 
ATOM      3  C   UNL     1       1.322   8.147  18.791  0.00  0.00    +0.000 C 
ATOM      4  N   UNL     1       1.134   7.760  20.210  0.00  0.00    +0.000 NA
ATOM      5  C   UNL     1       1.686   6.400  20.410  0.00  0.00    +0.000 C 
ATOM      6  C   UNL     1       3.141   6.213  19.891  0.00  0.00    +0.000 C 
ENDROOT
BRANCH   1  11
ATOM      7  C   UNL     1       6.318   3.924  14.419  0.00  0.00    +0.000 C 
ATOM      8  C   UNL     1       5.544   4.609  15.507  0.00  0.00    +0.000 A 
ATOM      9  C   UNL     1       5.603   5.983  15.684  0.00  0.00    +0.000 A 
ATOM     10  C   UNL     1       4.832   6.607  16.677  0.00  0.00    +0.000 A 
ATOM     11  C   UNL     1       3.942   5.905  17.520  0.00  0.00    +0.000 A 
ATOM     12  C   UNL     1       3.894   4.497  17.313  0.00  0.00    +0.000 A 
ATOM     13  C   UNL     1       4.715   3.869  16.347  0.00  0.00    +0.000 A 
BRANCH  12  14
ATOM     14  N   UNL     1       2.967   3.651  17.974  0.00  0.00    +0.000 N 
ATOM     15  C   UNL     1       3.270   2.679  18.912  0.00  0.00    +0.000 A 
ATOM     16  C   UNL     1       2.093   2.237  19.479  0.00  0.00    +0.000 A 
ATOM     17  C   UNL     1       1.033   2.859  18.787  0.00  0.00    +0.000 A 
ATOM     18  C   UNL     1       1.601   3.627  17.794  0.00  0.00    +0.000 A 
ENDBRANCH  12  14
ENDBRANCH   1  11
BRANCH   4  19
ATOM     19  C   UNL     1       1.720   8.695  21.173  0.00  0.00    +0.000 C 
BRANCH  19  20
ATOM     20  C   UNL     1       0.781   9.064  22.320  0.00  0.00    +0.000 C 
BRANCH  20  21
ATOM     21  C   UNL     1       0.136  10.427  22.095  0.00  0.00    +0.000 C 
BRANCH  21  22
ATOM     22  N   UNL     1      -0.384  10.496  20.738  0.00  0.00    +0.000 N 
ATOM     23  H   UNL     1      -1.368  10.226  20.647  0.00  0.00    +0.000 HD
BRANCH  22  24
ATOM     24  C   UNL     1      -0.225  11.742  20.109  0.00  0.00    +0.000 A 
ATOM     25  N   UNL     1       0.389  12.726  20.814  0.00  0.00    +0.000 NA
ATOM     26  C   UNL     1       0.534  13.939  20.253  0.00  0.00    +0.000 A 
ATOM     27  C   UNL     1       0.126  14.229  18.971  0.00  0.00    +0.000 A 
ATOM     28  C   UNL     1      -0.503  13.227  18.238  0.00  0.00    +0.000 A 
ATOM     29  C   UNL     1      -0.689  11.959  18.796  0.00  0.00    +0.000 A 
BRANCH  29  30
ATOM     30  C   UNL     1      -1.479  10.910  18.088  0.00  0.00    +0.000 C 
ATOM     31  O   UNL     1      -0.836  10.029  17.509  0.00  0.00    +0.000 OA
ATOM     32  N   UNL     1      -2.881  10.868  18.149  0.00  0.00    +0.000 N 
ATOM     33  C   UNL     1      -3.762  11.854  18.760  0.00  0.00    +0.000 C 
ATOM     34  C   UNL     1      -3.533   9.644  17.703  0.00  0.00    +0.000 C 
ENDBRANCH  29  30
ENDBRANCH  22  24
ENDBRANCH  21  22
ENDBRANCH  20  21
ENDBRANCH  19  20
ENDBRANCH   4  19
TORSDOF 8
ENDMDL
MODEL 5
REMARK VINA RESULT:      -7.7      3.541     10.125
REMARK  Name = 
REMARK  11 active torsions:
REMARK  status: ('A' for Active; 'I' for Inactive)
REMARK    1  A    between atoms: C_1  and  C_2
REMARK    2  A    between atoms: C_5  and  N_6
REMARK    3  A    between atoms: N_9  and  C_10
REMARK    4  A    between atoms: C_10  and  C_11
REMARK    5  A    between atoms: C_11  and  C_12
REMARK    6  A    between atoms: C_12  and  N_13
REMARK    7  A    between atoms: N_13  and  C_14
REMARK    8  A    between atoms: C_19  and  C_20
REMARK    9  A    between atoms: N_22  and  C_23
REMARK   10  A    between atoms: N_22  and  C_24
REMARK   11  A    between atoms: C_27  and  N_28
REMARK                            x       y       z     vdW  Elec       q    Type
REMARK                         _______ _______ _______ _____ _____    ______ ____
ROOT
ATOM      1  N   UNL     1      -1.508  11.759  19.284  0.00  0.00    +0.000 N 
ATOM      2  C   UNL     1      -0.725  12.443  18.238  0.00  0.00    +0.000 C 
ATOM      3  C   UNL     1       0.699  12.719  18.773  0.00  0.00    +0.000 C 
ATOM      4  N   UNL     1       1.429  11.531  19.279  0.00  0.00    +0.000 NA
ATOM      5  C   UNL     1       0.568  10.823  20.256  0.00  0.00    +0.000 C 
ATOM      6  C   UNL     1      -0.866  10.510  19.741  0.00  0.00    +0.000 C 
ENDROOT
BRANCH   1  11
ATOM      7  C   UNL     1      -6.977  13.086  20.538  0.00  0.00    +0.000 C 
ATOM      8  C   UNL     1      -5.551  12.783  20.185  0.00  0.00    +0.000 A 
ATOM      9  C   UNL     1      -4.514  13.044  21.069  0.00  0.00    +0.000 A 
ATOM     10  C   UNL     1      -3.193  12.707  20.736  0.00  0.00    +0.000 A 
ATOM     11  C   UNL     1      -2.839  12.067  19.527  0.00  0.00    +0.000 A 
ATOM     12  C   UNL     1      -3.921  11.803  18.641  0.00  0.00    +0.000 A 
ATOM     13  C   UNL     1      -5.244  12.195  18.960  0.00  0.00    +0.000 A 
BRANCH  12  14
ATOM     14  N   UNL     1      -3.776  11.053  17.445  0.00  0.00    +0.000 N 
ATOM     15  C   UNL     1      -4.148  11.459  16.176  0.00  0.00    +0.000 A 
ATOM     16  C   UNL     1      -3.640  10.557  15.263  0.00  0.00    +0.000 A 
ATOM     17  C   UNL     1      -3.051   9.505  15.995  0.00  0.00    +0.000 A 
ATOM     18  C   UNL     1      -3.256   9.783  17.328  0.00  0.00    +0.000 A 
ENDBRANCH  12  14
ENDBRANCH   1  11
BRANCH   4  19
ATOM     19  C   UNL     1       1.880  10.609  18.235  0.00  0.00    +0.000 C 
BRANCH  19  20
ATOM     20  C   UNL     1       1.863   9.143  18.661  0.00  0.00    +0.000 C 
BRANCH  20  21
ATOM     21  C   UNL     1       2.650   8.271  17.688  0.00  0.00    +0.000 C 
BRANCH  21  22
ATOM     22  N   UNL     1       2.600   6.886  18.131  0.00  0.00    +0.000 N 
ATOM     23  H   UNL     1       1.964   6.291  17.592  0.00  0.00    +0.000 HD
BRANCH  22  24
ATOM     24  C   UNL     1       3.845   6.239  18.184  0.00  0.00    +0.000 A 
ATOM     25  N   UNL     1       4.851   6.753  17.430  0.00  0.00    +0.000 NA
ATOM     26  C   UNL     1       6.049   6.143  17.437  0.00  0.00    +0.000 A 
ATOM     27  C   UNL     1       6.327   5.036  18.207  0.00  0.00    +0.000 A 
ATOM     28  C   UNL     1       5.303   4.503  18.985  0.00  0.00    +0.000 A 
ATOM     29  C   UNL     1       4.039   5.098  18.989  0.00  0.00    +0.000 A 
BRANCH  29  30
ATOM     30  C   UNL     1       2.890   4.471  19.704  0.00  0.00    +0.000 C 
ATOM     31  O   UNL     1       2.578   4.965  20.792  0.00  0.00    +0.000 OA
ATOM     32  N   UNL     1       2.138   3.431  19.134  0.00  0.00    +0.000 N 
ATOM     33  C   UNL     1       2.412   2.734  17.884  0.00  0.00    +0.000 C 
ATOM     34  C   UNL     1       0.862   3.109  19.757  0.00  0.00    +0.000 C 
ENDBRANCH  29  30
ENDBRANCH  22  24
ENDBRANCH  21  22
ENDBRANCH  20  21
ENDBRANCH  19  20
ENDBRANCH   4  19
TORSDOF 8
ENDMDL
MODEL 6
REMARK VINA RESULT:      -7.7      3.609     10.411
REMARK  Name = 
REMARK  11 active torsions:
REMARK  status: ('A' for Active; 'I' for Inactive)
REMARK    1  A    between atoms: C_1  and  C_2
REMARK    2  A    between atoms: C_5  and  N_6
REMARK    3  A    between atoms: N_9  and  C_10
REMARK    4  A    between atoms: C_10  and  C_11
REMARK    5  A    between atoms: C_11  and  C_12
REMARK    6  A    between atoms: C_12  and  N_13
REMARK    7  A    between atoms: N_13  and  C_14
REMARK    8  A    between atoms: C_19  and  C_20
REMARK    9  A    between atoms: N_22  and  C_23
REMARK   10  A    between atoms: N_22  and  C_24
REMARK   11  A    between atoms: C_27  and  N_28
REMARK                            x       y       z     vdW  Elec       q    Type
REMARK                         _______ _______ _______ _____ _____    ______ ____
ROOT
ATOM      1  N   UNL     1      -2.005  11.620  18.922  0.00  0.00    +0.000 N 
ATOM      2  C   UNL     1      -1.001  12.332  18.112  0.00  0.00    +0.000 C 
ATOM      3  C   UNL     1       0.282  12.524  18.953  0.00  0.00    +0.000 C 
ATOM      4  N   UNL     1       0.858  11.283  19.526  0.00  0.00    +0.000 NA
ATOM      5  C   UNL     1      -0.209  10.553  20.251  0.00  0.00    +0.000 C 
ATOM      6  C   UNL     1      -1.507  10.323  19.424  0.00  0.00    +0.000 C 
ENDROOT
BRANCH   1  11
ATOM      7  C   UNL     1      -7.595  12.985  18.562  0.00  0.00    +0.000 C 
ATOM      8  C   UNL     1      -6.154  12.589  18.682  0.00  0.00    +0.000 A 
ATOM      9  C   UNL     1      -5.488  11.953  17.645  0.00  0.00    +0.000 A 
ATOM     10  C   UNL     1      -4.126  11.636  17.761  0.00  0.00    +0.000 A 
ATOM     11  C   UNL     1      -3.350  11.962  18.896  0.00  0.00    +0.000 A 
ATOM     12  C   UNL     1      -4.054  12.621  19.943  0.00  0.00    +0.000 A 
ATOM     13  C   UNL     1      -5.440  12.888  19.841  0.00  0.00    +0.000 A 
BRANCH  12  14
ATOM     14  N   UNL     1      -3.414  13.139  21.098  0.00  0.00    +0.000 N 
ATOM     15  C   UNL     1      -2.720  14.333  21.183  0.00  0.00    +0.000 A 
ATOM     16  C   UNL     1      -2.447  14.587  22.511  0.00  0.00    +0.000 A 
ATOM     17  C   UNL     1      -2.871  13.462  23.249  0.00  0.00    +0.000 A 
ATOM     18  C   UNL     1      -3.350  12.546  22.339  0.00  0.00    +0.000 A 
ENDBRANCH  12  14
ENDBRANCH   1  11
BRANCH   4  19
ATOM     19  C   UNL     1       1.500  10.406  18.546  0.00  0.00    +0.000 C 
BRANCH  19  20
ATOM     20  C   UNL     1       1.743   8.987  19.057  0.00  0.00    +0.000 C 
BRANCH  20  21
ATOM     21  C   UNL     1       2.182   8.057  17.930  0.00  0.00    +0.000 C 
BRANCH  21  22
ATOM     22  N   UNL     1       2.744   6.841  18.500  0.00  0.00    +0.000 N 
ATOM     23  H   UNL     1       2.047   6.151  18.797  0.00  0.00    +0.000 HD
BRANCH  22  24
ATOM     24  C   UNL     1       3.673   6.182  17.679  0.00  0.00    +0.000 A 
ATOM     25  N   UNL     1       4.660   6.930  17.122  0.00  0.00    +0.000 NA
ATOM     26  C   UNL     1       5.551   6.336  16.310  0.00  0.00    +0.000 A 
ATOM     27  C   UNL     1       5.542   4.986  16.041  0.00  0.00    +0.000 A 
ATOM     28  C   UNL     1       4.535   4.209  16.608  0.00  0.00    +0.000 A 
ATOM     29  C   UNL     1       3.580   4.795  17.442  0.00  0.00    +0.000 A 
BRANCH  29  30
ATOM     30  C   UNL     1       2.415   4.016  17.951  0.00  0.00    +0.000 C 
ATOM     31  O   UNL     1       1.368   4.093  17.300  0.00  0.00    +0.000 OA
ATOM     32  N   UNL     1       2.520   3.164  19.063  0.00  0.00    +0.000 N 
ATOM     33  C   UNL     1       3.672   3.003  19.939  0.00  0.00    +0.000 C 
ATOM     34  C   UNL     1       1.435   2.217  19.284  0.00  0.00    +0.000 C 
ENDBRANCH  29  30
ENDBRANCH  22  24
ENDBRANCH  21  22
ENDBRANCH  20  21
ENDBRANCH  19  20
ENDBRANCH   4  19
TORSDOF 8
ENDMDL
MODEL 7
REMARK VINA RESULT:      -7.7      2.316      4.666
REMARK  Name = 
REMARK  11 active torsions:
REMARK  status: ('A' for Active; 'I' for Inactive)
REMARK    1  A    between atoms: C_1  and  C_2
REMARK    2  A    between atoms: C_5  and  N_6
REMARK    3  A    between atoms: N_9  and  C_10
REMARK    4  A    between atoms: C_10  and  C_11
REMARK    5  A    between atoms: C_11  and  C_12
REMARK    6  A    between atoms: C_12  and  N_13
REMARK    7  A    between atoms: N_13  and  C_14
REMARK    8  A    between atoms: C_19  and  C_20
REMARK    9  A    between atoms: N_22  and  C_23
REMARK   10  A    between atoms: N_22  and  C_24
REMARK   11  A    between atoms: C_27  and  N_28
REMARK                            x       y       z     vdW  Elec       q    Type
REMARK                         _______ _______ _______ _____ _____    ______ ____
ROOT
ATOM      1  N   UNL     1       3.106   6.701  18.593  0.00  0.00    +0.000 N 
ATOM      2  C   UNL     1       2.748   8.117  18.392  0.00  0.00    +0.000 C 
ATOM      3  C   UNL     1       1.302   8.346  18.889  0.00  0.00    +0.000 C 
ATOM      4  N   UNL     1       1.037   7.934  20.289  0.00  0.00    +0.000 NA
ATOM      5  C   UNL     1       1.500   6.538  20.470  0.00  0.00    +0.000 C 
ATOM      6  C   UNL     1       2.960   6.277  20.000  0.00  0.00    +0.000 C 
ENDROOT
BRANCH   1  11
ATOM      7  C   UNL     1       6.189   3.946  14.574  0.00  0.00    +0.000 C 
ATOM      8  C   UNL     1       5.421   4.650  15.654  0.00  0.00    +0.000 A 
ATOM      9  C   UNL     1       5.492   6.026  15.814  0.00  0.00    +0.000 A 
ATOM     10  C   UNL     1       4.727   6.669  16.799  0.00  0.00    +0.000 A 
ATOM     11  C   UNL     1       3.832   5.984  17.652  0.00  0.00    +0.000 A 
ATOM     12  C   UNL     1       3.772   4.575  17.464  0.00  0.00    +0.000 A 
ATOM     13  C   UNL     1       4.587   3.927  16.504  0.00  0.00    +0.000 A 
BRANCH  12  14
ATOM     14  N   UNL     1       2.840   3.744  18.136  0.00  0.00    +0.000 N 
ATOM     15  C   UNL     1       1.465   3.759  17.974  0.00  0.00    +0.000 A 
ATOM     16  C   UNL     1       0.936   2.662  18.622  0.00  0.00    +0.000 A 
ATOM     17  C   UNL     1       1.995   2.027  19.304  0.00  0.00    +0.000 A 
ATOM     18  C   UNL     1       3.125   2.783  19.080  0.00  0.00    +0.000 A 
ENDBRANCH  12  14
ENDBRANCH   1  11
BRANCH   4  19
ATOM     19  C   UNL     1       1.640   8.806  21.299  0.00  0.00    +0.000 C 
BRANCH  19  20
ATOM     20  C   UNL     1       0.673   9.224  22.405  0.00  0.00    +0.000 C 
BRANCH  20  21
ATOM     21  C   UNL     1       0.026  10.571  22.098  0.00  0.00    +0.000 C 
BRANCH  21  22
ATOM     22  N   UNL     1      -0.338  10.621  20.690  0.00  0.00    +0.000 N 
ATOM     23  H   UNL     1      -1.335  10.477  20.505  0.00  0.00    +0.000 HD
BRANCH  22  24
ATOM     24  C   UNL     1       0.053  11.793  20.023  0.00  0.00    +0.000 A 
ATOM     25  N   UNL     1       1.374  12.112  20.038  0.00  0.00    +0.000 NA
ATOM     26  C   UNL     1       1.780  13.240  19.431  0.00  0.00    +0.000 A 
ATOM     27  C   UNL     1       0.927  14.080  18.752  0.00  0.00    +0.000 A 
ATOM     28  C   UNL     1      -0.429  13.762  18.729  0.00  0.00    +0.000 A 
ATOM     29  C   UNL     1      -0.891  12.607  19.365  0.00  0.00    +0.000 A 
BRANCH  29  30
ATOM     30  C   UNL     1      -2.349  12.314  19.473  0.00  0.00    +0.000 C 
ATOM     31  O   UNL     1      -2.922  12.713  20.492  0.00  0.00    +0.000 OA
ATOM     32  N   UNL     1      -3.062  11.696  18.432  0.00  0.00    +0.000 N 
ATOM     33  C   UNL     1      -2.514  11.147  17.199  0.00  0.00    +0.000 C 
ATOM     34  C   UNL     1      -4.516  11.744  18.497  0.00  0.00    +0.000 C 
ENDBRANCH  29  30
ENDBRANCH  22  24
ENDBRANCH  21  22
ENDBRANCH  20  21
ENDBRANCH  19  20
ENDBRANCH   4  19
TORSDOF 8
ENDMDL
MODEL 8
REMARK VINA RESULT:      -7.7      6.267     10.125
REMARK  Name = 
REMARK  11 active torsions:
REMARK  status: ('A' for Active; 'I' for Inactive)
REMARK    1  A    between atoms: C_1  and  C_2
REMARK    2  A    between atoms: C_5  and  N_6
REMARK    3  A    between atoms: N_9  and  C_10
REMARK    4  A    between atoms: C_10  and  C_11
REMARK    5  A    between atoms: C_11  and  C_12
REMARK    6  A    between atoms: C_12  and  N_13
REMARK    7  A    between atoms: N_13  and  C_14
REMARK    8  A    between atoms: C_19  and  C_20
REMARK    9  A    between atoms: N_22  and  C_23
REMARK   10  A    between atoms: N_22  and  C_24
REMARK   11  A    between atoms: C_27  and  N_28
REMARK                            x       y       z     vdW  Elec       q    Type
REMARK                         _______ _______ _______ _____ _____    ______ ____
ROOT
ATOM      1  N   UNL     1       9.628  12.958  20.549  0.00  0.00    +0.000 N 
ATOM      2  C   UNL     1       8.488  12.794  19.628  0.00  0.00    +0.000 C 
ATOM      3  C   UNL     1       9.001  12.210  18.291  0.00  0.00    +0.000 C 
ATOM      4  N   UNL     1       9.769  10.946  18.402  0.00  0.00    +0.000 NA
ATOM      5  C   UNL     1      10.843  11.128  19.406  0.00  0.00    +0.000 C 
ATOM      6  C   UNL     1      10.358  11.693  20.772  0.00  0.00    +0.000 C 
ENDROOT
BRANCH   1  11
ATOM      7  C   UNL     1      10.370  17.640  23.831  0.00  0.00    +0.000 C 
ATOM      8  C   UNL     1      10.136  16.443  22.957  0.00  0.00    +0.000 A 
ATOM      9  C   UNL     1      10.853  16.250  21.785  0.00  0.00    +0.000 A 
ATOM     10  C   UNL     1      10.652  15.099  21.009  0.00  0.00    +0.000 A 
ATOM     11  C   UNL     1       9.756  14.068  21.371  0.00  0.00    +0.000 A 
ATOM     12  C   UNL     1       9.038  14.286  22.581  0.00  0.00    +0.000 A 
ATOM     13  C   UNL     1       9.206  15.475  23.330  0.00  0.00    +0.000 A 
BRANCH  12  14
ATOM     14  N   UNL     1       8.196  13.307  23.167  0.00  0.00    +0.000 N 
ATOM     15  C   UNL     1       8.583  12.328  24.066  0.00  0.00    +0.000 A 
ATOM     16  C   UNL     1       7.448  11.726  24.571  0.00  0.00    +0.000 A 
ATOM     17  C   UNL     1       6.344  12.259  23.874  0.00  0.00    +0.000 A 
ATOM     18  C   UNL     1       6.848  13.138  22.940  0.00  0.00    +0.000 A 
ENDBRANCH  12  14
ENDBRANCH   1  11
BRANCH   4  19
ATOM     19  C   UNL     1       8.957   9.773  18.730  0.00  0.00    +0.000 C 
BRANCH  19  20
ATOM     20  C   UNL     1       8.078   9.292  17.577  0.00  0.00    +0.000 C 
BRANCH  20  21
ATOM     21  C   UNL     1       7.844   7.787  17.645  0.00  0.00    +0.000 C 
BRANCH  21  22
ATOM     22  N   UNL     1       6.478   7.492  17.240  0.00  0.00    +0.000 N 
ATOM     23  H   UNL     1       6.046   8.210  16.651  0.00  0.00    +0.000 HD
BRANCH  22  24
ATOM     24  C   UNL     1       6.309   6.256  16.596  0.00  0.00    +0.000 A 
ATOM     25  N   UNL     1       7.228   5.906  15.659  0.00  0.00    +0.000 NA
ATOM     26  C   UNL     1       7.082   4.741  15.004  0.00  0.00    +0.000 A 
ATOM     27  C   UNL     1       6.062   3.853  15.263  0.00  0.00    +0.000 A 
ATOM     28  C   UNL     1       5.115   4.202  16.222  0.00  0.00    +0.000 A 
ATOM     29  C   UNL     1       5.223   5.413  16.910  0.00  0.00    +0.000 A 
BRANCH  29  30
ATOM     30  C   UNL     1       4.153   5.873  17.842  0.00  0.00    +0.000 C 
ATOM     31  O   UNL     1       3.539   6.895  17.520  0.00  0.00    +0.000 OA
ATOM     32  N   UNL     1       3.793   5.135  18.982  0.00  0.00    +0.000 N 
ATOM     33  C   UNL     1       4.450   3.941  19.497  0.00  0.00    +0.000 C 
ATOM     34  C   UNL     1       2.543   5.489  19.641  0.00  0.00    +0.000 C 
ENDBRANCH  29  30
ENDBRANCH  22  24
ENDBRANCH  21  22
ENDBRANCH  20  21
ENDBRANCH  19  20
ENDBRANCH   4  19
TORSDOF 8
ENDMDL
MODEL 9
REMARK VINA RESULT:      -7.7      6.203     10.104
REMARK  Name = 
REMARK  11 active torsions:
REMARK  status: ('A' for Active; 'I' for Inactive)
REMARK    1  A    between atoms: C_1  and  C_2
REMARK    2  A    between atoms: C_5  and  N_6
REMARK    3  A    between atoms: N_9  and  C_10
REMARK    4  A    between atoms: C_10  and  C_11
REMARK    5  A    between atoms: C_11  and  C_12
REMARK    6  A    between atoms: C_12  and  N_13
REMARK    7  A    between atoms: N_13  and  C_14
REMARK    8  A    between atoms: C_19  and  C_20
REMARK    9  A    between atoms: N_22  and  C_23
REMARK   10  A    between atoms: N_22  and  C_24
REMARK   11  A    between atoms: C_27  and  N_28
REMARK                            x       y       z     vdW  Elec       q    Type
REMARK                         _______ _______ _______ _____ _____    ______ ____
ROOT
ATOM      1  N   UNL     1       9.574  13.276  19.383  0.00  0.00    +0.000 N 
ATOM      2  C   UNL     1       9.657  12.894  17.961  0.00  0.00    +0.000 C 
ATOM      3  C   UNL     1      10.392  11.539  17.846  0.00  0.00    +0.000 C 
ATOM      4  N   UNL     1       9.818  10.433  18.651  0.00  0.00    +0.000 NA
ATOM      5  C   UNL     1       9.664  10.894  20.051  0.00  0.00    +0.000 C 
ATOM      6  C   UNL     1       8.909  12.245  20.205  0.00  0.00    +0.000 C 
ENDROOT
BRANCH   1  11
ATOM      7  C   UNL     1      10.575  18.631  21.272  0.00  0.00    +0.000 C 
ATOM      8  C   UNL     1      10.328  17.252  20.734  0.00  0.00    +0.000 A 
ATOM      9  C   UNL     1      11.260  16.237  20.888  0.00  0.00    +0.000 A 
ATOM     10  C   UNL     1      10.986  14.942  20.420  0.00  0.00    +0.000 A 
ATOM     11  C   UNL     1       9.765  14.584  19.807  0.00  0.00    +0.000 A 
ATOM     12  C   UNL     1       8.823  15.642  19.667  0.00  0.00    +0.000 A 
ATOM     13  C   UNL     1       9.127  16.957  20.092  0.00  0.00    +0.000 A 
BRANCH  12  14
ATOM     14  N   UNL     1       7.499  15.441  19.196  0.00  0.00    +0.000 N 
ATOM     15  C   UNL     1       7.115  15.296  17.875  0.00  0.00    +0.000 A 
ATOM     16  C   UNL     1       5.794  14.896  17.846  0.00  0.00    +0.000 A 
ATOM     17  C   UNL     1       5.320  14.918  19.173  0.00  0.00    +0.000 A 
ATOM     18  C   UNL     1       6.356  15.370  19.960  0.00  0.00    +0.000 A 
ENDBRANCH  12  14
ENDBRANCH   1  11
BRANCH   4  19
ATOM     19  C   UNL     1       8.547   9.913  18.143  0.00  0.00    +0.000 C 
BRANCH  19  20
ATOM     20  C   UNL     1       8.473   8.388  18.118  0.00  0.00    +0.000 C 
BRANCH  20  21
ATOM     21  C   UNL     1       7.168   7.903  17.496  0.00  0.00    +0.000 C 
BRANCH  21  22
ATOM     22  N   UNL     1       6.959   6.505  17.841  0.00  0.00    +0.000 N 
ATOM     23  H   UNL     1       6.327   6.354  18.633  0.00  0.00    +0.000 HD
BRANCH  22  24
ATOM     24  C   UNL     1       6.513   5.698  16.782  0.00  0.00    +0.000 A 
ATOM     25  N   UNL     1       7.381   5.464  15.764  0.00  0.00    +0.000 NA
ATOM     26  C   UNL     1       6.979   4.717  14.721  0.00  0.00    +0.000 A 
ATOM     27  C   UNL     1       5.734   4.134  14.647  0.00  0.00    +0.000 A 
ATOM     28  C   UNL     1       4.837   4.366  15.686  0.00  0.00    +0.000 A 
ATOM     29  C   UNL     1       5.213   5.154  16.777  0.00  0.00    +0.000 A 
BRANCH  29  30
ATOM     30  C   UNL     1       4.231   5.530  17.835  0.00  0.00    +0.000 C 
ATOM     31  O   UNL     1       3.719   6.650  17.744  0.00  0.00    +0.000 OA
ATOM     32  N   UNL     1       3.835   4.628  18.837  0.00  0.00    +0.000 N 
ATOM     33  C   UNL     1       4.378   3.299  19.083  0.00  0.00    +0.000 C 
ATOM     34  C   UNL     1       2.654   4.971  19.617  0.00  0.00    +0.000 C 
ENDBRANCH  29  30
ENDBRANCH  22  24
ENDBRANCH  21  22
ENDBRANCH  20  21
ENDBRANCH  19  20
ENDBRANCH   4  19
TORSDOF 8
ENDMDL
