MODEL 1
REMARK VINA RESULT:      -6.2      0.000      0.000
REMARK  Name = 
REMARK  7 active torsions:
REMARK  status: ('A' for Active; 'I' for Inactive)
REMARK    1  A    between atoms: C_1  and  C_2
REMARK    2  A    between atoms: C_4  and  N_5
REMARK    3  A    between atoms: N_5  and  C_6
REMARK    4  A    between atoms: N_5  and  C_7
REMARK    5  A    between atoms: C_7  and  C_8
REMARK    6  A    between atoms: C_8  and  C_9
REMARK    7  A    between atoms: C_9  and  N_10
REMARK                            x       y       z     vdW  Elec       q    Type
REMARK                         _______ _______ _______ _____ _____    ______ ____
ROOT
ATOM      1  N   UNL     1       4.053   5.326  18.237  0.00  0.00    +0.000 N 
ATOM      2  C   UNL     1       3.986   5.911  19.573  0.00  0.00    +0.000 C 
ENDROOT
BRANCH   1   6
ATOM      3  C   UNL     1       6.820   4.711  14.136  0.00  0.00    +0.000 C 
ATOM      4  C   UNL     1       6.673   4.771  15.629  0.00  0.00    +0.000 A 
ATOM      5  C   UNL     1       5.435   5.051  16.220  0.00  0.00    +0.000 A 
ATOM      6  C   UNL     1       5.296   5.099  17.617  0.00  0.00    +0.000 A 
ATOM      7  C   UNL     1       6.469   4.877  18.339  0.00  0.00    +0.000 A 
ATOM      8  C   UNL     1       7.663   4.595  17.684  0.00  0.00    +0.000 A 
ATOM      9  N   UNL     1       7.789   4.536  16.348  0.00  0.00    +0.000 NA
ENDBRANCH   1   6
BRANCH   1  10
ATOM     10  C   UNL     1       2.814   5.111  17.459  0.00  0.00    +0.000 C 
BRANCH  10  11
ATOM     11  C   UNL     1       2.080   3.778  17.632  0.00  0.00    +0.000 C 
BRANCH  11  12
ATOM     12  C   UNL     1       1.094   3.700  18.814  0.00  0.00    +0.000 C 
BRANCH  12  13
ATOM     13  N   UNL     1       1.327   2.453  19.557  0.00  0.00    +0.000 NA
ATOM     14  C   UNL     1       1.176   2.590  21.021  0.00  0.00    +0.000 C 
ATOM     15  C   UNL     1       2.422   3.110  21.755  0.00  0.00    +0.000 C 
ATOM     16  O   UNL     1       3.578   2.329  21.443  0.00  0.00    +0.000 OA
ATOM     17  C   UNL     1       3.822   2.359  20.032  0.00  0.00    +0.000 C 
ATOM     18  C   UNL     1       2.621   1.809  19.249  0.00  0.00    +0.000 C 
ENDBRANCH  12  13
ENDBRANCH  11  12
ENDBRANCH  10  11
ENDBRANCH   1  10
TORSDOF 5
ENDMDL
MODEL 2
REMARK VINA RESULT:      -6.1      2.682      5.672
REMARK  Name = 
REMARK  7 active torsions:
REMARK  status: ('A' for Active; 'I' for Inactive)
REMARK    1  A    between atoms: C_1  and  C_2
REMARK    2  A    between atoms: C_4  and  N_5
REMARK    3  A    between atoms: N_5  and  C_6
REMARK    4  A    between atoms: N_5  and  C_7
REMARK    5  A    between atoms: C_7  and  C_8
REMARK    6  A    between atoms: C_8  and  C_9
REMARK    7  A    between atoms: C_9  and  N_10
REMARK                            x       y       z     vdW  Elec       q    Type
REMARK                         _______ _______ _______ _____ _____    ______ ____
ROOT
ATOM      1  N   UNL     1       1.819   3.616  18.432  0.00  0.00    +0.000 N 
ATOM      2  C   UNL     1       0.872   2.634  18.953  0.00  0.00    +0.000 C 
ENDROOT
BRANCH   1   6
ATOM      3  C   UNL     1       2.481   8.524  17.869  0.00  0.00    +0.000 C 
ATOM      4  C   UNL     1       2.207   7.322  18.725  0.00  0.00    +0.000 A 
ATOM      5  C   UNL     1       2.114   6.043  18.163  0.00  0.00    +0.000 A 
ATOM      6  C   UNL     1       1.866   4.918  18.965  0.00  0.00    +0.000 A 
ATOM      7  C   UNL     1       1.701   5.181  20.325  0.00  0.00    +0.000 A 
ATOM      8  C   UNL     1       1.817   6.477  20.815  0.00  0.00    +0.000 A 
ATOM      9  N   UNL     1       2.068   7.550  20.046  0.00  0.00    +0.000 NA
ENDBRANCH   1   6
BRANCH   1  10
ATOM     10  C   UNL     1       2.629   3.301  17.236  0.00  0.00    +0.000 C 
BRANCH  10  11
ATOM     11  C   UNL     1       4.092   2.898  17.446  0.00  0.00    +0.000 C 
BRANCH  11  12
ATOM     12  C   UNL     1       5.060   4.039  17.816  0.00  0.00    +0.000 C 
BRANCH  12  13
ATOM     13  N   UNL     1       5.035   5.057  16.756  0.00  0.00    +0.000 NA
ATOM     14  C   UNL     1       5.578   4.590  15.463  0.00  0.00    +0.000 C 
ATOM     15  C   UNL     1       7.107   4.676  15.334  0.00  0.00    +0.000 C 
ATOM     16  O   UNL     1       7.585   5.991  15.631  0.00  0.00    +0.000 OA
ATOM     17  C   UNL     1       7.209   6.358  16.962  0.00  0.00    +0.000 C 
ATOM     18  C   UNL     1       5.683   6.329  17.137  0.00  0.00    +0.000 C 
ENDBRANCH  12  13
ENDBRANCH  11  12
ENDBRANCH  10  11
ENDBRANCH   1  10
TORSDOF 5
ENDMDL
MODEL 3
REMARK VINA RESULT:      -6.1      2.307      5.626
REMARK  Name = 
REMARK  7 active torsions:
REMARK  status: ('A' for Active; 'I' for Inactive)
REMARK    1  A    between atoms: C_1  and  C_2
REMARK    2  A    between atoms: C_4  and  N_5
REMARK    3  A    between atoms: N_5  and  C_6
REMARK    4  A    between atoms: N_5  and  C_7
REMARK    5  A    between atoms: C_7  and  C_8
REMARK    6  A    between atoms: C_8  and  C_9
REMARK    7  A    between atoms: C_9  and  N_10
REMARK                            x       y       z     vdW  Elec       q    Type
REMARK                         _______ _______ _______ _____ _____    ______ ____
ROOT
ATOM      1  N   UNL     1       2.280   6.813  19.260  0.00  0.00    +0.000 N 
ATOM      2  C   UNL     1       1.894   7.794  20.271  0.00  0.00    +0.000 C 
ENDROOT
BRANCH   1   6
ATOM      3  C   UNL     1       2.458   2.044  17.819  0.00  0.00    +0.000 C 
ATOM      4  C   UNL     1       2.345   3.094  18.886  0.00  0.00    +0.000 A 
ATOM      5  C   UNL     1       2.397   4.456  18.565  0.00  0.00    +0.000 A 
ATOM      6  C   UNL     1       2.283   5.438  19.562  0.00  0.00    +0.000 A 
ATOM      7  C   UNL     1       2.144   4.952  20.863  0.00  0.00    +0.000 A 
ATOM      8  C   UNL     1       2.090   3.584  21.106  0.00  0.00    +0.000 A 
ATOM      9  N   UNL     1       2.186   2.647  20.148  0.00  0.00    +0.000 NA
ENDBRANCH   1   6
BRANCH   1  10
ATOM     10  C   UNL     1       2.821   7.262  17.959  0.00  0.00    +0.000 C 
BRANCH  10  11
ATOM     11  C   UNL     1       4.329   7.131  17.725  0.00  0.00    +0.000 C 
BRANCH  11  12
ATOM     12  C   UNL     1       4.750   6.327  16.480  0.00  0.00    +0.000 C 
BRANCH  12  13
ATOM     13  N   UNL     1       6.195   6.490  16.264  0.00  0.00    +0.000 NA
ATOM     14  C   UNL     1       6.783   5.485  15.355  0.00  0.00    +0.000 C 
ATOM     15  C   UNL     1       7.162   4.152  16.020  0.00  0.00    +0.000 C 
ATOM     16  O   UNL     1       8.009   4.355  17.155  0.00  0.00    +0.000 OA
ATOM     17  C   UNL     1       7.347   5.184  18.116  0.00  0.00    +0.000 C 
ATOM     18  C   UNL     1       6.980   6.549  17.515  0.00  0.00    +0.000 C 
ENDBRANCH  12  13
ENDBRANCH  11  12
ENDBRANCH  10  11
ENDBRANCH   1  10
TORSDOF 5
ENDMDL
MODEL 4
REMARK VINA RESULT:      -6.0      2.148      2.971
REMARK  Name = 
REMARK  7 active torsions:
REMARK  status: ('A' for Active; 'I' for Inactive)
REMARK    1  A    between atoms: C_1  and  C_2
REMARK    2  A    between atoms: C_4  and  N_5
REMARK    3  A    between atoms: N_5  and  C_6
REMARK    4  A    between atoms: N_5  and  C_7
REMARK    5  A    between atoms: C_7  and  C_8
REMARK    6  A    between atoms: C_8  and  C_9
REMARK    7  A    between atoms: C_9  and  N_10
REMARK                            x       y       z     vdW  Elec       q    Type
REMARK                         _______ _______ _______ _____ _____    ______ ____
ROOT
ATOM      1  N   UNL     1       5.990   4.865  16.002  0.00  0.00    +0.000 N 
ATOM      2  C   UNL     1       6.656   4.368  14.801  0.00  0.00    +0.000 C 
ENDROOT
BRANCH   1   6
ATOM      3  C   UNL     1       8.047   9.044  17.778  0.00  0.00    +0.000 C 
ATOM      4  C   UNL     1       7.756   7.574  17.876  0.00  0.00    +0.000 A 
ATOM      5  C   UNL     1       6.984   6.926  16.904  0.00  0.00    +0.000 A 
ATOM      6  C   UNL     1       6.720   5.550  16.992  0.00  0.00    +0.000 A 
ATOM      7  C   UNL     1       7.255   4.911  18.111  0.00  0.00    +0.000 A 
ATOM      8  C   UNL     1       8.022   5.617  19.031  0.00  0.00    +0.000 A 
ATOM      9  N   UNL     1       8.285   6.931  18.937  0.00  0.00    +0.000 NA
ENDBRANCH   1   6
BRANCH   1  10
ATOM     10  C   UNL     1       4.577   4.517  16.264  0.00  0.00    +0.000 C 
BRANCH  10  11
ATOM     11  C   UNL     1       4.289   3.259  17.089  0.00  0.00    +0.000 C 
BRANCH  11  12
ATOM     12  C   UNL     1       2.823   3.056  17.518  0.00  0.00    +0.000 C 
BRANCH  12  13
ATOM     13  N   UNL     1       2.788   2.573  18.906  0.00  0.00    +0.000 NA
ATOM     14  C   UNL     1       1.423   2.388  19.442  0.00  0.00    +0.000 C 
ATOM     15  C   UNL     1       0.769   3.661  20.003  0.00  0.00    +0.000 C 
ATOM     16  O   UNL     1       1.605   4.296  20.974  0.00  0.00    +0.000 OA
ATOM     17  C   UNL     1       2.864   4.639  20.385  0.00  0.00    +0.000 C 
ATOM     18  C   UNL     1       3.582   3.395  19.842  0.00  0.00    +0.000 C 
ENDBRANCH  12  13
ENDBRANCH  11  12
ENDBRANCH  10  11
ENDBRANCH   1  10
TORSDOF 5
ENDMDL
MODEL 5
REMARK VINA RESULT:      -6.0      1.908      3.353
REMARK  Name = 
REMARK  7 active torsions:
REMARK  status: ('A' for Active; 'I' for Inactive)
REMARK    1  A    between atoms: C_1  and  C_2
REMARK    2  A    between atoms: C_4  and  N_5
REMARK    3  A    between atoms: N_5  and  C_6
REMARK    4  A    between atoms: N_5  and  C_7
REMARK    5  A    between atoms: C_7  and  C_8
REMARK    6  A    between atoms: C_8  and  C_9
REMARK    7  A    between atoms: C_9  and  N_10
REMARK                            x       y       z     vdW  Elec       q    Type
REMARK                         _______ _______ _______ _____ _____    ______ ____
ROOT
ATOM      1  N   UNL     1       6.309   4.819  16.079  0.00  0.00    +0.000 N 
ATOM      2  C   UNL     1       7.340   4.542  17.076  0.00  0.00    +0.000 C 
ENDROOT
BRANCH   1   6
ATOM      3  C   UNL     1       5.462   2.536  11.729  0.00  0.00    +0.000 C 
ATOM      4  C   UNL     1       6.201   3.537  12.570  0.00  0.00    +0.000 A 
ATOM      5  C   UNL     1       5.880   3.721  13.920  0.00  0.00    +0.000 A 
ATOM      6  C   UNL     1       6.577   4.652  14.707  0.00  0.00    +0.000 A 
ATOM      7  C   UNL     1       7.569   5.372  14.040  0.00  0.00    +0.000 A 
ATOM      8  C   UNL     1       7.840   5.129  12.698  0.00  0.00    +0.000 A 
ATOM      9  N   UNL     1       7.180   4.227  11.951  0.00  0.00    +0.000 NA
ENDBRANCH   1   6
BRANCH   1  10
ATOM     10  C   UNL     1       5.026   5.428  16.490  0.00  0.00    +0.000 C 
BRANCH  10  11
ATOM     11  C   UNL     1       3.964   4.513  17.109  0.00  0.00    +0.000 C 
BRANCH  11  12
ATOM     12  C   UNL     1       3.042   5.165  18.159  0.00  0.00    +0.000 C 
BRANCH  12  13
ATOM     13  N   UNL     1       3.307   4.564  19.474  0.00  0.00    +0.000 NA
ATOM     14  C   UNL     1       3.484   3.097  19.438  0.00  0.00    +0.000 C 
ATOM     15  C   UNL     1       2.179   2.286  19.473  0.00  0.00    +0.000 C 
ATOM     16  O   UNL     1       1.356   2.664  20.580  0.00  0.00    +0.000 OA
ATOM     17  C   UNL     1       1.037   4.057  20.499  0.00  0.00    +0.000 C 
ATOM     18  C   UNL     1       2.308   4.920  20.503  0.00  0.00    +0.000 C 
ENDBRANCH  12  13
ENDBRANCH  11  12
ENDBRANCH  10  11
ENDBRANCH   1  10
TORSDOF 5
ENDMDL
MODEL 6
REMARK VINA RESULT:      -6.0      1.994      3.214
REMARK  Name = 
REMARK  7 active torsions:
REMARK  status: ('A' for Active; 'I' for Inactive)
REMARK    1  A    between atoms: C_1  and  C_2
REMARK    2  A    between atoms: C_4  and  N_5
REMARK    3  A    between atoms: N_5  and  C_6
REMARK    4  A    between atoms: N_5  and  C_7
REMARK    5  A    between atoms: C_7  and  C_8
REMARK    6  A    between atoms: C_8  and  C_9
REMARK    7  A    between atoms: C_9  and  N_10
REMARK                            x       y       z     vdW  Elec       q    Type
REMARK                         _______ _______ _______ _____ _____    ______ ____
ROOT
ATOM      1  N   UNL     1       6.269   4.832  16.057  0.00  0.00    +0.000 N 
ATOM      2  C   UNL     1       6.925   5.885  16.827  0.00  0.00    +0.000 C 
ENDROOT
BRANCH   1   6
ATOM      3  C   UNL     1       5.492   2.528  11.705  0.00  0.00    +0.000 C 
ATOM      4  C   UNL     1       6.212   3.538  12.550  0.00  0.00    +0.000 A 
ATOM      5  C   UNL     1       5.875   3.723  13.896  0.00  0.00    +0.000 A 
ATOM      6  C   UNL     1       6.553   4.663  14.688  0.00  0.00    +0.000 A 
ATOM      7  C   UNL     1       7.545   5.391  14.030  0.00  0.00    +0.000 A 
ATOM      8  C   UNL     1       7.834   5.146  12.692  0.00  0.00    +0.000 A 
ATOM      9  N   UNL     1       7.191   4.236  11.940  0.00  0.00    +0.000 NA
ENDBRANCH   1   6
BRANCH   1  10
ATOM     10  C   UNL     1       5.184   4.034  16.667  0.00  0.00    +0.000 C 
BRANCH  10  11
ATOM     11  C   UNL     1       4.002   4.785  17.287  0.00  0.00    +0.000 C 
BRANCH  11  12
ATOM     12  C   UNL     1       3.839   4.644  18.813  0.00  0.00    +0.000 C 
BRANCH  12  13
ATOM     13  N   UNL     1       2.425   4.835  19.168  0.00  0.00    +0.000 NA
ATOM     14  C   UNL     1       2.188   5.001  20.617  0.00  0.00    +0.000 C 
ATOM     15  C   UNL     1       2.078   3.689  21.410  0.00  0.00    +0.000 C 
ATOM     16  O   UNL     1       1.101   2.813  20.842  0.00  0.00    +0.000 OA
ATOM     17  C   UNL     1       1.447   2.510  19.486  0.00  0.00    +0.000 C 
ATOM     18  C   UNL     1       1.531   3.786  18.635  0.00  0.00    +0.000 C 
ENDBRANCH  12  13
ENDBRANCH  11  12
ENDBRANCH  10  11
ENDBRANCH   1  10
TORSDOF 5
ENDMDL
MODEL 7
REMARK VINA RESULT:      -6.0      1.939      3.186
REMARK  Name = 
REMARK  7 active torsions:
REMARK  status: ('A' for Active; 'I' for Inactive)
REMARK    1  A    between atoms: C_1  and  C_2
REMARK    2  A    between atoms: C_4  and  N_5
REMARK    3  A    between atoms: N_5  and  C_6
REMARK    4  A    between atoms: N_5  and  C_7
REMARK    5  A    between atoms: C_7  and  C_8
REMARK    6  A    between atoms: C_8  and  C_9
REMARK    7  A    between atoms: C_9  and  N_10
REMARK                            x       y       z     vdW  Elec       q    Type
REMARK                         _______ _______ _______ _____ _____    ______ ____
ROOT
ATOM      1  N   UNL     1       6.110   4.943  15.949  0.00  0.00    +0.000 N 
ATOM      2  C   UNL     1       6.936   5.825  16.768  0.00  0.00    +0.000 C 
ENDROOT
BRANCH   1   6
ATOM      3  C   UNL     1       5.414   2.469  11.677  0.00  0.00    +0.000 C 
ATOM      4  C   UNL     1       6.136   3.494  12.503  0.00  0.00    +0.000 A 
ATOM      5  C   UNL     1       5.757   3.750  13.826  0.00  0.00    +0.000 A 
ATOM      6  C   UNL     1       6.437   4.704  14.600  0.00  0.00    +0.000 A 
ATOM      7  C   UNL     1       7.475   5.370  13.948  0.00  0.00    +0.000 A 
ATOM      8  C   UNL     1       7.803   5.056  12.633  0.00  0.00    +0.000 A 
ATOM      9  N   UNL     1       7.158   4.133  11.900  0.00  0.00    +0.000 NA
ENDBRANCH   1   6
BRANCH   1  10
ATOM     10  C   UNL     1       4.835   4.417  16.481  0.00  0.00    +0.000 C 
BRANCH  10  11
ATOM     11  C   UNL     1       4.009   5.327  17.396  0.00  0.00    +0.000 C 
BRANCH  11  12
ATOM     12  C   UNL     1       3.756   4.800  18.822  0.00  0.00    +0.000 C 
BRANCH  12  13
ATOM     13  N   UNL     1       3.020   3.529  18.744  0.00  0.00    +0.000 NA
ATOM     14  C   UNL     1       1.551   3.688  18.711  0.00  0.00    +0.000 C 
ATOM     15  C   UNL     1       0.885   3.843  20.088  0.00  0.00    +0.000 C 
ATOM     16  O   UNL     1       1.253   2.780  20.970  0.00  0.00    +0.000 OA
ATOM     17  C   UNL     1       2.674   2.755  21.140  0.00  0.00    +0.000 C 
ATOM     18  C   UNL     1       3.392   2.561  19.796  0.00  0.00    +0.000 C 
ENDBRANCH  12  13
ENDBRANCH  11  12
ENDBRANCH  10  11
ENDBRANCH   1  10
TORSDOF 5
ENDMDL
MODEL 8
REMARK VINA RESULT:      -6.0      2.274      5.328
REMARK  Name = 
REMARK  7 active torsions:
REMARK  status: ('A' for Active; 'I' for Inactive)
REMARK    1  A    between atoms: C_1  and  C_2
REMARK    2  A    between atoms: C_4  and  N_5
REMARK    3  A    between atoms: N_5  and  C_6
REMARK    4  A    between atoms: N_5  and  C_7
REMARK    5  A    between atoms: C_7  and  C_8
REMARK    6  A    between atoms: C_8  and  C_9
REMARK    7  A    between atoms: C_9  and  N_10
REMARK                            x       y       z     vdW  Elec       q    Type
REMARK                         _______ _______ _______ _____ _____    ______ ____
ROOT
ATOM      1  N   UNL     1       2.290   6.112  19.173  0.00  0.00    +0.000 N 
ATOM      2  C   UNL     1       1.881   6.711  20.441  0.00  0.00    +0.000 C 
ENDROOT
BRANCH   1   6
ATOM      3  C   UNL     1       4.556   1.864  20.466  0.00  0.00    +0.000 C 
ATOM      4  C   UNL     1       3.549   2.625  19.652  0.00  0.00    +0.000 A 
ATOM      5  C   UNL     1       3.379   4.004  19.824  0.00  0.00    +0.000 A 
ATOM      6  C   UNL     1       2.444   4.717  19.057  0.00  0.00    +0.000 A 
ATOM      7  C   UNL     1       1.704   3.950  18.157  0.00  0.00    +0.000 A 
ATOM      8  C   UNL     1       1.934   2.585  18.033  0.00  0.00    +0.000 A 
ATOM      9  N   UNL     1       2.840   1.908  18.759  0.00  0.00    +0.000 NA
ENDBRANCH   1   6
BRANCH   1  10
ATOM     10  C   UNL     1       2.698   6.974  18.044  0.00  0.00    +0.000 C 
BRANCH  10  11
ATOM     11  C   UNL     1       4.197   7.145  17.776  0.00  0.00    +0.000 C 
BRANCH  11  12
ATOM     12  C   UNL     1       4.697   6.648  16.405  0.00  0.00    +0.000 C 
BRANCH  12  13
ATOM     13  N   UNL     1       5.004   5.213  16.493  0.00  0.00    +0.000 NA
ATOM     14  C   UNL     1       5.920   4.863  17.598  0.00  0.00    +0.000 C 
ATOM     15  C   UNL     1       7.414   5.032  17.279  0.00  0.00    +0.000 C 
ATOM     16  O   UNL     1       7.778   4.331  16.087  0.00  0.00    +0.000 OA
ATOM     17  C   UNL     1       7.008   4.815  14.982  0.00  0.00    +0.000 C 
ATOM     18  C   UNL     1       5.503   4.633  15.230  0.00  0.00    +0.000 C 
ENDBRANCH  12  13
ENDBRANCH  11  12
ENDBRANCH  10  11
ENDBRANCH   1  10
TORSDOF 5
ENDMDL
MODEL 9
REMARK VINA RESULT:      -6.0      1.605      2.251
REMARK  Name = 
REMARK  7 active torsions:
REMARK  status: ('A' for Active; 'I' for Inactive)
REMARK    1  A    between atoms: C_1  and  C_2
REMARK    2  A    between atoms: C_4  and  N_5
REMARK    3  A    between atoms: N_5  and  C_6
REMARK    4  A    between atoms: N_5  and  C_7
REMARK    5  A    between atoms: C_7  and  C_8
REMARK    6  A    between atoms: C_8  and  C_9
REMARK    7  A    between atoms: C_9  and  N_10
REMARK                            x       y       z     vdW  Elec       q    Type
REMARK                         _______ _______ _______ _____ _____    ______ ____
ROOT
ATOM      1  N   UNL     1       4.810   3.487  17.991  0.00  0.00    +0.000 N 
ATOM      2  C   UNL     1       4.930   3.337  19.439  0.00  0.00    +0.000 C 
ENDROOT
BRANCH   1   6
ATOM      3  C   UNL     1       7.637   7.580  17.672  0.00  0.00    +0.000 C 
ATOM      4  C   UNL     1       7.079   6.316  17.085  0.00  0.00    +0.000 A 
ATOM      5  C   UNL     1       6.232   5.488  17.832  0.00  0.00    +0.000 A 
ATOM      6  C   UNL     1       5.704   4.310  17.280  0.00  0.00    +0.000 A 
ATOM      7  C   UNL     1       6.104   4.033  15.973  0.00  0.00    +0.000 A 
ATOM      8  C   UNL     1       6.941   4.908  15.288  0.00  0.00    +0.000 A 
ATOM      9  N   UNL     1       7.434   6.041  15.814  0.00  0.00    +0.000 NA
ENDBRANCH   1   6
BRANCH   1  10
ATOM     10  C   UNL     1       3.653   2.902  17.280  0.00  0.00    +0.000 C 
BRANCH  10  11
ATOM     11  C   UNL     1       2.288   3.576  17.454  0.00  0.00    +0.000 C 
BRANCH  11  12
ATOM     12  C   UNL     1       2.241   4.760  18.438  0.00  0.00    +0.000 C 
BRANCH  12  13
ATOM     13  N   UNL     1       1.184   4.522  19.432  0.00  0.00    +0.000 NA
ATOM     14  C   UNL     1       1.454   5.129  20.752  0.00  0.00    +0.000 C 
ATOM     15  C   UNL     1       2.342   4.287  21.682  0.00  0.00    +0.000 C 
ATOM     16  O   UNL     1       1.830   2.961  21.838  0.00  0.00    +0.000 OA
ATOM     17  C   UNL     1       1.749   2.316  20.562  0.00  0.00    +0.000 C 
ATOM     18  C   UNL     1       0.838   3.096  19.602  0.00  0.00    +0.000 C 
ENDBRANCH  12  13
ENDBRANCH  11  12
ENDBRANCH  10  11
ENDBRANCH   1  10
TORSDOF 5
ENDMDL
