MODEL 1
REMARK VINA RESULT:      -9.3      0.000      0.000
REMARK  Name = 
REMARK  3 active torsions:
REMARK  status: ('A' for Active; 'I' for Inactive)
REMARK    1  A    between atoms: C_2  and  C_12
REMARK    2  A    between atoms: N_3  and  C_4
REMARK    3  A    between atoms: C_19  and  C_20
REMARK                            x       y       z     vdW  Elec       q    Type
REMARK                         _______ _______ _______ _____ _____    ______ ____
ROOT
ATOM      1  C   UNL     1       6.093   5.076  17.774  0.00  0.00    +0.000 A 
ATOM      2  C   UNL     1       6.739   6.135  18.278  0.00  0.00    +0.000 A 
ATOM      3  C   UNL     1       7.606   6.981  17.444  0.00  0.00    +0.000 A 
ATOM      4  O   UNL     1       8.164   7.959  17.927  0.00  0.00    +0.000 OA
ATOM      5  N   UNL     1       7.717   6.636  16.134  0.00  0.00    +0.000 N 
ATOM      6  C   UNL     1       7.082   5.529  15.561  0.00  0.00    +0.000 A 
ATOM      7  C   UNL     1       7.246   5.282  14.195  0.00  0.00    +0.000 A 
ATOM      8  C   UNL     1       6.601   4.192  13.594  0.00  0.00    +0.000 A 
ATOM      9  C   UNL     1       5.792   3.364  14.382  0.00  0.00    +0.000 A 
ATOM     10  C   UNL     1       5.626   3.623  15.746  0.00  0.00    +0.000 A 
ATOM     11  C   UNL     1       6.271   4.704  16.359  0.00  0.00    +0.000 A 
ATOM     12  H   UNL     1       8.297   7.248  15.574  0.00  0.00    +0.000 HD
ENDROOT
BRANCH   1  14
ATOM     13  O   UNL     1       5.580   3.497  19.447  0.00  0.00    +0.000 OA
ATOM     14  C   UNL     1       5.163   4.361  18.709  0.00  0.00    +0.000 C 
ATOM     15  N   UNL     1       3.826   4.698  18.538  0.00  0.00    +0.000 N 
ATOM     16  H   UNL     1       3.562   5.235  17.727  0.00  0.00    +0.000 HD
BRANCH  15  17
ATOM     17  C   UNL     1       2.782   4.075  19.247  0.00  0.00    +0.000 A 
ATOM     18  C   UNL     1       2.749   4.046  20.642  0.00  0.00    +0.000 A 
ATOM     19  C   UNL     1       1.773   3.312  21.302  0.00  0.00    +0.000 A 
ATOM     20  F   UNL     1       1.762   3.288  22.640  0.00  0.00    +0.000 F 
ATOM     21  C   UNL     1       0.817   2.604  20.595  0.00  0.00    +0.000 A 
ATOM     22  C   UNL     1       0.826   2.674  19.209  0.00  0.00    +0.000 A 
ATOM     23  F   UNL     1      -0.082   1.979  18.513  0.00  0.00    +0.000 F 
ATOM     24  C   UNL     1       1.782   3.423  18.524  0.00  0.00    +0.000 A 
ENDBRANCH  15  17
ENDBRANCH   1  14
BRANCH   8  25
ATOM     25  C   UNL     1       6.760   3.899  12.123  0.00  0.00    +0.000 C 
ATOM     26  F   UNL     1       5.564   3.782  11.478  0.00  0.00    +0.000 F 
ATOM     27  F   UNL     1       7.445   4.875  11.468  0.00  0.00    +0.000 F 
ATOM     28  F   UNL     1       7.430   2.740  11.879  0.00  0.00    +0.000 F 
ENDBRANCH   8  25
TORSDOF 3
ENDMDL
MODEL 2
REMARK VINA RESULT:      -9.0      3.414      7.630
REMARK  Name = 
REMARK  3 active torsions:
REMARK  status: ('A' for Active; 'I' for Inactive)
REMARK    1  A    between atoms: C_2  and  C_12
REMARK    2  A    between atoms: N_3  and  C_4
REMARK    3  A    between atoms: C_19  and  C_20
REMARK                            x       y       z     vdW  Elec       q    Type
REMARK                         _______ _______ _______ _____ _____    ______ ____
ROOT
ATOM      1  C   UNL     1       4.744   4.627  18.034  0.00  0.00    +0.000 A 
ATOM      2  C   UNL     1       4.551   3.609  18.884  0.00  0.00    +0.000 A 
ATOM      3  C   UNL     1       3.543   3.674  19.952  0.00  0.00    +0.000 A 
ATOM      4  O   UNL     1       3.372   2.717  20.698  0.00  0.00    +0.000 OA
ATOM      5  N   UNL     1       2.813   4.817  20.035  0.00  0.00    +0.000 N 
ATOM      6  C   UNL     1       2.987   5.918  19.188  0.00  0.00    +0.000 A 
ATOM      7  C   UNL     1       2.163   7.035  19.346  0.00  0.00    +0.000 A 
ATOM      8  C   UNL     1       2.303   8.140  18.495  0.00  0.00    +0.000 A 
ATOM      9  C   UNL     1       3.276   8.101  17.489  0.00  0.00    +0.000 A 
ATOM     10  C   UNL     1       4.091   6.976  17.331  0.00  0.00    +0.000 A 
ATOM     11  C   UNL     1       3.965   5.870  18.181  0.00  0.00    +0.000 A 
ATOM     12  H   UNL     1       2.108   4.829  20.760  0.00  0.00    +0.000 HD
ENDROOT
BRANCH   1  14
ATOM     13  O   UNL     1       6.915   4.324  17.170  0.00  0.00    +0.000 OA
ATOM     14  C   UNL     1       5.730   4.390  16.930  0.00  0.00    +0.000 C 
ATOM     15  N   UNL     1       5.164   4.390  15.661  0.00  0.00    +0.000 N 
ATOM     16  H   UNL     1       4.214   4.708  15.556  0.00  0.00    +0.000 HD
BRANCH  15  17
ATOM     17  C   UNL     1       5.925   4.281  14.482  0.00  0.00    +0.000 A 
ATOM     18  C   UNL     1       7.036   5.090  14.241  0.00  0.00    +0.000 A 
ATOM     19  C   UNL     1       7.682   5.042  13.013  0.00  0.00    +0.000 A 
ATOM     20  F   UNL     1       8.741   5.833  12.797  0.00  0.00    +0.000 F 
ATOM     21  C   UNL     1       7.244   4.192  12.013  0.00  0.00    +0.000 A 
ATOM     22  C   UNL     1       6.168   3.356  12.274  0.00  0.00    +0.000 A 
ATOM     23  F   UNL     1       5.722   2.542  11.310  0.00  0.00    +0.000 F 
ATOM     24  C   UNL     1       5.517   3.370  13.507  0.00  0.00    +0.000 A 
ENDBRANCH  15  17
ENDBRANCH   1  14
BRANCH   8  25
ATOM     25  C   UNL     1       1.428   9.361  18.642  0.00  0.00    +0.000 C 
ATOM     26  F   UNL     1       0.300   9.293  17.880  0.00  0.00    +0.000 F 
ATOM     27  F   UNL     1       1.007   9.548  19.922  0.00  0.00    +0.000 F 
ATOM     28  F   UNL     1       2.055  10.512  18.280  0.00  0.00    +0.000 F 
ENDBRANCH   8  25
TORSDOF 3
ENDMDL
MODEL 3
REMARK VINA RESULT:      -8.8      0.157      1.615
REMARK  Name = 
REMARK  3 active torsions:
REMARK  status: ('A' for Active; 'I' for Inactive)
REMARK    1  A    between atoms: C_2  and  C_12
REMARK    2  A    between atoms: N_3  and  C_4
REMARK    3  A    between atoms: C_19  and  C_20
REMARK                            x       y       z     vdW  Elec       q    Type
REMARK                         _______ _______ _______ _____ _____    ______ ____
ROOT
ATOM      1  C   UNL     1       6.149   5.089  17.729  0.00  0.00    +0.000 A 
ATOM      2  C   UNL     1       6.777   6.163  18.227  0.00  0.00    +0.000 A 
ATOM      3  C   UNL     1       7.616   7.027  17.385  0.00  0.00    +0.000 A 
ATOM      4  O   UNL     1       8.158   8.017  17.863  0.00  0.00    +0.000 OA
ATOM      5  N   UNL     1       7.723   6.685  16.074  0.00  0.00    +0.000 N 
ATOM      6  C   UNL     1       7.106   5.564  15.507  0.00  0.00    +0.000 A 
ATOM      7  C   UNL     1       7.262   5.321  14.140  0.00  0.00    +0.000 A 
ATOM      8  C   UNL     1       6.636   4.217  13.544  0.00  0.00    +0.000 A 
ATOM      9  C   UNL     1       5.853   3.372  14.340  0.00  0.00    +0.000 A 
ATOM     10  C   UNL     1       5.694   3.627  15.706  0.00  0.00    +0.000 A 
ATOM     11  C   UNL     1       6.322   4.722  16.312  0.00  0.00    +0.000 A 
ATOM     12  H   UNL     1       8.283   7.309  15.508  0.00  0.00    +0.000 HD
ENDROOT
BRANCH   1  14
ATOM     13  O   UNL     1       5.706   3.643  19.536  0.00  0.00    +0.000 OA
ATOM     14  C   UNL     1       5.244   4.355  18.673  0.00  0.00    +0.000 C 
ATOM     15  N   UNL     1       3.894   4.478  18.368  0.00  0.00    +0.000 N 
ATOM     16  H   UNL     1       3.633   4.881  17.482  0.00  0.00    +0.000 HD
BRANCH  15  17
ATOM     17  C   UNL     1       2.884   3.792  19.068  0.00  0.00    +0.000 A 
ATOM     18  C   UNL     1       1.857   3.115  18.409  0.00  0.00    +0.000 A 
ATOM     19  C   UNL     1       0.809   2.562  19.133  0.00  0.00    +0.000 A 
ATOM     20  F   UNL     1      -0.172   1.923  18.483  0.00  0.00    +0.000 F 
ATOM     21  C   UNL     1       0.766   2.664  20.512  0.00  0.00    +0.000 A 
ATOM     22  C   UNL     1       1.813   3.298  21.165  0.00  0.00    +0.000 A 
ATOM     23  F   UNL     1       1.774   3.421  22.497  0.00  0.00    +0.000 F 
ATOM     24  C   UNL     1       2.887   3.842  20.462  0.00  0.00    +0.000 A 
ENDBRANCH  15  17
ENDBRANCH   1  14
BRANCH   8  25
ATOM     25  C   UNL     1       6.787   3.928  12.071  0.00  0.00    +0.000 C 
ATOM     26  F   UNL     1       5.588   3.802  11.435  0.00  0.00    +0.000 F 
ATOM     27  F   UNL     1       7.459   4.911  11.414  0.00  0.00    +0.000 F 
ATOM     28  F   UNL     1       7.465   2.775  11.821  0.00  0.00    +0.000 F 
ENDBRANCH   8  25
TORSDOF 3
ENDMDL
MODEL 4
REMARK VINA RESULT:      -8.8      3.080      8.272
REMARK  Name = 
REMARK  3 active torsions:
REMARK  status: ('A' for Active; 'I' for Inactive)
REMARK    1  A    between atoms: C_2  and  C_12
REMARK    2  A    between atoms: N_3  and  C_4
REMARK    3  A    between atoms: C_19  and  C_20
REMARK                            x       y       z     vdW  Elec       q    Type
REMARK                         _______ _______ _______ _____ _____    ______ ____
ROOT
ATOM      1  C   UNL     1       4.254   5.068  17.902  0.00  0.00    +0.000 A 
ATOM      2  C   UNL     1       4.483   3.847  18.405  0.00  0.00    +0.000 A 
ATOM      3  C   UNL     1       3.875   3.404  19.667  0.00  0.00    +0.000 A 
ATOM      4  O   UNL     1       4.082   2.273  20.089  0.00  0.00    +0.000 OA
ATOM      5  N   UNL     1       3.065   4.293  20.301  0.00  0.00    +0.000 N 
ATOM      6  C   UNL     1       2.808   5.587  19.832  0.00  0.00    +0.000 A 
ATOM      7  C   UNL     1       1.938   6.410  20.551  0.00  0.00    +0.000 A 
ATOM      8  C   UNL     1       1.648   7.702  20.089  0.00  0.00    +0.000 A 
ATOM      9  C   UNL     1       2.240   8.145  18.900  0.00  0.00    +0.000 A 
ATOM     10  C   UNL     1       3.103   7.312  18.182  0.00  0.00    +0.000 A 
ATOM     11  C   UNL     1       3.406   6.023  18.638  0.00  0.00    +0.000 A 
ATOM     12  H   UNL     1       2.636   3.957  21.153  0.00  0.00    +0.000 HD
ENDROOT
BRANCH   1  14
ATOM     13  O   UNL     1       4.770   6.460  16.073  0.00  0.00    +0.000 OA
ATOM     14  C   UNL     1       4.853   5.354  16.559  0.00  0.00    +0.000 C 
ATOM     15  N   UNL     1       5.367   4.231  15.921  0.00  0.00    +0.000 N 
ATOM     16  H   UNL     1       5.157   3.322  16.300  0.00  0.00    +0.000 HD
BRANCH  15  17
ATOM     17  C   UNL     1       5.888   4.262  14.614  0.00  0.00    +0.000 A 
ATOM     18  C   UNL     1       5.358   3.480  13.588  0.00  0.00    +0.000 A 
ATOM     19  C   UNL     1       5.980   3.441  12.347  0.00  0.00    +0.000 A 
ATOM     20  F   UNL     1       5.461   2.677  11.377  0.00  0.00    +0.000 F 
ATOM     21  C   UNL     1       7.126   4.177  12.103  0.00  0.00    +0.000 A 
ATOM     22  C   UNL     1       7.622   4.989  13.112  0.00  0.00    +0.000 A 
ATOM     23  F   UNL     1       8.741   5.692  12.896  0.00  0.00    +0.000 F 
ATOM     24  C   UNL     1       7.003   5.062  14.359  0.00  0.00    +0.000 A 
ENDBRANCH  15  17
ENDBRANCH   1  14
BRANCH   8  25
ATOM     25  C   UNL     1       0.713   8.614  20.844  0.00  0.00    +0.000 C 
ATOM     26  F   UNL     1      -0.292   7.937  21.469  0.00  0.00    +0.000 F 
ATOM     27  F   UNL     1       1.349   9.323  21.815  0.00  0.00    +0.000 F 
ATOM     28  F   UNL     1       0.104   9.532  20.046  0.00  0.00    +0.000 F 
ENDBRANCH   8  25
TORSDOF 3
ENDMDL
MODEL 5
REMARK VINA RESULT:      -8.7      3.390      7.784
REMARK  Name = 
REMARK  3 active torsions:
REMARK  status: ('A' for Active; 'I' for Inactive)
REMARK    1  A    between atoms: C_2  and  C_12
REMARK    2  A    between atoms: N_3  and  C_4
REMARK    3  A    between atoms: C_19  and  C_20
REMARK                            x       y       z     vdW  Elec       q    Type
REMARK                         _______ _______ _______ _____ _____    ______ ____
ROOT
ATOM      1  C   UNL     1       4.714   4.613  17.984  0.00  0.00    +0.000 A 
ATOM      2  C   UNL     1       4.567   3.583  18.828  0.00  0.00    +0.000 A 
ATOM      3  C   UNL     1       3.609   3.626  19.942  0.00  0.00    +0.000 A 
ATOM      4  O   UNL     1       3.479   2.659  20.682  0.00  0.00    +0.000 OA
ATOM      5  N   UNL     1       2.876   4.763  20.074  0.00  0.00    +0.000 N 
ATOM      6  C   UNL     1       3.004   5.876  19.234  0.00  0.00    +0.000 A 
ATOM      7  C   UNL     1       2.180   6.985  19.445  0.00  0.00    +0.000 A 
ATOM      8  C   UNL     1       2.274   8.102  18.604  0.00  0.00    +0.000 A 
ATOM      9  C   UNL     1       3.199   8.084  17.554  0.00  0.00    +0.000 A 
ATOM     10  C   UNL     1       4.014   6.967  17.343  0.00  0.00    +0.000 A 
ATOM     11  C   UNL     1       3.934   5.849  18.183  0.00  0.00    +0.000 A 
ATOM     12  H   UNL     1       2.205   4.760  20.830  0.00  0.00    +0.000 HD
ENDROOT
BRANCH   1  14
ATOM     13  O   UNL     1       6.843   4.316  17.020  0.00  0.00    +0.000 OA
ATOM     14  C   UNL     1       5.650   4.399  16.833  0.00  0.00    +0.000 C 
ATOM     15  N   UNL     1       5.031   4.438  15.589  0.00  0.00    +0.000 N 
ATOM     16  H   UNL     1       4.080   4.766  15.533  0.00  0.00    +0.000 HD
BRANCH  15  17
ATOM     17  C   UNL     1       5.740   4.354  14.377  0.00  0.00    +0.000 A 
ATOM     18  C   UNL     1       5.402   3.431  13.385  0.00  0.00    +0.000 A 
ATOM     19  C   UNL     1       6.204   3.292  12.260  0.00  0.00    +0.000 A 
ATOM     20  F   UNL     1       5.869   2.395  11.324  0.00  0.00    +0.000 F 
ATOM     21  C   UNL     1       7.341   4.063  12.097  0.00  0.00    +0.000 A 
ATOM     22  C   UNL     1       7.646   5.011  13.063  0.00  0.00    +0.000 A 
ATOM     23  F   UNL     1       8.753   5.750  12.928  0.00  0.00    +0.000 F 
ATOM     24  C   UNL     1       6.845   5.186  14.191  0.00  0.00    +0.000 A 
ENDBRANCH  15  17
ENDBRANCH   1  14
BRANCH   8  25
ATOM     25  C   UNL     1       1.398   9.315  18.807  0.00  0.00    +0.000 C 
ATOM     26  F   UNL     1       2.049  10.483  18.542  0.00  0.00    +0.000 F 
ATOM     27  F   UNL     1       0.301   9.306  18.004  0.00  0.00    +0.000 F 
ATOM     28  F   UNL     1       0.932   9.428  20.080  0.00  0.00    +0.000 F 
ENDBRANCH   8  25
TORSDOF 3
ENDMDL
MODEL 6
REMARK VINA RESULT:      -8.7      3.655      8.095
REMARK  Name = 
REMARK  3 active torsions:
REMARK  status: ('A' for Active; 'I' for Inactive)
REMARK    1  A    between atoms: C_2  and  C_12
REMARK    2  A    between atoms: N_3  and  C_4
REMARK    3  A    between atoms: C_19  and  C_20
REMARK                            x       y       z     vdW  Elec       q    Type
REMARK                         _______ _______ _______ _____ _____    ______ ____
ROOT
ATOM      1  C   UNL     1       4.309   5.731  17.682  0.00  0.00    +0.000 A 
ATOM      2  C   UNL     1       4.489   4.599  18.375  0.00  0.00    +0.000 A 
ATOM      3  C   UNL     1       3.791   4.348  19.643  0.00  0.00    +0.000 A 
ATOM      4  O   UNL     1       3.957   3.292  20.241  0.00  0.00    +0.000 OA
ATOM      5  N   UNL     1       2.949   5.321  20.080  0.00  0.00    +0.000 N 
ATOM      6  C   UNL     1       2.739   6.531  19.408  0.00  0.00    +0.000 A 
ATOM      7  C   UNL     1       1.830   7.453  19.935  0.00  0.00    +0.000 A 
ATOM      8  C   UNL     1       1.586   8.661  19.268  0.00  0.00    +0.000 A 
ATOM      9  C   UNL     1       2.263   8.923  18.071  0.00  0.00    +0.000 A 
ATOM     10  C   UNL     1       3.165   7.993  17.545  0.00  0.00    +0.000 A 
ATOM     11  C   UNL     1       3.422   6.785  18.207  0.00  0.00    +0.000 A 
ATOM     12  H   UNL     1       2.459   5.116  20.940  0.00  0.00    +0.000 HD
ENDROOT
BRANCH   1  14
ATOM     13  O   UNL     1       4.984   6.844  15.718  0.00  0.00    +0.000 OA
ATOM     14  C   UNL     1       5.003   5.815  16.356  0.00  0.00    +0.000 C 
ATOM     15  N   UNL     1       5.523   4.604  15.915  0.00  0.00    +0.000 N 
ATOM     16  H   UNL     1       5.261   3.761  16.401  0.00  0.00    +0.000 HD
BRANCH  15  17
ATOM     17  C   UNL     1       6.128   4.442  14.656  0.00  0.00    +0.000 A 
ATOM     18  C   UNL     1       7.259   5.168  14.280  0.00  0.00    +0.000 A 
ATOM     19  C   UNL     1       7.749   5.076  12.984  0.00  0.00    +0.000 A 
ATOM     20  F   UNL     1       8.830   5.787  12.639  0.00  0.00    +0.000 F 
ATOM     21  C   UNL     1       7.135   4.262  12.049  0.00  0.00    +0.000 A 
ATOM     22  C   UNL     1       6.040   3.507  12.441  0.00  0.00    +0.000 A 
ATOM     23  F   UNL     1       5.425   2.730  11.541  0.00  0.00    +0.000 F 
ATOM     24  C   UNL     1       5.542   3.565  13.742  0.00  0.00    +0.000 A 
ENDBRANCH  15  17
ENDBRANCH   1  14
BRANCH   8  25
ATOM     25  C   UNL     1       0.611   9.676  19.812  0.00  0.00    +0.000 C 
ATOM     26  F   UNL     1      -0.049   9.229  20.918  0.00  0.00    +0.000 F 
ATOM     27  F   UNL     1       1.218  10.836  20.181  0.00  0.00    +0.000 F 
ATOM     28  F   UNL     1      -0.352  10.024  18.917  0.00  0.00    +0.000 F 
ENDBRANCH   8  25
TORSDOF 3
ENDMDL
MODEL 7
REMARK VINA RESULT:      -8.6      3.502      8.240
REMARK  Name = 
REMARK  3 active torsions:
REMARK  status: ('A' for Active; 'I' for Inactive)
REMARK    1  A    between atoms: C_2  and  C_12
REMARK    2  A    between atoms: N_3  and  C_4
REMARK    3  A    between atoms: C_19  and  C_20
REMARK                            x       y       z     vdW  Elec       q    Type
REMARK                         _______ _______ _______ _____ _____    ______ ____
ROOT
ATOM      1  C   UNL     1       4.262   5.595  17.747  0.00  0.00    +0.000 A 
ATOM      2  C   UNL     1       4.493   4.442  18.387  0.00  0.00    +0.000 A 
ATOM      3  C   UNL     1       3.858   4.131  19.675  0.00  0.00    +0.000 A 
ATOM      4  O   UNL     1       4.069   3.057  20.225  0.00  0.00    +0.000 OA
ATOM      5  N   UNL     1       3.019   5.072  20.186  0.00  0.00    +0.000 N 
ATOM      6  C   UNL     1       2.758   6.301  19.570  0.00  0.00    +0.000 A 
ATOM      7  C   UNL     1       1.858   7.185  20.171  0.00  0.00    +0.000 A 
ATOM      8  C   UNL     1       1.563   8.413  19.562  0.00  0.00    +0.000 A 
ATOM      9  C   UNL     1       2.181   8.731  18.346  0.00  0.00    +0.000 A 
ATOM     10  C   UNL     1       3.074   7.838  17.746  0.00  0.00    +0.000 A 
ATOM     11  C   UNL     1       3.382   6.612  18.350  0.00  0.00    +0.000 A 
ATOM     12  H   UNL     1       2.573   4.825  21.059  0.00  0.00    +0.000 HD
ENDROOT
BRANCH   1  14
ATOM     13  O   UNL     1       4.878   6.808  15.823  0.00  0.00    +0.000 OA
ATOM     14  C   UNL     1       4.893   5.741  16.395  0.00  0.00    +0.000 C 
ATOM     15  N   UNL     1       5.350   4.544  15.855  0.00  0.00    +0.000 N 
ATOM     16  H   UNL     1       5.084   3.681  16.301  0.00  0.00    +0.000 HD
BRANCH  15  17
ATOM     17  C   UNL     1       5.888   4.443  14.559  0.00  0.00    +0.000 A 
ATOM     18  C   UNL     1       5.342   3.593  13.596  0.00  0.00    +0.000 A 
ATOM     19  C   UNL     1       5.978   3.425  12.373  0.00  0.00    +0.000 A 
ATOM     20  F   UNL     1       5.444   2.598  11.465  0.00  0.00    +0.000 F 
ATOM     21  C   UNL     1       7.153   4.096  12.084  0.00  0.00    +0.000 A 
ATOM     22  C   UNL     1       7.666   4.975  13.027  0.00  0.00    +0.000 A 
ATOM     23  F   UNL     1       8.811   5.617  12.768  0.00  0.00    +0.000 F 
ATOM     24  C   UNL     1       7.034   5.179  14.253  0.00  0.00    +0.000 A 
ENDBRANCH  15  17
ENDBRANCH   1  14
BRANCH   8  25
ATOM     25  C   UNL     1       0.597   9.388  20.187  0.00  0.00    +0.000 C 
ATOM     26  F   UNL     1       1.218  10.490  20.694  0.00  0.00    +0.000 F 
ATOM     27  F   UNL     1      -0.323   9.851  19.299  0.00  0.00    +0.000 F 
ATOM     28  F   UNL     1      -0.111   8.851  21.217  0.00  0.00    +0.000 F 
ENDBRANCH   8  25
TORSDOF 3
ENDMDL
MODEL 8
REMARK VINA RESULT:      -8.5      1.961      7.476
REMARK  Name = 
REMARK  3 active torsions:
REMARK  status: ('A' for Active; 'I' for Inactive)
REMARK    1  A    between atoms: C_2  and  C_12
REMARK    2  A    between atoms: N_3  and  C_4
REMARK    3  A    between atoms: C_19  and  C_20
REMARK                            x       y       z     vdW  Elec       q    Type
REMARK                         _______ _______ _______ _____ _____    ______ ____
ROOT
ATOM      1  C   UNL     1       5.738   5.128  16.893  0.00  0.00    +0.000 A 
ATOM      2  C   UNL     1       6.909   5.404  17.483  0.00  0.00    +0.000 A 
ATOM      3  C   UNL     1       7.063   5.380  18.944  0.00  0.00    +0.000 A 
ATOM      4  O   UNL     1       8.152   5.612  19.454  0.00  0.00    +0.000 OA
ATOM      5  N   UNL     1       5.959   5.060  19.670  0.00  0.00    +0.000 N 
ATOM      6  C   UNL     1       4.708   4.784  19.107  0.00  0.00    +0.000 A 
ATOM      7  C   UNL     1       3.645   4.441  19.947  0.00  0.00    +0.000 A 
ATOM      8  C   UNL     1       2.388   4.138  19.405  0.00  0.00    +0.000 A 
ATOM      9  C   UNL     1       2.222   4.181  18.016  0.00  0.00    +0.000 A 
ATOM     10  C   UNL     1       3.292   4.516  17.181  0.00  0.00    +0.000 A 
ATOM     11  C   UNL     1       4.549   4.829  17.712  0.00  0.00    +0.000 A 
ATOM     12  H   UNL     1       6.095   5.023  20.672  0.00  0.00    +0.000 HD
ENDROOT
BRANCH   1  14
ATOM     13  O   UNL     1       5.601   6.105  14.753  0.00  0.00    +0.000 OA
ATOM     14  C   UNL     1       5.744   5.088  15.394  0.00  0.00    +0.000 C 
ATOM     15  N   UNL     1       5.798   3.804  14.865  0.00  0.00    +0.000 N 
ATOM     16  H   UNL     1       5.657   3.021  15.484  0.00  0.00    +0.000 HD
BRANCH  15  17
ATOM     17  C   UNL     1       5.718   3.539  13.486  0.00  0.00    +0.000 A 
ATOM     18  C   UNL     1       4.511   3.606  12.789  0.00  0.00    +0.000 A 
ATOM     19  C   UNL     1       4.450   3.212  11.459  0.00  0.00    +0.000 A 
ATOM     20  F   UNL     1       3.281   3.275  10.808  0.00  0.00    +0.000 F 
ATOM     21  C   UNL     1       5.578   2.754  10.801  0.00  0.00    +0.000 A 
ATOM     22  C   UNL     1       6.785   2.733  11.485  0.00  0.00    +0.000 A 
ATOM     23  F   UNL     1       7.880   2.274  10.867  0.00  0.00    +0.000 F 
ATOM     24  C   UNL     1       6.876   3.145  12.814  0.00  0.00    +0.000 A 
ENDBRANCH  15  17
ENDBRANCH   1  14
BRANCH   8  25
ATOM     25  C   UNL     1       1.221   3.766  20.286  0.00  0.00    +0.000 C 
ATOM     26  F   UNL     1       1.606   3.106  21.416  0.00  0.00    +0.000 F 
ATOM     27  F   UNL     1       0.519   4.852  20.707  0.00  0.00    +0.000 F 
ATOM     28  F   UNL     1       0.323   2.954  19.667  0.00  0.00    +0.000 F 
ENDBRANCH   8  25
TORSDOF 3
ENDMDL
MODEL 9
REMARK VINA RESULT:      -8.4      5.061      6.201
REMARK  Name = 
REMARK  3 active torsions:
REMARK  status: ('A' for Active; 'I' for Inactive)
REMARK    1  A    between atoms: C_2  and  C_12
REMARK    2  A    between atoms: N_3  and  C_4
REMARK    3  A    between atoms: C_19  and  C_20
REMARK                            x       y       z     vdW  Elec       q    Type
REMARK                         _______ _______ _______ _____ _____    ______ ____
ROOT
ATOM      1  C   UNL     1       2.438   6.157  18.772  0.00  0.00    +0.000 A 
ATOM      2  C   UNL     1       1.773   5.202  19.435  0.00  0.00    +0.000 A 
ATOM      3  C   UNL     1       2.048   3.775  19.220  0.00  0.00    +0.000 A 
ATOM      4  O   UNL     1       1.442   2.925  19.860  0.00  0.00    +0.000 OA
ATOM      5  N   UNL     1       3.015   3.469  18.314  0.00  0.00    +0.000 N 
ATOM      6  C   UNL     1       3.726   4.424  17.578  0.00  0.00    +0.000 A 
ATOM      7  C   UNL     1       4.718   3.999  16.691  0.00  0.00    +0.000 A 
ATOM      8  C   UNL     1       5.458   4.938  15.960  0.00  0.00    +0.000 A 
ATOM      9  C   UNL     1       5.189   6.300  16.138  0.00  0.00    +0.000 A 
ATOM     10  C   UNL     1       4.201   6.719  17.034  0.00  0.00    +0.000 A 
ATOM     11  C   UNL     1       3.449   5.789  17.764  0.00  0.00    +0.000 A 
ATOM     12  H   UNL     1       3.206   2.482  18.202  0.00  0.00    +0.000 HD
ENDROOT
BRANCH   1  14
ATOM     13  O   UNL     1       2.056   7.884  20.328  0.00  0.00    +0.000 OA
ATOM     14  C   UNL     1       2.131   7.571  19.161  0.00  0.00    +0.000 C 
ATOM     15  N   UNL     1       1.829   8.398  18.085  0.00  0.00    +0.000 N 
ATOM     16  H   UNL     1       1.671   7.978  17.183  0.00  0.00    +0.000 HD
BRANCH  15  17
ATOM     17  C   UNL     1       1.420   9.736  18.237  0.00  0.00    +0.000 A 
ATOM     18  C   UNL     1       2.321  10.799  18.151  0.00  0.00    +0.000 A 
ATOM     19  C   UNL     1       1.903  12.092  18.434  0.00  0.00    +0.000 A 
ATOM     20  F   UNL     1       2.783  13.098  18.355  0.00  0.00    +0.000 F 
ATOM     21  C   UNL     1       0.594  12.352  18.799  0.00  0.00    +0.000 A 
ATOM     22  C   UNL     1      -0.308  11.299  18.838  0.00  0.00    +0.000 A 
ATOM     23  F   UNL     1      -1.573  11.533  19.208  0.00  0.00    +0.000 F 
ATOM     24  C   UNL     1       0.082   9.994  18.536  0.00  0.00    +0.000 A 
ENDBRANCH  15  17
ENDBRANCH   1  14
BRANCH   8  25
ATOM     25  C   UNL     1       6.535   4.510  14.993  0.00  0.00    +0.000 C 
ATOM     26  F   UNL     1       7.752   4.371  15.591  0.00  0.00    +0.000 F 
ATOM     27  F   UNL     1       6.264   3.311  14.410  0.00  0.00    +0.000 F 
ATOM     28  F   UNL     1       6.717   5.391  13.973  0.00  0.00    +0.000 F 
ENDBRANCH   8  25
TORSDOF 3
ENDMDL
