MODEL 1
REMARK VINA RESULT:      -6.7      0.000      0.000
REMARK  Name = 
REMARK  10 active torsions:
REMARK  status: ('A' for Active; 'I' for Inactive)
REMARK    1  A    between atoms: C_1  and  O_2
REMARK    2  A    between atoms: O_2  and  C_3
REMARK    3  A    between atoms: C_5  and  O_6
REMARK    4  A    between atoms: O_6  and  C_7
REMARK    5  A    between atoms: C_12  and  O_13
REMARK    6  A    between atoms: O_13  and  C_14
REMARK    7  A    between atoms: C_15  and  O_16
REMARK    8  A    between atoms: O_16  and  C_17
REMARK    9  A    between atoms: C_23  and  O_24
REMARK   10  A    between atoms: O_24  and  C_25
REMARK                            x       y       z     vdW  Elec       q    Type
REMARK                         _______ _______ _______ _____ _____    ______ ____
ROOT
ATOM      1  C   UNL     1       1.586   3.780  20.135  0.00  0.00    +0.000 A 
ATOM      2  C   UNL     1       1.840   5.121  20.454  0.00  0.00    +0.000 A 
ATOM      3  C   UNL     1       2.712   5.913  19.704  0.00  0.00    +0.000 A 
ATOM      4  C   UNL     1       3.374   5.340  18.624  0.00  0.00    +0.000 A 
ATOM      5  C   UNL     1       4.129   6.107  17.617  0.00  0.00    +0.000 A 
ATOM      6  O   UNL     1       3.810   7.252  17.349  0.00  0.00    +0.000 OA
ATOM      7  C   UNL     1       5.149   5.400  16.834  0.00  0.00    +0.000 A 
ATOM      8  C   UNL     1       6.215   6.035  16.160  0.00  0.00    +0.000 A 
ATOM      9  C   UNL     1       6.963   5.280  15.232  0.00  0.00    +0.000 A 
ATOM     10  C   UNL     1       6.645   3.929  15.019  0.00  0.00    +0.000 A 
ATOM     11  C   UNL     1       5.623   3.305  15.731  0.00  0.00    +0.000 A 
ATOM     12  C   UNL     1       4.885   4.037  16.656  0.00  0.00    +0.000 A 
ATOM     13  O   UNL     1       3.874   3.358  17.295  0.00  0.00    +0.000 OA
ATOM     14  C   UNL     1       3.215   3.976  18.343  0.00  0.00    +0.000 A 
ATOM     15  C   UNL     1       2.302   3.180  19.083  0.00  0.00    +0.000 A 
ENDROOT
BRANCH   1  17
ATOM     16  C   UNL     1       1.170   2.412  22.027  0.00  0.00    +0.000 C 
ATOM     17  O   UNL     1       0.670   3.053  20.852  0.00  0.00    +0.000 OA
ENDBRANCH   1  17
BRANCH   3  18
ATOM     18  O   UNL     1       2.694   7.218  20.118  0.00  0.00    +0.000 OA
ATOM     19  C   UNL     1       1.529   7.690  20.777  0.00  0.00    +0.000 C 
ENDBRANCH   3  18
BRANCH   8  20
ATOM     20  O   UNL     1       6.504   7.371  16.250  0.00  0.00    +0.000 OA
ATOM     21  C   UNL     1       7.376   7.800  17.288  0.00  0.00    +0.000 C 
ENDBRANCH   8  20
BRANCH   9  22
ATOM     22  O   UNL     1       8.005   5.681  14.436  0.00  0.00    +0.000 OA
ATOM     23  C   UNL     1       7.979   5.390  13.046  0.00  0.00    +0.000 C 
ENDBRANCH   9  22
BRANCH  15  24
ATOM     24  O   UNL     1       2.207   1.883  18.646  0.00  0.00    +0.000 OA
ATOM     25  C   UNL     1       3.291   0.991  18.860  0.00  0.00    +0.000 C 
ENDBRANCH  15  24
TORSDOF 5
ENDMDL
MODEL 2
REMARK VINA RESULT:      -6.5      2.355      6.020
REMARK  Name = 
REMARK  10 active torsions:
REMARK  status: ('A' for Active; 'I' for Inactive)
REMARK    1  A    between atoms: C_1  and  O_2
REMARK    2  A    between atoms: O_2  and  C_3
REMARK    3  A    between atoms: C_5  and  O_6
REMARK    4  A    between atoms: O_6  and  C_7
REMARK    5  A    between atoms: C_12  and  O_13
REMARK    6  A    between atoms: O_13  and  C_14
REMARK    7  A    between atoms: C_15  and  O_16
REMARK    8  A    between atoms: O_16  and  C_17
REMARK    9  A    between atoms: C_23  and  O_24
REMARK   10  A    between atoms: O_24  and  C_25
REMARK                            x       y       z     vdW  Elec       q    Type
REMARK                         _______ _______ _______ _____ _____    ______ ____
ROOT
ATOM      1  C   UNL     1       3.762   3.418  19.190  0.00  0.00    +0.000 A 
ATOM      2  C   UNL     1       4.101   3.946  17.937  0.00  0.00    +0.000 A 
ATOM      3  C   UNL     1       3.819   5.268  17.585  0.00  0.00    +0.000 A 
ATOM      4  C   UNL     1       3.149   6.075  18.497  0.00  0.00    +0.000 A 
ATOM      5  C   UNL     1       2.999   7.534  18.354  0.00  0.00    +0.000 A 
ATOM      6  O   UNL     1       3.844   8.185  17.765  0.00  0.00    +0.000 OA
ATOM      7  C   UNL     1       1.908   8.189  19.084  0.00  0.00    +0.000 A 
ATOM      8  C   UNL     1       1.372   9.452  18.747  0.00  0.00    +0.000 A 
ATOM      9  C   UNL     1       0.520  10.085  19.676  0.00  0.00    +0.000 A 
ATOM     10  C   UNL     1       0.215   9.445  20.888  0.00  0.00    +0.000 A 
ATOM     11  C   UNL     1       0.711   8.177  21.181  0.00  0.00    +0.000 A 
ATOM     12  C   UNL     1       1.545   7.538  20.268  0.00  0.00    +0.000 A 
ATOM     13  O   UNL     1       2.018   6.303  20.645  0.00  0.00    +0.000 OA
ATOM     14  C   UNL     1       2.711   5.543  19.717  0.00  0.00    +0.000 A 
ATOM     15  C   UNL     1       3.028   4.211  20.091  0.00  0.00    +0.000 A 
ENDROOT
BRANCH   1  17
ATOM     16  C   UNL     1       3.720   1.119  18.606  0.00  0.00    +0.000 C 
ATOM     17  O   UNL     1       4.117   2.136  19.528  0.00  0.00    +0.000 OA
ENDBRANCH   1  17
BRANCH   3  18
ATOM     18  O   UNL     1       4.365   5.596  16.372  0.00  0.00    +0.000 OA
ATOM     19  C   UNL     1       5.703   5.198  16.117  0.00  0.00    +0.000 C 
ENDBRANCH   3  18
BRANCH   8  20
ATOM     20  O   UNL     1       1.715  10.167  17.631  0.00  0.00    +0.000 OA
ATOM     21  C   UNL     1       2.473  11.358  17.804  0.00  0.00    +0.000 C 
ENDBRANCH   8  20
BRANCH   9  22
ATOM     22  O   UNL     1      -0.083  11.315  19.593  0.00  0.00    +0.000 OA
ATOM     23  C   UNL     1      -1.332  11.441  18.930  0.00  0.00    +0.000 C 
ENDBRANCH   9  22
BRANCH  15  24
ATOM     24  O   UNL     1       2.588   3.859  21.342  0.00  0.00    +0.000 OA
ATOM     25  C   UNL     1       1.521   2.932  21.473  0.00  0.00    +0.000 C 
ENDBRANCH  15  24
TORSDOF 5
ENDMDL
MODEL 3
REMARK VINA RESULT:      -6.4      3.150      6.253
REMARK  Name = 
REMARK  10 active torsions:
REMARK  status: ('A' for Active; 'I' for Inactive)
REMARK    1  A    between atoms: C_1  and  O_2
REMARK    2  A    between atoms: O_2  and  C_3
REMARK    3  A    between atoms: C_5  and  O_6
REMARK    4  A    between atoms: O_6  and  C_7
REMARK    5  A    between atoms: C_12  and  O_13
REMARK    6  A    between atoms: O_13  and  C_14
REMARK    7  A    between atoms: C_15  and  O_16
REMARK    8  A    between atoms: O_16  and  C_17
REMARK    9  A    between atoms: C_23  and  O_24
REMARK   10  A    between atoms: O_24  and  C_25
REMARK                            x       y       z     vdW  Elec       q    Type
REMARK                         _______ _______ _______ _____ _____    ______ ____
ROOT
ATOM      1  C   UNL     1       0.129  11.245  20.842  0.00  0.00    +0.000 A 
ATOM      2  C   UNL     1       0.893  11.712  19.764  0.00  0.00    +0.000 A 
ATOM      3  C   UNL     1       1.642  10.854  18.956  0.00  0.00    +0.000 A 
ATOM      4  C   UNL     1       1.656   9.496  19.254  0.00  0.00    +0.000 A 
ATOM      5  C   UNL     1       2.203   8.460  18.359  0.00  0.00    +0.000 A 
ATOM      6  O   UNL     1       2.192   8.621  17.151  0.00  0.00    +0.000 OA
ATOM      7  C   UNL     1       2.595   7.176  18.951  0.00  0.00    +0.000 A 
ATOM      8  C   UNL     1       3.492   6.265  18.352  0.00  0.00    +0.000 A 
ATOM      9  C   UNL     1       3.577   4.962  18.885  0.00  0.00    +0.000 A 
ATOM     10  C   UNL     1       2.792   4.614  19.996  0.00  0.00    +0.000 A 
ATOM     11  C   UNL     1       1.951   5.540  20.607  0.00  0.00    +0.000 A 
ATOM     12  C   UNL     1       1.866   6.832  20.095  0.00  0.00    +0.000 A 
ATOM     13  O   UNL     1       0.990   7.678  20.735  0.00  0.00    +0.000 OA
ATOM     14  C   UNL     1       0.982   9.017  20.385  0.00  0.00    +0.000 A 
ATOM     15  C   UNL     1       0.192   9.883  21.186  0.00  0.00    +0.000 A 
ENDROOT
BRANCH   1  17
ATOM     16  C   UNL     1      -1.931  12.410  21.013  0.00  0.00    +0.000 C 
ATOM     17  O   UNL     1      -0.650  12.108  21.571  0.00  0.00    +0.000 OA
ENDBRANCH   1  17
BRANCH   3  18
ATOM     18  O   UNL     1       2.190  11.514  17.887  0.00  0.00    +0.000 OA
ATOM     19  C   UNL     1       2.538  12.879  18.057  0.00  0.00    +0.000 C 
ENDBRANCH   3  18
BRANCH   8  20
ATOM     20  O   UNL     1       4.203   6.515  17.208  0.00  0.00    +0.000 OA
ATOM     21  C   UNL     1       5.567   6.898  17.336  0.00  0.00    +0.000 C 
ENDBRANCH   8  20
BRANCH   9  22
ATOM     22  O   UNL     1       4.336   3.903  18.456  0.00  0.00    +0.000 OA
ATOM     23  C   UNL     1       3.716   2.833  17.758  0.00  0.00    +0.000 C 
ENDBRANCH   9  22
BRANCH  15  24
ATOM     24  O   UNL     1      -0.461   9.254  22.216  0.00  0.00    +0.000 OA
ATOM     25  C   UNL     1      -0.023   9.460  23.550  0.00  0.00    +0.000 C 
ENDBRANCH  15  24
TORSDOF 5
ENDMDL
MODEL 4
REMARK VINA RESULT:      -6.1      1.765      4.328
REMARK  Name = 
REMARK  10 active torsions:
REMARK  status: ('A' for Active; 'I' for Inactive)
REMARK    1  A    between atoms: C_1  and  O_2
REMARK    2  A    between atoms: O_2  and  C_3
REMARK    3  A    between atoms: C_5  and  O_6
REMARK    4  A    between atoms: O_6  and  C_7
REMARK    5  A    between atoms: C_12  and  O_13
REMARK    6  A    between atoms: O_13  and  C_14
REMARK    7  A    between atoms: C_15  and  O_16
REMARK    8  A    between atoms: O_16  and  C_17
REMARK    9  A    between atoms: C_23  and  O_24
REMARK   10  A    between atoms: O_24  and  C_25
REMARK                            x       y       z     vdW  Elec       q    Type
REMARK                         _______ _______ _______ _____ _____    ______ ____
ROOT
ATOM      1  C   UNL     1       1.207   7.919  20.589  0.00  0.00    +0.000 A 
ATOM      2  C   UNL     1       1.119   6.614  21.090  0.00  0.00    +0.000 A 
ATOM      3  C   UNL     1       1.876   5.563  20.567  0.00  0.00    +0.000 A 
ATOM      4  C   UNL     1       2.719   5.817  19.492  0.00  0.00    +0.000 A 
ATOM      5  C   UNL     1       3.737   4.871  18.999  0.00  0.00    +0.000 A 
ATOM      6  O   UNL     1       4.264   4.081  19.763  0.00  0.00    +0.000 OA
ATOM      7  C   UNL     1       4.215   5.029  17.621  0.00  0.00    +0.000 A 
ATOM      8  C   UNL     1       4.840   4.006  16.874  0.00  0.00    +0.000 A 
ATOM      9  C   UNL     1       5.488   4.358  15.672  0.00  0.00    +0.000 A 
ATOM     10  C   UNL     1       5.480   5.696  15.244  0.00  0.00    +0.000 A 
ATOM     11  C   UNL     1       4.815   6.683  15.966  0.00  0.00    +0.000 A 
ATOM     12  C   UNL     1       4.163   6.346  17.149  0.00  0.00    +0.000 A 
ATOM     13  O   UNL     1       3.556   7.382  17.820  0.00  0.00    +0.000 OA
ATOM     14  C   UNL     1       2.751   7.091  18.908  0.00  0.00    +0.000 A 
ATOM     15  C   UNL     1       2.010   8.167  19.461  0.00  0.00    +0.000 A 
ENDROOT
BRANCH   1  17
ATOM     16  C   UNL     1       0.929   9.322  22.483  0.00  0.00    +0.000 C 
ATOM     17  O   UNL     1       0.501   8.940  21.174  0.00  0.00    +0.000 OA
ENDBRANCH   1  17
BRANCH   3  18
ATOM     18  O   UNL     1       1.728   4.417  21.303  0.00  0.00    +0.000 OA
ATOM     19  C   UNL     1       1.004   3.343  20.723  0.00  0.00    +0.000 C 
ENDBRANCH   3  18
BRANCH   8  20
ATOM     20  O   UNL     1       4.969   2.709  17.293  0.00  0.00    +0.000 OA
ATOM     21  C   UNL     1       3.787   1.935  17.454  0.00  0.00    +0.000 C 
ENDBRANCH   8  20
BRANCH   9  22
ATOM     22  O   UNL     1       6.190   3.559  14.805  0.00  0.00    +0.000 OA
ATOM     23  C   UNL     1       6.210   3.872  13.421  0.00  0.00    +0.000 C 
ENDBRANCH   9  22
BRANCH  15  24
ATOM     24  O   UNL     1       2.198   9.366  18.821  0.00  0.00    +0.000 OA
ATOM     25  C   UNL     1       1.150   9.909  18.032  0.00  0.00    +0.000 C 
ENDBRANCH  15  24
TORSDOF 5
ENDMDL
MODEL 5
REMARK VINA RESULT:      -6.0      2.469      6.702
REMARK  Name = 
REMARK  10 active torsions:
REMARK  status: ('A' for Active; 'I' for Inactive)
REMARK    1  A    between atoms: C_1  and  O_2
REMARK    2  A    between atoms: O_2  and  C_3
REMARK    3  A    between atoms: C_5  and  O_6
REMARK    4  A    between atoms: O_6  and  C_7
REMARK    5  A    between atoms: C_12  and  O_13
REMARK    6  A    between atoms: O_13  and  C_14
REMARK    7  A    between atoms: C_15  and  O_16
REMARK    8  A    between atoms: O_16  and  C_17
REMARK    9  A    between atoms: C_23  and  O_24
REMARK   10  A    between atoms: O_24  and  C_25
REMARK                            x       y       z     vdW  Elec       q    Type
REMARK                         _______ _______ _______ _____ _____    ______ ____
ROOT
ATOM      1  C   UNL     1       5.306   4.789  17.905  0.00  0.00    +0.000 A 
ATOM      2  C   UNL     1       4.855   4.293  19.135  0.00  0.00    +0.000 A 
ATOM      3  C   UNL     1       3.825   4.906  19.852  0.00  0.00    +0.000 A 
ATOM      4  C   UNL     1       3.252   6.065  19.342  0.00  0.00    +0.000 A 
ATOM      5  C   UNL     1       2.016   6.675  19.864  0.00  0.00    +0.000 A 
ATOM      6  O   UNL     1       1.159   5.982  20.382  0.00  0.00    +0.000 OA
ATOM      7  C   UNL     1       1.778   8.096  19.586  0.00  0.00    +0.000 A 
ATOM      8  C   UNL     1       0.904   8.916  20.332  0.00  0.00    +0.000 A 
ATOM      9  C   UNL     1       0.561  10.179  19.806  0.00  0.00    +0.000 A 
ATOM     10  C   UNL     1       1.105  10.592  18.578  0.00  0.00    +0.000 A 
ATOM     11  C   UNL     1       2.006   9.791  17.881  0.00  0.00    +0.000 A 
ATOM     12  C   UNL     1       2.359   8.547  18.395  0.00  0.00    +0.000 A 
ATOM     13  O   UNL     1       3.230   7.804  17.633  0.00  0.00    +0.000 OA
ATOM     14  C   UNL     1       3.752   6.637  18.164  0.00  0.00    +0.000 A 
ATOM     15  C   UNL     1       4.775   5.996  17.417  0.00  0.00    +0.000 A 
ENDROOT
BRANCH   1  17
ATOM     16  C   UNL     1       7.623   4.477  17.498  0.00  0.00    +0.000 C 
ATOM     17  O   UNL     1       6.272   4.121  17.195  0.00  0.00    +0.000 OA
ENDBRANCH   1  17
BRANCH   3  18
ATOM     18  O   UNL     1       3.463   4.169  20.949  0.00  0.00    +0.000 OA
ATOM     19  C   UNL     1       2.888   2.891  20.730  0.00  0.00    +0.000 C 
ENDBRANCH   3  18
BRANCH   8  20
ATOM     20  O   UNL     1       0.264   8.527  21.478  0.00  0.00    +0.000 OA
ATOM     21  C   UNL     1       0.647   9.141  22.702  0.00  0.00    +0.000 C 
ENDBRANCH   8  20
BRANCH   9  22
ATOM     22  O   UNL     1      -0.290  11.125  20.320  0.00  0.00    +0.000 OA
ATOM     23  C   UNL     1       0.234  12.355  20.798  0.00  0.00    +0.000 C 
ENDBRANCH   9  22
BRANCH  15  24
ATOM     24  O   UNL     1       5.108   6.642  16.253  0.00  0.00    +0.000 OA
ATOM     25  C   UNL     1       5.283   5.890  15.062  0.00  0.00    +0.000 C 
ENDBRANCH  15  24
TORSDOF 5
ENDMDL
MODEL 6
REMARK VINA RESULT:      -6.0      3.259      6.682
REMARK  Name = 
REMARK  10 active torsions:
REMARK  status: ('A' for Active; 'I' for Inactive)
REMARK    1  A    between atoms: C_1  and  O_2
REMARK    2  A    between atoms: O_2  and  C_3
REMARK    3  A    between atoms: C_5  and  O_6
REMARK    4  A    between atoms: O_6  and  C_7
REMARK    5  A    between atoms: C_12  and  O_13
REMARK    6  A    between atoms: O_13  and  C_14
REMARK    7  A    between atoms: C_15  and  O_16
REMARK    8  A    between atoms: O_16  and  C_17
REMARK    9  A    between atoms: C_23  and  O_24
REMARK   10  A    between atoms: O_24  and  C_25
REMARK                            x       y       z     vdW  Elec       q    Type
REMARK                         _______ _______ _______ _____ _____    ______ ____
ROOT
ATOM      1  C   UNL     1       0.092  11.655  19.754  0.00  0.00    +0.000 A 
ATOM      2  C   UNL     1      -0.480  10.855  20.752  0.00  0.00    +0.000 A 
ATOM      3  C   UNL     1      -0.063   9.543  20.985  0.00  0.00    +0.000 A 
ATOM      4  C   UNL     1       0.931   9.003  20.177  0.00  0.00    +0.000 A 
ATOM      5  C   UNL     1       1.625   7.733  20.457  0.00  0.00    +0.000 A 
ATOM      6  O   UNL     1       1.770   7.351  21.606  0.00  0.00    +0.000 OA
ATOM      7  C   UNL     1       2.278   7.044  19.340  0.00  0.00    +0.000 A 
ATOM      8  C   UNL     1       2.606   5.670  19.335  0.00  0.00    +0.000 A 
ATOM      9  C   UNL     1       3.464   5.191  18.323  0.00  0.00    +0.000 A 
ATOM     10  C   UNL     1       3.949   6.077  17.347  0.00  0.00    +0.000 A 
ATOM     11  C   UNL     1       3.574   7.418  17.336  0.00  0.00    +0.000 A 
ATOM     12  C   UNL     1       2.720   7.899  18.324  0.00  0.00    +0.000 A 
ATOM     13  O   UNL     1       2.422   9.241  18.262  0.00  0.00    +0.000 OA
ATOM     14  C   UNL     1       1.450   9.747  19.109  0.00  0.00    +0.000 A 
ATOM     15  C   UNL     1       1.052  11.092  18.893  0.00  0.00    +0.000 A 
ENDROOT
BRANCH   1  17
ATOM     16  C   UNL     1      -1.573  13.299  20.142  0.00  0.00    +0.000 C 
ATOM     17  O   UNL     1      -0.295  12.962  19.600  0.00  0.00    +0.000 OA
ENDBRANCH   1  17
BRANCH   3  18
ATOM     18  O   UNL     1      -0.664   9.009  22.095  0.00  0.00    +0.000 OA
ATOM     19  C   UNL     1      -0.416   9.628  23.347  0.00  0.00    +0.000 C 
ENDBRANCH   3  18
BRANCH   8  20
ATOM     20  O   UNL     1       2.249   4.784  20.316  0.00  0.00    +0.000 OA
ATOM     21  C   UNL     1       1.082   3.996  20.116  0.00  0.00    +0.000 C 
ENDBRANCH   8  20
BRANCH   9  22
ATOM     22  O   UNL     1       3.952   3.923  18.135  0.00  0.00    +0.000 OA
ATOM     23  C   UNL     1       4.733   3.634  16.986  0.00  0.00    +0.000 C 
ENDBRANCH   9  22
BRANCH  15  24
ATOM     24  O   UNL     1       1.698  11.709  17.852  0.00  0.00    +0.000 OA
ATOM     25  C   UNL     1       2.616  12.758  18.122  0.00  0.00    +0.000 C 
ENDBRANCH  15  24
TORSDOF 5
ENDMDL
MODEL 7
REMARK VINA RESULT:      -5.8      1.495      6.472
REMARK  Name = 
REMARK  10 active torsions:
REMARK  status: ('A' for Active; 'I' for Inactive)
REMARK    1  A    between atoms: C_1  and  O_2
REMARK    2  A    between atoms: O_2  and  C_3
REMARK    3  A    between atoms: C_5  and  O_6
REMARK    4  A    between atoms: O_6  and  C_7
REMARK    5  A    between atoms: C_12  and  O_13
REMARK    6  A    between atoms: O_13  and  C_14
REMARK    7  A    between atoms: C_15  and  O_16
REMARK    8  A    between atoms: O_16  and  C_17
REMARK    9  A    between atoms: C_23  and  O_24
REMARK   10  A    between atoms: O_24  and  C_25
REMARK                            x       y       z     vdW  Elec       q    Type
REMARK                         _______ _______ _______ _____ _____    ______ ____
ROOT
ATOM      1  C   UNL     1       7.463   5.317  15.056  0.00  0.00    +0.000 A 
ATOM      2  C   UNL     1       7.532   6.332  16.019  0.00  0.00    +0.000 A 
ATOM      3  C   UNL     1       6.734   6.326  17.165  0.00  0.00    +0.000 A 
ATOM      4  C   UNL     1       5.818   5.295  17.337  0.00  0.00    +0.000 A 
ATOM      5  C   UNL     1       5.091   5.037  18.593  0.00  0.00    +0.000 A 
ATOM      6  O   UNL     1       5.588   5.334  19.665  0.00  0.00    +0.000 OA
ATOM      7  C   UNL     1       3.846   4.264  18.522  0.00  0.00    +0.000 A 
ATOM      8  C   UNL     1       2.839   4.285  19.513  0.00  0.00    +0.000 A 
ATOM      9  C   UNL     1       1.827   3.304  19.457  0.00  0.00    +0.000 A 
ATOM     10  C   UNL     1       1.834   2.356  18.421  0.00  0.00    +0.000 A 
ATOM     11  C   UNL     1       2.805   2.383  17.423  0.00  0.00    +0.000 A 
ATOM     12  C   UNL     1       3.803   3.352  17.462  0.00  0.00    +0.000 A 
ATOM     13  O   UNL     1       4.742   3.291  16.458  0.00  0.00    +0.000 OA
ATOM     14  C   UNL     1       5.659   4.322  16.342  0.00  0.00    +0.000 A 
ATOM     15  C   UNL     1       6.494   4.307  15.194  0.00  0.00    +0.000 A 
ENDROOT
BRANCH   1  17
ATOM     16  C   UNL     1       7.758   5.805  12.753  0.00  0.00    +0.000 C 
ATOM     17  O   UNL     1       8.312   5.319  13.977  0.00  0.00    +0.000 OA
ENDBRANCH   1  17
BRANCH   3  18
ATOM     18  O   UNL     1       7.074   7.338  18.024  0.00  0.00    +0.000 OA
ATOM     19  C   UNL     1       7.901   8.379  17.530  0.00  0.00    +0.000 C 
ENDBRANCH   3  18
BRANCH   8  20
ATOM     20  O   UNL     1       2.839   5.117  20.601  0.00  0.00    +0.000 OA
ATOM     21  C   UNL     1       2.071   6.311  20.532  0.00  0.00    +0.000 C 
ENDBRANCH   8  20
BRANCH   9  22
ATOM     22  O   UNL     1       0.779   3.098  20.318  0.00  0.00    +0.000 OA
ATOM     23  C   UNL     1       1.030   2.589  21.620  0.00  0.00    +0.000 C 
ENDBRANCH   9  22
BRANCH  15  24
ATOM     24  O   UNL     1       6.263   3.254  14.345  0.00  0.00    +0.000 OA
ATOM     25  C   UNL     1       5.529   3.469  13.149  0.00  0.00    +0.000 C 
ENDBRANCH  15  24
TORSDOF 5
ENDMDL
MODEL 8
REMARK VINA RESULT:      -5.8      7.940     12.399
REMARK  Name = 
REMARK  10 active torsions:
REMARK  status: ('A' for Active; 'I' for Inactive)
REMARK    1  A    between atoms: C_1  and  O_2
REMARK    2  A    between atoms: O_2  and  C_3
REMARK    3  A    between atoms: C_5  and  O_6
REMARK    4  A    between atoms: O_6  and  C_7
REMARK    5  A    between atoms: C_12  and  O_13
REMARK    6  A    between atoms: O_13  and  C_14
REMARK    7  A    between atoms: C_15  and  O_16
REMARK    8  A    between atoms: O_16  and  C_17
REMARK    9  A    between atoms: C_23  and  O_24
REMARK   10  A    between atoms: O_24  and  C_25
REMARK                            x       y       z     vdW  Elec       q    Type
REMARK                         _______ _______ _______ _____ _____    ______ ____
ROOT
ATOM      1  C   UNL     1      -2.767  10.845  17.188  0.00  0.00    +0.000 A 
ATOM      2  C   UNL     1      -4.151  10.947  17.383  0.00  0.00    +0.000 A 
ATOM      3  C   UNL     1      -4.701  11.608  18.484  0.00  0.00    +0.000 A 
ATOM      4  C   UNL     1      -3.845  12.153  19.433  0.00  0.00    +0.000 A 
ATOM      5  C   UNL     1      -4.275  13.070  20.504  0.00  0.00    +0.000 A 
ATOM      6  O   UNL     1      -5.233  13.805  20.338  0.00  0.00    +0.000 OA
ATOM      7  C   UNL     1      -3.420  13.193  21.690  0.00  0.00    +0.000 A 
ATOM      8  C   UNL     1      -3.863  13.672  22.943  0.00  0.00    +0.000 A 
ATOM      9  C   UNL     1      -2.893  13.992  23.916  0.00  0.00    +0.000 A 
ATOM     10  C   UNL     1      -1.531  13.813  23.626  0.00  0.00    +0.000 A 
ATOM     11  C   UNL     1      -1.115  13.291  22.403  0.00  0.00    +0.000 A 
ATOM     12  C   UNL     1      -2.063  12.962  21.439  0.00  0.00    +0.000 A 
ATOM     13  O   UNL     1      -1.570  12.482  20.248  0.00  0.00    +0.000 OA
ATOM     14  C   UNL     1      -2.459  11.979  19.313  0.00  0.00    +0.000 A 
ATOM     15  C   UNL     1      -1.899  11.338  18.178  0.00  0.00    +0.000 A 
ENDROOT
BRANCH   1  17
ATOM     16  C   UNL     1      -3.047  10.402  14.874  0.00  0.00    +0.000 C 
ATOM     17  O   UNL     1      -2.264  10.248  16.059  0.00  0.00    +0.000 OA
ENDBRANCH   1  17
BRANCH   3  18
ATOM     18  O   UNL     1      -6.065  11.701  18.389  0.00  0.00    +0.000 OA
ATOM     19  C   UNL     1      -6.840  10.617  18.877  0.00  0.00    +0.000 C 
ENDBRANCH   3  18
BRANCH   8  20
ATOM     20  O   UNL     1      -5.166  13.964  23.245  0.00  0.00    +0.000 OA
ATOM     21  C   UNL     1      -5.959  12.948  23.847  0.00  0.00    +0.000 C 
ENDBRANCH   8  20
BRANCH   9  22
ATOM     22  O   UNL     1      -3.074  14.505  25.176  0.00  0.00    +0.000 OA
ATOM     23  C   UNL     1      -2.123  15.416  25.706  0.00  0.00    +0.000 C 
ENDBRANCH   9  22
BRANCH  15  24
ATOM     24  O   UNL     1      -0.527  11.305  18.172  0.00  0.00    +0.000 OA
ATOM     25  C   UNL     1       0.145  10.105  18.524  0.00  0.00    +0.000 C 
ENDBRANCH  15  24
TORSDOF 5
ENDMDL
MODEL 9
REMARK VINA RESULT:      -5.8      2.358      6.235
REMARK  Name = 
REMARK  10 active torsions:
REMARK  status: ('A' for Active; 'I' for Inactive)
REMARK    1  A    between atoms: C_1  and  O_2
REMARK    2  A    between atoms: O_2  and  C_3
REMARK    3  A    between atoms: C_5  and  O_6
REMARK    4  A    between atoms: O_6  and  C_7
REMARK    5  A    between atoms: C_12  and  O_13
REMARK    6  A    between atoms: O_13  and  C_14
REMARK    7  A    between atoms: C_15  and  O_16
REMARK    8  A    between atoms: O_16  and  C_17
REMARK    9  A    between atoms: C_23  and  O_24
REMARK   10  A    between atoms: O_24  and  C_25
REMARK                            x       y       z     vdW  Elec       q    Type
REMARK                         _______ _______ _______ _____ _____    ______ ____
ROOT
ATOM      1  C   UNL     1       3.876   3.719  18.583  0.00  0.00    +0.000 A 
ATOM      2  C   UNL     1       3.391   3.560  19.888  0.00  0.00    +0.000 A 
ATOM      3  C   UNL     1       2.636   4.545  20.527  0.00  0.00    +0.000 A 
ATOM      4  C   UNL     1       2.387   5.737  19.857  0.00  0.00    +0.000 A 
ATOM      5  C   UNL     1       1.420   6.753  20.310  0.00  0.00    +0.000 A 
ATOM      6  O   UNL     1       0.438   6.426  20.953  0.00  0.00    +0.000 OA
ATOM      7  C   UNL     1       1.582   8.126  19.819  0.00  0.00    +0.000 A 
ATOM      8  C   UNL     1       1.038   9.266  20.450  0.00  0.00    +0.000 A 
ATOM      9  C   UNL     1       1.037  10.486  19.742  0.00  0.00    +0.000 A 
ATOM     10  C   UNL     1       1.587  10.540  18.451  0.00  0.00    +0.000 A 
ATOM     11  C   UNL     1       2.167   9.418  17.864  0.00  0.00    +0.000 A 
ATOM     12  C   UNL     1       2.182   8.211  18.557  0.00  0.00    +0.000 A 
ATOM     13  O   UNL     1       2.744   7.144  17.897  0.00  0.00    +0.000 OA
ATOM     14  C   UNL     1       2.944   5.962  18.590  0.00  0.00    +0.000 A 
ATOM     15  C   UNL     1       3.682   4.947  17.926  0.00  0.00    +0.000 A 
ENDROOT
BRANCH   1  17
ATOM     16  C   UNL     1       3.940   1.413  18.028  0.00  0.00    +0.000 C 
ATOM     17  O   UNL     1       4.555   2.702  17.961  0.00  0.00    +0.000 OA
ENDBRANCH   1  17
BRANCH   3  18
ATOM     18  O   UNL     1       2.156   4.112  21.735  0.00  0.00    +0.000 OA
ATOM     19  C   UNL     1       1.633   2.795  21.808  0.00  0.00    +0.000 C 
ENDBRANCH   3  18
BRANCH   8  20
ATOM     20  O   UNL     1       0.397   9.250  21.660  0.00  0.00    +0.000 OA
ATOM     21  C   UNL     1       1.182   9.395  22.837  0.00  0.00    +0.000 C 
ENDBRANCH   8  20
BRANCH   9  22
ATOM     22  O   UNL     1       0.534  11.704  20.124  0.00  0.00    +0.000 OA
ATOM     23  C   UNL     1       1.423  12.733  20.532  0.00  0.00    +0.000 C 
ENDBRANCH   9  22
BRANCH  15  24
ATOM     24  O   UNL     1       4.103   5.294  16.667  0.00  0.00    +0.000 OA
ATOM     25  C   UNL     1       5.451   5.693  16.466  0.00  0.00    +0.000 C 
ENDBRANCH  15  24
TORSDOF 5
ENDMDL
