MODEL 1
REMARK VINA RESULT:      -7.8      0.000      0.000
REMARK  Name = 
REMARK  8 active torsions:
REMARK  status: ('A' for Active; 'I' for Inactive)
REMARK    1  A    between atoms: C_1  and  C_2
REMARK    2  A    between atoms: C_4  and  C_5
REMARK    3  A    between atoms: C_11  and  O_12
REMARK    4  A    between atoms: O_12  and  C_13
REMARK    5  A    between atoms: C_13  and  C_14
REMARK    6  A    between atoms: C_14  and  N_15
REMARK    7  A    between atoms: C_17  and  C_18
REMARK    8  A    between atoms: C_18  and  O_20
REMARK                            x       y       z     vdW  Elec       q    Type
REMARK                         _______ _______ _______ _____ _____    ______ ____
ROOT
ATOM      1  C   UNL     1       0.970   9.621  19.274  0.00  0.00    +0.000 C 
ATOM      2  O   UNL     1       1.275  10.096  18.185  0.00  0.00    +0.000 OA
ATOM      3  N   UNL     1       1.404   8.405  19.765  0.00  0.00    +0.000 N 
ATOM      4  C   UNL     1       2.293   7.534  19.167  0.00  0.00    +0.000 A 
ATOM      5  N   UNL     1       2.507   6.318  19.625  0.00  0.00    +0.000 NA
ATOM      6  C   UNL     1       3.450   5.658  18.828  0.00  0.00    +0.000 A 
ATOM      7  C   UNL     1       3.952   4.330  18.955  0.00  0.00    +0.000 A 
ATOM      8  C   UNL     1       4.952   3.857  18.089  0.00  0.00    +0.000 A 
ATOM      9  C   UNL     1       5.417   4.651  17.044  0.00  0.00    +0.000 A 
ATOM     10  C   UNL     1       4.938   5.958  16.888  0.00  0.00    +0.000 A 
ATOM     11  C   UNL     1       3.965   6.435  17.786  0.00  0.00    +0.000 A 
ATOM     12  S   UNL     1       3.226   7.985  17.818  0.00  0.00    +0.000 S 
ATOM     13  H   UNL     1       1.007   8.053  20.624  0.00  0.00    +0.000 HD
ENDROOT
BRANCH   1  17
ATOM     14  C   UNL     1      -2.614  12.927  20.259  0.00  0.00    +0.000 C 
ATOM     15  C   UNL     1      -1.600  11.876  20.554  0.00  0.00    +0.000 A 
ATOM     16  N   UNL     1      -0.799  11.320  19.586  0.00  0.00    +0.000 N 
ATOM     17  C   UNL     1       0.038  10.353  20.127  0.00  0.00    +0.000 A 
ATOM     18  C   UNL     1      -0.233  10.330  21.485  0.00  0.00    +0.000 A 
ATOM     19 CL   UNL     1       0.510   9.360  22.676  0.00  0.00    +0.000 Cl
ATOM     20  C   UNL     1      -1.259  11.280  21.749  0.00  0.00    +0.000 A 
ATOM     21 CL   UNL     1      -1.947  11.619  23.270  0.00  0.00    +0.000 Cl
ATOM     22  H   UNL     1      -0.807  11.559  18.600  0.00  0.00    +0.000 HD
ENDBRANCH   1  17
BRANCH   9  23
ATOM     23  C   UNL     1       6.454   4.173  16.094  0.00  0.00    +0.000 C 
ATOM     24  O   UNL     1       7.540   4.715  15.981  0.00  0.00    +0.000 OA
BRANCH  23  25
ATOM     25  O   UNL     1       6.070   3.127  15.334  0.00  0.00    +0.000 OA
ATOM     26  H   UNL     1       6.752   2.455  15.156  0.00  0.00    +0.000 HD
ENDBRANCH  23  25
ENDBRANCH   9  23
BRANCH   7  27
ATOM     27  O   UNL     1       3.609   3.429  19.952  0.00  0.00    +0.000 OA
BRANCH  27  28
ATOM     28  C   UNL     1       2.373   2.742  19.719  0.00  0.00    +0.000 C 
BRANCH  28  29
ATOM     29  C   UNL     1       1.513   2.877  20.987  0.00  0.00    +0.000 C 
BRANCH  29  30
ATOM     30  N   UNL     1       2.309   3.008  22.207  0.00  0.00    +0.000 NA
ATOM     31  H   UNL     1       1.990   3.822  22.734  0.00  0.00    +0.000 HD
ATOM     32  H   UNL     1       3.278   3.204  21.956  0.00  0.00    +0.000 HD
ENDBRANCH  29  30
ENDBRANCH  28  29
ENDBRANCH  27  28
ENDBRANCH   7  27
TORSDOF 7
ENDMDL
MODEL 2
REMARK VINA RESULT:      -7.7      1.423      1.694
REMARK  Name = 
REMARK  8 active torsions:
REMARK  status: ('A' for Active; 'I' for Inactive)
REMARK    1  A    between atoms: C_1  and  C_2
REMARK    2  A    between atoms: C_4  and  C_5
REMARK    3  A    between atoms: C_11  and  O_12
REMARK    4  A    between atoms: O_12  and  C_13
REMARK    5  A    between atoms: C_13  and  C_14
REMARK    6  A    between atoms: C_14  and  N_15
REMARK    7  A    between atoms: C_17  and  C_18
REMARK    8  A    between atoms: C_18  and  O_20
REMARK                            x       y       z     vdW  Elec       q    Type
REMARK                         _______ _______ _______ _____ _____    ______ ____
ROOT
ATOM      1  C   UNL     1       0.971   9.713  18.943  0.00  0.00    +0.000 C 
ATOM      2  O   UNL     1       1.297  10.137  17.839  0.00  0.00    +0.000 OA
ATOM      3  N   UNL     1       1.406   8.528  19.503  0.00  0.00    +0.000 N 
ATOM      4  C   UNL     1       2.319   7.640  18.970  0.00  0.00    +0.000 A 
ATOM      5  N   UNL     1       2.534   6.450  19.492  0.00  0.00    +0.000 NA
ATOM      6  C   UNL     1       3.504   5.763  18.751  0.00  0.00    +0.000 A 
ATOM      7  C   UNL     1       4.017   4.448  18.956  0.00  0.00    +0.000 A 
ATOM      8  C   UNL     1       5.043   3.947  18.137  0.00  0.00    +0.000 A 
ATOM      9  C   UNL     1       5.525   4.694  17.066  0.00  0.00    +0.000 A 
ATOM     10  C   UNL     1       5.036   5.986  16.836  0.00  0.00    +0.000 A 
ATOM     11  C   UNL     1       4.035   6.495  17.685  0.00  0.00    +0.000 A 
ATOM     12  S   UNL     1       3.279   8.035  17.623  0.00  0.00    +0.000 S 
ATOM     13  H   UNL     1       0.992   8.213  20.368  0.00  0.00    +0.000 HD
ENDROOT
BRANCH   1  17
ATOM     14  C   UNL     1      -1.205  11.264  23.139  0.00  0.00    +0.000 C 
ATOM     15  C   UNL     1      -0.972  11.166  21.670  0.00  0.00    +0.000 A 
ATOM     16  N   UNL     1      -0.005  10.360  21.120  0.00  0.00    +0.000 N 
ATOM     17  C   UNL     1       0.010  10.474  19.736  0.00  0.00    +0.000 A 
ATOM     18  C   UNL     1      -1.004  11.361  19.415  0.00  0.00    +0.000 A 
ATOM     19 CL   UNL     1      -1.483  11.870  17.859  0.00  0.00    +0.000 Cl
ATOM     20  C   UNL     1      -1.614  11.794  20.625  0.00  0.00    +0.000 A 
ATOM     21 CL   UNL     1      -2.907  12.895  20.760  0.00  0.00    +0.000 Cl
ATOM     22  H   UNL     1       0.631   9.761  21.635  0.00  0.00    +0.000 HD
ENDBRANCH   1  17
BRANCH   9  23
ATOM     23  C   UNL     1       6.590   4.183  16.166  0.00  0.00    +0.000 C 
ATOM     24  O   UNL     1       7.769   4.447  16.329  0.00  0.00    +0.000 OA
BRANCH  23  25
ATOM     25  O   UNL     1       6.135   3.450  15.129  0.00  0.00    +0.000 OA
ATOM     26  H   UNL     1       6.762   2.806  14.754  0.00  0.00    +0.000 HD
ENDBRANCH  23  25
ENDBRANCH   9  23
BRANCH   7  27
ATOM     27  O   UNL     1       3.659   3.594  19.987  0.00  0.00    +0.000 OA
BRANCH  27  28
ATOM     28  C   UNL     1       2.684   2.609  19.619  0.00  0.00    +0.000 C 
BRANCH  28  29
ATOM     29  C   UNL     1       1.499   2.735  20.591  0.00  0.00    +0.000 C 
BRANCH  29  30
ATOM     30  N   UNL     1       0.682   3.924  20.347  0.00  0.00    +0.000 NA
ATOM     31  H   UNL     1       0.725   4.166  19.356  0.00  0.00    +0.000 HD
ATOM     32  H   UNL     1       1.088   4.718  20.843  0.00  0.00    +0.000 HD
ENDBRANCH  29  30
ENDBRANCH  28  29
ENDBRANCH  27  28
ENDBRANCH   7  27
TORSDOF 7
ENDMDL
MODEL 3
REMARK VINA RESULT:      -7.7      1.630      2.065
REMARK  Name = 
REMARK  8 active torsions:
REMARK  status: ('A' for Active; 'I' for Inactive)
REMARK    1  A    between atoms: C_1  and  C_2
REMARK    2  A    between atoms: C_4  and  C_5
REMARK    3  A    between atoms: C_11  and  O_12
REMARK    4  A    between atoms: O_12  and  C_13
REMARK    5  A    between atoms: C_13  and  C_14
REMARK    6  A    between atoms: C_14  and  N_15
REMARK    7  A    between atoms: C_17  and  C_18
REMARK    8  A    between atoms: C_18  and  O_20
REMARK                            x       y       z     vdW  Elec       q    Type
REMARK                         _______ _______ _______ _____ _____    ______ ____
ROOT
ATOM      1  C   UNL     1       1.591   9.305  18.979  0.00  0.00    +0.000 C 
ATOM      2  O   UNL     1       1.919  10.002  18.025  0.00  0.00    +0.000 OA
ATOM      3  N   UNL     1       1.951   7.985  19.166  0.00  0.00    +0.000 N 
ATOM      4  C   UNL     1       2.780   7.226  18.364  0.00  0.00    +0.000 A 
ATOM      5  N   UNL     1       2.919   5.926  18.521  0.00  0.00    +0.000 NA
ATOM      6  C   UNL     1       3.814   5.414  17.574  0.00  0.00    +0.000 A 
ATOM      7  C   UNL     1       4.232   4.065  17.379  0.00  0.00    +0.000 A 
ATOM      8  C   UNL     1       5.195   3.749  16.406  0.00  0.00    +0.000 A 
ATOM      9  C   UNL     1       5.703   4.735  15.565  0.00  0.00    +0.000 A 
ATOM     10  C   UNL     1       5.306   6.068  15.728  0.00  0.00    +0.000 A 
ATOM     11  C   UNL     1       4.370   6.381  16.731  0.00  0.00    +0.000 A 
ATOM     12  S   UNL     1       3.731   7.922  17.137  0.00  0.00    +0.000 S 
ATOM     13  H   UNL     1       1.537   7.466  19.927  0.00  0.00    +0.000 HD
ENDROOT
BRANCH   1  17
ATOM     14  C   UNL     1      -0.438   9.666  23.507  0.00  0.00    +0.000 C 
ATOM     15  C   UNL     1      -0.206  10.015  22.077  0.00  0.00    +0.000 A 
ATOM     16  N   UNL     1       0.673   9.328  21.275  0.00  0.00    +0.000 N 
ATOM     17  C   UNL     1       0.712   9.872  19.998  0.00  0.00    +0.000 A 
ATOM     18  C   UNL     1      -0.197  10.917  20.000  0.00  0.00    +0.000 A 
ATOM     19 CL   UNL     1      -0.606  11.940  18.698  0.00  0.00    +0.000 Cl
ATOM     20  C   UNL     1      -0.767  11.006  21.301  0.00  0.00    +0.000 A 
ATOM     21 CL   UNL     1      -1.934  12.137  21.810  0.00  0.00    +0.000 Cl
ATOM     22  H   UNL     1       1.237   8.533  21.557  0.00  0.00    +0.000 HD
ENDBRANCH   1  17
BRANCH   9  23
ATOM     23  C   UNL     1       6.702   4.430  14.510  0.00  0.00    +0.000 C 
ATOM     24  O   UNL     1       7.692   5.118  14.325  0.00  0.00    +0.000 OA
BRANCH  23  25
ATOM     25  O   UNL     1       6.393   3.364  13.744  0.00  0.00    +0.000 OA
ATOM     26  H   UNL     1       6.997   2.602  13.808  0.00  0.00    +0.000 HD
ENDBRANCH  23  25
ENDBRANCH   9  23
BRANCH   7  27
ATOM     27  O   UNL     1       3.838   2.979  18.146  0.00  0.00    +0.000 OA
BRANCH  27  28
ATOM     28  C   UNL     1       2.594   2.395  17.737  0.00  0.00    +0.000 C 
BRANCH  28  29
ATOM     29  C   UNL     1       1.710   2.248  18.988  0.00  0.00    +0.000 C 
BRANCH  29  30
ATOM     30  N   UNL     1       2.010   3.240  20.020  0.00  0.00    +0.000 NA
ATOM     31  H   UNL     1       1.248   3.917  20.069  0.00  0.00    +0.000 HD
ATOM     32  H   UNL     1       2.835   3.772  19.745  0.00  0.00    +0.000 HD
ENDBRANCH  29  30
ENDBRANCH  28  29
ENDBRANCH  27  28
ENDBRANCH   7  27
TORSDOF 7
ENDMDL
MODEL 4
REMARK VINA RESULT:      -7.6      1.331      1.467
REMARK  Name = 
REMARK  8 active torsions:
REMARK  status: ('A' for Active; 'I' for Inactive)
REMARK    1  A    between atoms: C_1  and  C_2
REMARK    2  A    between atoms: C_4  and  C_5
REMARK    3  A    between atoms: C_11  and  O_12
REMARK    4  A    between atoms: O_12  and  C_13
REMARK    5  A    between atoms: C_13  and  C_14
REMARK    6  A    between atoms: C_14  and  N_15
REMARK    7  A    between atoms: C_17  and  C_18
REMARK    8  A    between atoms: C_18  and  O_20
REMARK                            x       y       z     vdW  Elec       q    Type
REMARK                         _______ _______ _______ _____ _____    ______ ____
ROOT
ATOM      1  C   UNL     1       1.375   9.754  19.081  0.00  0.00    +0.000 C 
ATOM      2  O   UNL     1       1.928  10.463  18.246  0.00  0.00    +0.000 OA
ATOM      3  N   UNL     1       1.540   8.389  19.206  0.00  0.00    +0.000 N 
ATOM      4  C   UNL     1       2.386   7.581  18.472  0.00  0.00    +0.000 A 
ATOM      5  N   UNL     1       2.342   6.267  18.538  0.00  0.00    +0.000 NA
ATOM      6  C   UNL     1       3.304   5.704  17.690  0.00  0.00    +0.000 A 
ATOM      7  C   UNL     1       3.582   4.328  17.445  0.00  0.00    +0.000 A 
ATOM      8  C   UNL     1       4.639   3.952  16.599  0.00  0.00    +0.000 A 
ATOM      9  C   UNL     1       5.386   4.915  15.927  0.00  0.00    +0.000 A 
ATOM     10  C   UNL     1       5.132   6.276  16.142  0.00  0.00    +0.000 A 
ATOM     11  C   UNL     1       4.096   6.643  17.021  0.00  0.00    +0.000 A 
ATOM     12  S   UNL     1       3.592   8.225  17.459  0.00  0.00    +0.000 S 
ATOM     13  H   UNL     1       0.955   7.881  19.853  0.00  0.00    +0.000 HD
ENDROOT
BRANCH   1  17
ATOM     14  C   UNL     1      -2.373  12.755  20.382  0.00  0.00    +0.000 C 
ATOM     15  C   UNL     1      -1.291  11.750  20.578  0.00  0.00    +0.000 A 
ATOM     16  N   UNL     1      -0.484  11.315  19.554  0.00  0.00    +0.000 N 
ATOM     17  C   UNL     1       0.424  10.365  20.005  0.00  0.00    +0.000 A 
ATOM     18  C   UNL     1       0.191  10.228  21.364  0.00  0.00    +0.000 A 
ATOM     19 CL   UNL     1       1.021   9.223  22.464  0.00  0.00    +0.000 Cl
ATOM     20  C   UNL     1      -0.883  11.092  21.718  0.00  0.00    +0.000 A 
ATOM     21 CL   UNL     1      -1.550  11.279  23.275  0.00  0.00    +0.000 Cl
ATOM     22  H   UNL     1      -0.531  11.623  18.589  0.00  0.00    +0.000 HD
ENDBRANCH   1  17
BRANCH   9  23
ATOM     23  C   UNL     1       6.492   4.552  15.006  0.00  0.00    +0.000 C 
ATOM     24  O   UNL     1       6.409   3.632  14.210  0.00  0.00    +0.000 OA
BRANCH  23  25
ATOM     25  O   UNL     1       7.610   5.290  15.163  0.00  0.00    +0.000 OA
ATOM     26  H   UNL     1       7.756   5.991  14.503  0.00  0.00    +0.000 HD
ENDBRANCH  23  25
ENDBRANCH   9  23
BRANCH   7  27
ATOM     27  O   UNL     1       2.947   3.256  18.052  0.00  0.00    +0.000 OA
BRANCH  27  28
ATOM     28  C   UNL     1       3.835   2.213  18.474  0.00  0.00    +0.000 C 
BRANCH  28  29
ATOM     29  C   UNL     1       4.289   2.533  19.910  0.00  0.00    +0.000 C 
BRANCH  29  30
ATOM     30  N   UNL     1       5.224   1.546  20.447  0.00  0.00    +0.000 NA
ATOM     31  H   UNL     1       4.784   0.625  20.442  0.00  0.00    +0.000 HD
ATOM     32  H   UNL     1       5.409   1.757  21.428  0.00  0.00    +0.000 HD
ENDBRANCH  29  30
ENDBRANCH  28  29
ENDBRANCH  27  28
ENDBRANCH   7  27
TORSDOF 7
ENDMDL
MODEL 5
REMARK VINA RESULT:      -7.5      1.054      1.054
REMARK  Name = 
REMARK  8 active torsions:
REMARK  status: ('A' for Active; 'I' for Inactive)
REMARK    1  A    between atoms: C_1  and  C_2
REMARK    2  A    between atoms: C_4  and  C_5
REMARK    3  A    between atoms: C_11  and  O_12
REMARK    4  A    between atoms: O_12  and  C_13
REMARK    5  A    between atoms: C_13  and  C_14
REMARK    6  A    between atoms: C_14  and  N_15
REMARK    7  A    between atoms: C_17  and  C_18
REMARK    8  A    between atoms: C_18  and  O_20
REMARK                            x       y       z     vdW  Elec       q    Type
REMARK                         _______ _______ _______ _____ _____    ______ ____
ROOT
ATOM      1  C   UNL     1       1.189   9.558  19.086  0.00  0.00    +0.000 C 
ATOM      2  O   UNL     1       1.480  10.079  18.015  0.00  0.00    +0.000 OA
ATOM      3  N   UNL     1       1.633   8.325  19.522  0.00  0.00    +0.000 N 
ATOM      4  C   UNL     1       2.517   7.482  18.879  0.00  0.00    +0.000 A 
ATOM      5  N   UNL     1       2.739   6.249  19.283  0.00  0.00    +0.000 NA
ATOM      6  C   UNL     1       3.675   5.625  18.449  0.00  0.00    +0.000 A 
ATOM      7  C   UNL     1       4.182   4.294  18.515  0.00  0.00    +0.000 A 
ATOM      8  C   UNL     1       5.174   3.862  17.619  0.00  0.00    +0.000 A 
ATOM      9  C   UNL     1       5.624   4.699  16.602  0.00  0.00    +0.000 A 
ATOM     10  C   UNL     1       5.140   6.010  16.506  0.00  0.00    +0.000 A 
ATOM     11  C   UNL     1       4.175   6.447  17.434  0.00  0.00    +0.000 A 
ATOM     12  S   UNL     1       3.433   7.992  17.538  0.00  0.00    +0.000 S 
ATOM     13  H   UNL     1       1.246   7.936  20.370  0.00  0.00    +0.000 HD
ENDROOT
BRANCH   1  17
ATOM     14  C   UNL     1      -2.454  12.745  20.234  0.00  0.00    +0.000 C 
ATOM     15  C   UNL     1      -1.401  11.720  20.481  0.00  0.00    +0.000 A 
ATOM     16  N   UNL     1      -0.617  11.201  19.480  0.00  0.00    +0.000 N 
ATOM     17  C   UNL     1       0.265  10.251  19.980  0.00  0.00    +0.000 A 
ATOM     18  C   UNL     1       0.039  10.202  21.345  0.00  0.00    +0.000 A 
ATOM     19 CL   UNL     1       0.847   9.238  22.497  0.00  0.00    +0.000 Cl
ATOM     20  C   UNL     1      -1.004  11.118  21.655  0.00  0.00    +0.000 A 
ATOM     21 CL   UNL     1      -1.652  11.417  23.202  0.00  0.00    +0.000 Cl
ATOM     22  H   UNL     1      -0.663  11.453  18.498  0.00  0.00    +0.000 HD
ENDBRANCH   1  17
BRANCH   9  23
ATOM     23  C   UNL     1       6.651   4.265  15.622  0.00  0.00    +0.000 C 
ATOM     24  O   UNL     1       7.809   4.646  15.671  0.00  0.00    +0.000 OA
BRANCH  23  25
ATOM     25  O   UNL     1       6.182   3.459  14.647  0.00  0.00    +0.000 OA
ATOM     26  H   UNL     1       5.214   3.433  14.543  0.00  0.00    +0.000 HD
ENDBRANCH  23  25
ENDBRANCH   9  23
BRANCH   7  27
ATOM     27  O   UNL     1       3.853   3.353  19.478  0.00  0.00    +0.000 OA
BRANCH  27  28
ATOM     28  C   UNL     1       3.344   2.124  18.943  0.00  0.00    +0.000 C 
BRANCH  28  29
ATOM     29  C   UNL     1       2.016   2.435  18.232  0.00  0.00    +0.000 C 
BRANCH  29  30
ATOM     30  N   UNL     1       0.897   1.642  18.739  0.00  0.00    +0.000 NA
ATOM     31  H   UNL     1       1.230   1.017  19.474  0.00  0.00    +0.000 HD
ATOM     32  H   UNL     1       0.551   1.034  17.996  0.00  0.00    +0.000 HD
ENDBRANCH  29  30
ENDBRANCH  28  29
ENDBRANCH  27  28
ENDBRANCH   7  27
TORSDOF 7
ENDMDL
MODEL 6
REMARK VINA RESULT:      -7.5      2.670      4.035
REMARK  Name = 
REMARK  8 active torsions:
REMARK  status: ('A' for Active; 'I' for Inactive)
REMARK    1  A    between atoms: C_1  and  C_2
REMARK    2  A    between atoms: C_4  and  C_5
REMARK    3  A    between atoms: C_11  and  O_12
REMARK    4  A    between atoms: O_12  and  C_13
REMARK    5  A    between atoms: C_13  and  C_14
REMARK    6  A    between atoms: C_14  and  N_15
REMARK    7  A    between atoms: C_17  and  C_18
REMARK    8  A    between atoms: C_18  and  O_20
REMARK                            x       y       z     vdW  Elec       q    Type
REMARK                         _______ _______ _______ _____ _____    ______ ____
ROOT
ATOM      1  C   UNL     1       0.867   9.529  20.101  0.00  0.00    +0.000 C 
ATOM      2  O   UNL     1       0.687   9.015  21.200  0.00  0.00    +0.000 OA
ATOM      3  N   UNL     1       1.592   8.971  19.067  0.00  0.00    +0.000 N 
ATOM      4  C   UNL     1       2.192   7.728  19.046  0.00  0.00    +0.000 A 
ATOM      5  N   UNL     1       3.015   7.356  18.087  0.00  0.00    +0.000 NA
ATOM      6  C   UNL     1       3.476   6.054  18.319  0.00  0.00    +0.000 A 
ATOM      7  C   UNL     1       4.389   5.280  17.546  0.00  0.00    +0.000 A 
ATOM      8  C   UNL     1       4.688   3.956  17.907  0.00  0.00    +0.000 A 
ATOM      9  C   UNL     1       4.156   3.401  19.068  0.00  0.00    +0.000 A 
ATOM     10  C   UNL     1       3.261   4.139  19.853  0.00  0.00    +0.000 A 
ATOM     11  C   UNL     1       2.938   5.451  19.461  0.00  0.00    +0.000 A 
ATOM     12  S   UNL     1       1.874   6.554  20.236  0.00  0.00    +0.000 S 
ATOM     13  H   UNL     1       1.776   9.524  18.242  0.00  0.00    +0.000 HD
ENDROOT
BRANCH   1  17
ATOM     14  C   UNL     1      -2.508  13.169  20.426  0.00  0.00    +0.000 C 
ATOM     15  C   UNL     1      -1.240  12.509  20.006  0.00  0.00    +0.000 A 
ATOM     16  N   UNL     1      -0.923  11.217  20.348  0.00  0.00    +0.000 N 
ATOM     17  C   UNL     1       0.322  10.860  19.847  0.00  0.00    +0.000 A 
ATOM     18  C   UNL     1       0.780  11.961  19.142  0.00  0.00    +0.000 A 
ATOM     19 CL   UNL     1       2.244  12.105  18.279  0.00  0.00    +0.000 Cl
ATOM     20  C   UNL     1      -0.196  12.991  19.246  0.00  0.00    +0.000 A 
ATOM     21 CL   UNL     1      -0.093  14.545  18.557  0.00  0.00    +0.000 Cl
ATOM     22  H   UNL     1      -1.500  10.591  20.901  0.00  0.00    +0.000 HD
ENDBRANCH   1  17
BRANCH   9  23
ATOM     23  C   UNL     1       4.472   2.013  19.493  0.00  0.00    +0.000 C 
ATOM     24  O   UNL     1       5.061   1.762  20.530  0.00  0.00    +0.000 OA
BRANCH  23  25
ATOM     25  O   UNL     1       4.099   1.064  18.609  0.00  0.00    +0.000 OA
ATOM     26  H   UNL     1       4.611   0.236  18.629  0.00  0.00    +0.000 HD
ENDBRANCH  23  25
ENDBRANCH   9  23
BRANCH   7  27
ATOM     27  O   UNL     1       4.981   5.680  16.358  0.00  0.00    +0.000 OA
BRANCH  27  28
ATOM     28  C   UNL     1       6.340   5.248  16.208  0.00  0.00    +0.000 C 
BRANCH  28  29
ATOM     29  C   UNL     1       6.553   4.871  14.731  0.00  0.00    +0.000 C 
BRANCH  29  30
ATOM     30  N   UNL     1       7.747   5.485  14.151  0.00  0.00    +0.000 NA
ATOM     31  H   UNL     1       8.525   4.826  14.202  0.00  0.00    +0.000 HD
ATOM     32  H   UNL     1       8.025   6.284  14.722  0.00  0.00    +0.000 HD
ENDBRANCH  29  30
ENDBRANCH  28  29
ENDBRANCH  27  28
ENDBRANCH   7  27
TORSDOF 7
ENDMDL
MODEL 7
REMARK VINA RESULT:      -7.4      2.376      3.776
REMARK  Name = 
REMARK  8 active torsions:
REMARK  status: ('A' for Active; 'I' for Inactive)
REMARK    1  A    between atoms: C_1  and  C_2
REMARK    2  A    between atoms: C_4  and  C_5
REMARK    3  A    between atoms: C_11  and  O_12
REMARK    4  A    between atoms: O_12  and  C_13
REMARK    5  A    between atoms: C_13  and  C_14
REMARK    6  A    between atoms: C_14  and  N_15
REMARK    7  A    between atoms: C_17  and  C_18
REMARK    8  A    between atoms: C_18  and  O_20
REMARK                            x       y       z     vdW  Elec       q    Type
REMARK                         _______ _______ _______ _____ _____    ______ ____
ROOT
ATOM      1  C   UNL     1       0.772   9.145  20.679  0.00  0.00    +0.000 C 
ATOM      2  O   UNL     1       0.643   8.554  21.745  0.00  0.00    +0.000 OA
ATOM      3  N   UNL     1       1.473   8.676  19.585  0.00  0.00    +0.000 N 
ATOM      4  C   UNL     1       2.101   7.453  19.460  0.00  0.00    +0.000 A 
ATOM      5  N   UNL     1       2.898   7.168  18.451  0.00  0.00    +0.000 NA
ATOM      6  C   UNL     1       3.397   5.866  18.578  0.00  0.00    +0.000 A 
ATOM      7  C   UNL     1       4.300   5.170  17.723  0.00  0.00    +0.000 A 
ATOM      8  C   UNL     1       4.643   3.832  17.983  0.00  0.00    +0.000 A 
ATOM      9  C   UNL     1       4.166   3.187  19.121  0.00  0.00    +0.000 A 
ATOM     10  C   UNL     1       3.282   3.847  19.984  0.00  0.00    +0.000 A 
ATOM     11  C   UNL     1       2.914   5.174  19.693  0.00  0.00    +0.000 A 
ATOM     12  S   UNL     1       1.853   6.195  20.577  0.00  0.00    +0.000 S 
ATOM     13  H   UNL     1       1.614   9.288  18.794  0.00  0.00    +0.000 HD
ENDROOT
BRANCH   1  17
ATOM     14  C   UNL     1      -0.331  13.362  18.281  0.00  0.00    +0.000 C 
ATOM     15  C   UNL     1      -0.301  12.399  19.417  0.00  0.00    +0.000 A 
ATOM     16  N   UNL     1       0.331  11.181  19.347  0.00  0.00    +0.000 N 
ATOM     17  C   UNL     1       0.187  10.475  20.534  0.00  0.00    +0.000 A 
ATOM     18  C   UNL     1      -0.538  11.297  21.381  0.00  0.00    +0.000 A 
ATOM     19 CL   UNL     1      -0.999  10.979  22.992  0.00  0.00    +0.000 Cl
ATOM     20  C   UNL     1      -0.844  12.497  20.680  0.00  0.00    +0.000 A 
ATOM     21 CL   UNL     1      -1.727  13.819  21.291  0.00  0.00    +0.000 Cl
ATOM     22  H   UNL     1       0.835  10.820  18.543  0.00  0.00    +0.000 HD
ENDBRANCH   1  17
BRANCH   9  23
ATOM     23  C   UNL     1       4.529   1.782  19.439  0.00  0.00    +0.000 C 
ATOM     24  O   UNL     1       5.164   1.478  20.434  0.00  0.00    +0.000 OA
BRANCH  23  25
ATOM     25  O   UNL     1       4.143   0.885  18.509  0.00  0.00    +0.000 OA
ATOM     26  H   UNL     1       4.320   1.127  17.582  0.00  0.00    +0.000 HD
ENDBRANCH  23  25
ENDBRANCH   9  23
BRANCH   7  27
ATOM     27  O   UNL     1       4.841   5.663  16.546  0.00  0.00    +0.000 OA
BRANCH  27  28
ATOM     28  C   UNL     1       6.264   5.521  16.450  0.00  0.00    +0.000 C 
BRANCH  28  29
ATOM     29  C   UNL     1       6.578   4.815  15.120  0.00  0.00    +0.000 C 
BRANCH  29  30
ATOM     30  N   UNL     1       7.694   5.425  14.398  0.00  0.00    +0.000 NA
ATOM     31  H   UNL     1       8.246   4.694  13.948  0.00  0.00    +0.000 HD
ATOM     32  H   UNL     1       8.321   5.872  15.066  0.00  0.00    +0.000 HD
ENDBRANCH  29  30
ENDBRANCH  28  29
ENDBRANCH  27  28
ENDBRANCH   7  27
TORSDOF 7
ENDMDL
MODEL 8
REMARK VINA RESULT:      -7.3      3.670      9.341
REMARK  Name = 
REMARK  8 active torsions:
REMARK  status: ('A' for Active; 'I' for Inactive)
REMARK    1  A    between atoms: C_1  and  C_2
REMARK    2  A    between atoms: C_4  and  C_5
REMARK    3  A    between atoms: C_11  and  O_12
REMARK    4  A    between atoms: O_12  and  C_13
REMARK    5  A    between atoms: C_13  and  C_14
REMARK    6  A    between atoms: C_14  and  N_15
REMARK    7  A    between atoms: C_17  and  C_18
REMARK    8  A    between atoms: C_18  and  O_20
REMARK                            x       y       z     vdW  Elec       q    Type
REMARK                         _______ _______ _______ _____ _____    ______ ____
ROOT
ATOM      1  C   UNL     1       2.257   6.215  19.734  0.00  0.00    +0.000 C 
ATOM      2  O   UNL     1       1.804   5.802  20.796  0.00  0.00    +0.000 OA
ATOM      3  N   UNL     1       2.088   7.491  19.235  0.00  0.00    +0.000 N 
ATOM      4  C   UNL     1       1.442   8.547  19.849  0.00  0.00    +0.000 A 
ATOM      5  N   UNL     1       1.174   9.672  19.221  0.00  0.00    +0.000 NA
ATOM      6  C   UNL     1       0.515  10.563  20.078  0.00  0.00    +0.000 A 
ATOM      7  C   UNL     1       0.030  11.874  19.801  0.00  0.00    +0.000 A 
ATOM      8  C   UNL     1      -0.556  12.649  20.816  0.00  0.00    +0.000 A 
ATOM      9  C   UNL     1      -0.742  12.122  22.091  0.00  0.00    +0.000 A 
ATOM     10  C   UNL     1      -0.283  10.834  22.392  0.00  0.00    +0.000 A 
ATOM     11  C   UNL     1       0.338  10.080  21.379  0.00  0.00    +0.000 A 
ATOM     12  S   UNL     1       0.989   8.495  21.488  0.00  0.00    +0.000 S 
ATOM     13  H   UNL     1       2.405   7.699  18.300  0.00  0.00    +0.000 HD
ENDROOT
BRANCH   1  17
ATOM     14  C   UNL     1       3.657   1.754  18.034  0.00  0.00    +0.000 C 
ATOM     15  C   UNL     1       3.631   3.241  18.121  0.00  0.00    +0.000 A 
ATOM     16  N   UNL     1       2.853   3.921  19.027  0.00  0.00    +0.000 N 
ATOM     17  C   UNL     1       3.002   5.294  18.879  0.00  0.00    +0.000 A 
ATOM     18  C   UNL     1       3.927   5.471  17.864  0.00  0.00    +0.000 A 
ATOM     19 CL   UNL     1       4.534   6.945  17.258  0.00  0.00    +0.000 Cl
ATOM     20  C   UNL     1       4.316   4.187  17.390  0.00  0.00    +0.000 A 
ATOM     21 CL   UNL     1       5.429   3.873  16.139  0.00  0.00    +0.000 Cl
ATOM     22  H   UNL     1       2.238   3.500  19.715  0.00  0.00    +0.000 HD
ENDBRANCH   1  17
BRANCH   9  23
ATOM     23  C   UNL     1      -1.382  12.904  23.179  0.00  0.00    +0.000 C 
ATOM     24  O   UNL     1      -0.815  13.822  23.749  0.00  0.00    +0.000 OA
BRANCH  23  25
ATOM     25  O   UNL     1      -2.616  12.478  23.517  0.00  0.00    +0.000 OA
ATOM     26  H   UNL     1      -2.664  11.853  24.262  0.00  0.00    +0.000 HD
ENDBRANCH  23  25
ENDBRANCH   9  23
BRANCH   7  27
ATOM     27  O   UNL     1       0.160  12.544  18.594  0.00  0.00    +0.000 OA
BRANCH  27  28
ATOM     28  C   UNL     1       1.058  13.661  18.640  0.00  0.00    +0.000 C 
BRANCH  28  29
ATOM     29  C   UNL     1       2.491  13.118  18.509  0.00  0.00    +0.000 C 
BRANCH  29  30
ATOM     30  N   UNL     1       2.621  12.086  17.482  0.00  0.00    +0.000 NA
ATOM     31  H   UNL     1       3.038  11.250  17.893  0.00  0.00    +0.000 HD
ATOM     32  H   UNL     1       3.280  12.401  16.770  0.00  0.00    +0.000 HD
ENDBRANCH  29  30
ENDBRANCH  28  29
ENDBRANCH  27  28
ENDBRANCH   7  27
TORSDOF 7
ENDMDL
MODEL 9
REMARK VINA RESULT:      -7.3      2.529      3.785
REMARK  Name = 
REMARK  8 active torsions:
REMARK  status: ('A' for Active; 'I' for Inactive)
REMARK    1  A    between atoms: C_1  and  C_2
REMARK    2  A    between atoms: C_4  and  C_5
REMARK    3  A    between atoms: C_11  and  O_12
REMARK    4  A    between atoms: O_12  and  C_13
REMARK    5  A    between atoms: C_13  and  C_14
REMARK    6  A    between atoms: C_14  and  N_15
REMARK    7  A    between atoms: C_17  and  C_18
REMARK    8  A    between atoms: C_18  and  O_20
REMARK                            x       y       z     vdW  Elec       q    Type
REMARK                         _______ _______ _______ _____ _____    ______ ____
ROOT
ATOM      1  C   UNL     1       0.807   9.526  20.107  0.00  0.00    +0.000 C 
ATOM      2  O   UNL     1       0.604   8.997  21.194  0.00  0.00    +0.000 OA
ATOM      3  N   UNL     1       1.564   8.986  19.086  0.00  0.00    +0.000 N 
ATOM      4  C   UNL     1       2.176   7.748  19.066  0.00  0.00    +0.000 A 
ATOM      5  N   UNL     1       3.026   7.395  18.125  0.00  0.00    +0.000 NA
ATOM      6  C   UNL     1       3.492   6.094  18.354  0.00  0.00    +0.000 A 
ATOM      7  C   UNL     1       4.432   5.337  17.596  0.00  0.00    +0.000 A 
ATOM      8  C   UNL     1       4.733   4.011  17.950  0.00  0.00    +0.000 A 
ATOM      9  C   UNL     1       4.176   3.438  19.090  0.00  0.00    +0.000 A 
ATOM     10  C   UNL     1       3.255   4.159  19.859  0.00  0.00    +0.000 A 
ATOM     11  C   UNL     1       2.930   5.473  19.474  0.00  0.00    +0.000 A 
ATOM     12  S   UNL     1       1.837   6.558  20.234  0.00  0.00    +0.000 S 
ATOM     13  H   UNL     1       1.764   9.550  18.272  0.00  0.00    +0.000 HD
ENDROOT
BRANCH   1  17
ATOM     14  C   UNL     1      -2.616  13.126  20.367  0.00  0.00    +0.000 C 
ATOM     15  C   UNL     1      -1.327  12.485  19.982  0.00  0.00    +0.000 A 
ATOM     16  N   UNL     1      -1.008  11.191  20.316  0.00  0.00    +0.000 N 
ATOM     17  C   UNL     1       0.257  10.854  19.854  0.00  0.00    +0.000 A 
ATOM     18  C   UNL     1       0.728  11.971  19.183  0.00  0.00    +0.000 A 
ATOM     19 CL   UNL     1       2.220  12.144  18.375  0.00  0.00    +0.000 Cl
ATOM     20  C   UNL     1      -0.262  12.989  19.268  0.00  0.00    +0.000 A 
ATOM     21 CL   UNL     1      -0.151  14.555  18.606  0.00  0.00    +0.000 Cl
ATOM     22  H   UNL     1      -1.597  10.551  20.839  0.00  0.00    +0.000 HD
ENDBRANCH   1  17
BRANCH   9  23
ATOM     23  C   UNL     1       4.493   2.048  19.506  0.00  0.00    +0.000 C 
ATOM     24  O   UNL     1       5.099   1.792  20.533  0.00  0.00    +0.000 OA
BRANCH  23  25
ATOM     25  O   UNL     1       4.100   1.103  18.628  0.00  0.00    +0.000 OA
ATOM     26  H   UNL     1       3.586   0.363  18.998  0.00  0.00    +0.000 HD
ENDBRANCH  23  25
ENDBRANCH   9  23
BRANCH   7  27
ATOM     27  O   UNL     1       5.052   5.755  16.428  0.00  0.00    +0.000 OA
BRANCH  27  28
ATOM     28  C   UNL     1       6.484   5.732  16.486  0.00  0.00    +0.000 C 
BRANCH  28  29
ATOM     29  C   UNL     1       6.941   6.950  17.308  0.00  0.00    +0.000 C 
BRANCH  29  30
ATOM     30  N   UNL     1       7.795   6.588  18.439  0.00  0.00    +0.000 NA
ATOM     31  H   UNL     1       7.732   5.582  18.602  0.00  0.00    +0.000 HD
ATOM     32  H   UNL     1       7.435   7.028  19.286  0.00  0.00    +0.000 HD
ENDBRANCH  29  30
ENDBRANCH  28  29
ENDBRANCH  27  28
ENDBRANCH   7  27
TORSDOF 7
ENDMDL
