MODEL 1
REMARK VINA RESULT:      -7.6      0.000      0.000
REMARK  Name = 
REMARK  16 active torsions:
REMARK  status: ('A' for Active; 'I' for Inactive)
REMARK    1  A    between atoms: C_1  and  C_2
REMARK    2  A    between atoms: C_2  and  C_3
REMARK    3  A    between atoms: C_2  and  C_4
REMARK    4  A    between atoms: C_2  and  N_5
REMARK    5  A    between atoms: N_5  and  C_6
REMARK    6  A    between atoms: C_6  and  C_7
REMARK    7  A    between atoms: C_7  and  O_8
REMARK    8  A    between atoms: C_7  and  C_9
REMARK    9  A    between atoms: C_9  and  C_10
REMARK   10  A    between atoms: C_9  and  N_17
REMARK   11  A    between atoms: C_10  and  C_11
REMARK   12  A    between atoms: N_17  and  C_18
REMARK   13  A    between atoms: C_18  and  C_19
REMARK   14  A    between atoms: C_19  and  C_20
REMARK   15  A    between atoms: C_20  and  C_21
REMARK   16  A    between atoms: C_20  and  C_27
REMARK                            x       y       z     vdW  Elec       q    Type
REMARK                         _______ _______ _______ _____ _____    ______ ____
ROOT
ATOM      1  C   UNL     1       6.012   5.536  17.000  0.00  0.00    +0.000 C 
ENDROOT
BRANCH   1   2
ATOM      2  N   UNL     1       4.860   6.276  16.382  0.00  0.00    +0.000 NA
ATOM      3  H   UNL     1       4.188   5.586  16.038  0.00  0.00    +0.000 HD
BRANCH   2   4
ATOM      4  C   UNL     1       4.166   7.169  17.363  0.00  0.00    +0.000 C 
BRANCH   4   5
ATOM      5  C   UNL     1       2.782   6.669  17.860  0.00  0.00    +0.000 C 
BRANCH   5   6
ATOM      6  C   UNL     1       2.560   6.749  19.424  0.00  0.00    +0.000 C 
BRANCH   6   7
ATOM      7  C   UNL     1       1.708   7.936  19.890  0.00  0.00    +0.000 A 
ATOM      8  C   UNL     1       1.115   7.978  21.161  0.00  0.00    +0.000 A 
ATOM      9  C   UNL     1       0.296   9.044  21.551  0.00  0.00    +0.000 A 
ATOM     10  C   UNL     1       0.048  10.094  20.673  0.00  0.00    +0.000 A 
ATOM     11  C   UNL     1       0.659  10.100  19.423  0.00  0.00    +0.000 A 
ATOM     12  C   UNL     1       1.492   9.038  19.040  0.00  0.00    +0.000 A 
ENDBRANCH   6   7
BRANCH   6  13
ATOM     13  C   UNL     1       2.064   5.399  19.979  0.00  0.00    +0.000 A 
ATOM     14  C   UNL     1       2.479   4.936  21.241  0.00  0.00    +0.000 A 
ATOM     15  C   UNL     1       2.053   3.692  21.729  0.00  0.00    +0.000 A 
ATOM     16  C   UNL     1       1.188   2.896  20.974  0.00  0.00    +0.000 A 
ATOM     17  C   UNL     1       0.745   3.351  19.738  0.00  0.00    +0.000 A 
ATOM     18  C   UNL     1       1.185   4.584  19.246  0.00  0.00    +0.000 A 
ENDBRANCH   6  13
ENDBRANCH   5   6
ENDBRANCH   4   5
ENDBRANCH   2   4
ENDBRANCH   1   2
BRANCH   1  19
ATOM     19  C   UNL     1       6.719   4.374  16.182  0.00  0.00    +0.000 C 
BRANCH  19  20
ATOM     20  O   UNL     1       8.043   4.169  16.754  0.00  0.00    +0.000 OA
ATOM     21  H   UNL     1       8.680   4.570  16.134  0.00  0.00    +0.000 HD
ENDBRANCH  19  20
BRANCH  19  22
ATOM     22  C   UNL     1       6.953   4.544  14.659  0.00  0.00    +0.000 C 
BRANCH  22  23
ATOM     23  N   UNL     1       5.874   3.809  13.934  0.00  0.00    +0.000 NA
ATOM     24  H   UNL     1       5.702   2.925  14.422  0.00  0.00    +0.000 HD
BRANCH  23  26
ATOM     25  C   UNL     1       6.401   2.137  12.157  0.00  0.00    +0.000 C 
ATOM     26  C   UNL     1       6.038   3.594  12.487  0.00  0.00    +0.000 C 
ATOM     27  C   UNL     1       7.082   4.579  11.927  0.00  0.00    +0.000 C 
ATOM     28  C   UNL     1       4.686   3.884  11.792  0.00  0.00    +0.000 C 
ENDBRANCH  23  26
ENDBRANCH  22  23
ENDBRANCH  19  22
ENDBRANCH   1  19
BRANCH   1  29
ATOM     29  C   UNL     1       5.666   4.992  18.434  0.00  0.00    +0.000 C 
BRANCH  29  30
ATOM     30  C   UNL     1       4.874   3.705  18.525  0.00  0.00    +0.000 A 
ATOM     31  C   UNL     1       4.051   3.258  17.482  0.00  0.00    +0.000 A 
ATOM     32  C   UNL     1       3.344   2.055  17.583  0.00  0.00    +0.000 A 
ATOM     33  C   UNL     1       3.480   1.263  18.719  0.00  0.00    +0.000 A 
ATOM     34  C   UNL     1       4.314   1.672  19.751  0.00  0.00    +0.000 A 
ATOM     35  C   UNL     1       4.999   2.889  19.656  0.00  0.00    +0.000 A 
ENDBRANCH  29  30
ENDBRANCH   1  29
TORSDOF 13
ENDMDL
MODEL 2
REMARK VINA RESULT:      -7.5      3.556      8.488
REMARK  Name = 
REMARK  16 active torsions:
REMARK  status: ('A' for Active; 'I' for Inactive)
REMARK    1  A    between atoms: C_1  and  C_2
REMARK    2  A    between atoms: C_2  and  C_3
REMARK    3  A    between atoms: C_2  and  C_4
REMARK    4  A    between atoms: C_2  and  N_5
REMARK    5  A    between atoms: N_5  and  C_6
REMARK    6  A    between atoms: C_6  and  C_7
REMARK    7  A    between atoms: C_7  and  O_8
REMARK    8  A    between atoms: C_7  and  C_9
REMARK    9  A    between atoms: C_9  and  C_10
REMARK   10  A    between atoms: C_9  and  N_17
REMARK   11  A    between atoms: C_10  and  C_11
REMARK   12  A    between atoms: N_17  and  C_18
REMARK   13  A    between atoms: C_18  and  C_19
REMARK   14  A    between atoms: C_19  and  C_20
REMARK   15  A    between atoms: C_20  and  C_21
REMARK   16  A    between atoms: C_20  and  C_27
REMARK                            x       y       z     vdW  Elec       q    Type
REMARK                         _______ _______ _______ _____ _____    ______ ____
ROOT
ATOM      1  C   UNL     1       0.805  10.469  18.414  0.00  0.00    +0.000 C 
ENDROOT
BRANCH   1   2
ATOM      2  N   UNL     1       1.822   9.731  17.592  0.00  0.00    +0.000 NA
ATOM      3  H   UNL     1       2.694  10.265  17.612  0.00  0.00    +0.000 HD
BRANCH   2   4
ATOM      4  C   UNL     1       2.092   8.357  18.122  0.00  0.00    +0.000 C 
BRANCH   4   5
ATOM      5  C   UNL     1       3.284   7.609  17.465  0.00  0.00    +0.000 C 
BRANCH   5   6
ATOM      6  C   UNL     1       3.892   6.427  18.322  0.00  0.00    +0.000 C 
BRANCH   6   7
ATOM      7  C   UNL     1       2.862   5.414  18.837  0.00  0.00    +0.000 A 
ATOM      8  C   UNL     1       2.174   4.543  17.977  0.00  0.00    +0.000 A 
ATOM      9  C   UNL     1       1.198   3.663  18.456  0.00  0.00    +0.000 A 
ATOM     10  C   UNL     1       0.883   3.636  19.810  0.00  0.00    +0.000 A 
ATOM     11  C   UNL     1       1.579   4.457  20.692  0.00  0.00    +0.000 A 
ATOM     12  C   UNL     1       2.569   5.328  20.212  0.00  0.00    +0.000 A 
ENDBRANCH   6   7
BRANCH   6  13
ATOM     13  C   UNL     1       5.072   5.762  17.585  0.00  0.00    +0.000 A 
ATOM     14  C   UNL     1       6.180   5.261  18.291  0.00  0.00    +0.000 A 
ATOM     15  C   UNL     1       7.267   4.688  17.615  0.00  0.00    +0.000 A 
ATOM     16  C   UNL     1       7.258   4.587  16.223  0.00  0.00    +0.000 A 
ATOM     17  C   UNL     1       6.159   5.050  15.511  0.00  0.00    +0.000 A 
ATOM     18  C   UNL     1       5.084   5.637  16.186  0.00  0.00    +0.000 A 
ENDBRANCH   6  13
ENDBRANCH   5   6
ENDBRANCH   4   5
ENDBRANCH   2   4
ENDBRANCH   1   2
BRANCH   1  19
ATOM     19  C   UNL     1       0.052  11.717  17.783  0.00  0.00    +0.000 C 
BRANCH  19  20
ATOM     20  O   UNL     1       0.735  12.923  18.234  0.00  0.00    +0.000 OA
ATOM     21  H   UNL     1       0.562  13.609  17.562  0.00  0.00    +0.000 HD
ENDBRANCH  19  20
BRANCH  19  22
ATOM     22  C   UNL     1      -1.446  11.949  18.106  0.00  0.00    +0.000 C 
BRANCH  22  23
ATOM     23  N   UNL     1      -2.210  11.935  16.824  0.00  0.00    +0.000 NA
ATOM     24  H   UNL     1      -2.587  12.874  16.663  0.00  0.00    +0.000 HD
BRANCH  23  26
ATOM     25  C   UNL     1      -4.667  11.489  16.807  0.00  0.00    +0.000 C 
ATOM     26  C   UNL     1      -3.251  10.909  16.652  0.00  0.00    +0.000 C 
ATOM     27  C   UNL     1      -3.005   9.745  17.632  0.00  0.00    +0.000 C 
ATOM     28  C   UNL     1      -3.155  10.349  15.212  0.00  0.00    +0.000 C 
ENDBRANCH  23  26
ENDBRANCH  22  23
ENDBRANCH  19  22
ENDBRANCH   1  19
BRANCH   1  29
ATOM     29  C   UNL     1       1.370  10.891  19.819  0.00  0.00    +0.000 C 
BRANCH  29  30
ATOM     30  C   UNL     1       0.488  10.666  21.028  0.00  0.00    +0.000 A 
ATOM     31  C   UNL     1       0.328   9.401  21.611  0.00  0.00    +0.000 A 
ATOM     32  C   UNL     1      -0.479   9.222  22.740  0.00  0.00    +0.000 A 
ATOM     33  C   UNL     1      -1.109  10.317  23.323  0.00  0.00    +0.000 A 
ATOM     34  C   UNL     1      -0.940  11.583  22.779  0.00  0.00    +0.000 A 
ATOM     35  C   UNL     1      -0.152  11.753  21.635  0.00  0.00    +0.000 A 
ENDBRANCH  29  30
ENDBRANCH   1  29
TORSDOF 13
ENDMDL
MODEL 3
REMARK VINA RESULT:      -7.5      3.828      9.372
REMARK  Name = 
REMARK  16 active torsions:
REMARK  status: ('A' for Active; 'I' for Inactive)
REMARK    1  A    between atoms: C_1  and  C_2
REMARK    2  A    between atoms: C_2  and  C_3
REMARK    3  A    between atoms: C_2  and  C_4
REMARK    4  A    between atoms: C_2  and  N_5
REMARK    5  A    between atoms: N_5  and  C_6
REMARK    6  A    between atoms: C_6  and  C_7
REMARK    7  A    between atoms: C_7  and  O_8
REMARK    8  A    between atoms: C_7  and  C_9
REMARK    9  A    between atoms: C_9  and  C_10
REMARK   10  A    between atoms: C_9  and  N_17
REMARK   11  A    between atoms: C_10  and  C_11
REMARK   12  A    between atoms: N_17  and  C_18
REMARK   13  A    between atoms: C_18  and  C_19
REMARK   14  A    between atoms: C_19  and  C_20
REMARK   15  A    between atoms: C_20  and  C_21
REMARK   16  A    between atoms: C_20  and  C_27
REMARK                            x       y       z     vdW  Elec       q    Type
REMARK                         _______ _______ _______ _____ _____    ______ ____
ROOT
ATOM      1  C   UNL     1       0.584  10.659  18.448  0.00  0.00    +0.000 C 
ENDROOT
BRANCH   1   2
ATOM      2  N   UNL     1       1.812  10.128  17.765  0.00  0.00    +0.000 NA
ATOM      3  H   UNL     1       2.618  10.335  18.359  0.00  0.00    +0.000 HD
BRANCH   2   4
ATOM      4  C   UNL     1       1.747   8.648  17.549  0.00  0.00    +0.000 C 
BRANCH   4   5
ATOM      5  C   UNL     1       2.548   7.788  18.563  0.00  0.00    +0.000 C 
BRANCH   5   6
ATOM      6  C   UNL     1       3.074   6.404  18.005  0.00  0.00    +0.000 C 
BRANCH   6   7
ATOM      7  C   UNL     1       4.596   6.227  18.063  0.00  0.00    +0.000 A 
ATOM      8  C   UNL     1       5.449   6.761  17.084  0.00  0.00    +0.000 A 
ATOM      9  C   UNL     1       6.831   6.545  17.123  0.00  0.00    +0.000 A 
ATOM     10  C   UNL     1       7.393   5.782  18.142  0.00  0.00    +0.000 A 
ATOM     11  C   UNL     1       6.576   5.277  19.149  0.00  0.00    +0.000 A 
ATOM     12  C   UNL     1       5.193   5.509  19.117  0.00  0.00    +0.000 A 
ENDBRANCH   6   7
BRANCH   6  13
ATOM     13  C   UNL     1       2.307   5.227  18.639  0.00  0.00    +0.000 A 
ATOM     14  C   UNL     1       1.951   4.098  17.880  0.00  0.00    +0.000 A 
ATOM     15  C   UNL     1       1.224   3.044  18.452  0.00  0.00    +0.000 A 
ATOM     16  C   UNL     1       0.855   3.089  19.798  0.00  0.00    +0.000 A 
ATOM     17  C   UNL     1       1.224   4.183  20.571  0.00  0.00    +0.000 A 
ATOM     18  C   UNL     1       1.934   5.242  19.994  0.00  0.00    +0.000 A 
ENDBRANCH   6  13
ENDBRANCH   5   6
ENDBRANCH   4   5
ENDBRANCH   2   4
ENDBRANCH   1   2
BRANCH   1  19
ATOM     19  C   UNL     1       0.666  11.088  19.975  0.00  0.00    +0.000 C 
BRANCH  19  20
ATOM     20  O   UNL     1      -0.086  10.112  20.752  0.00  0.00    +0.000 OA
ATOM     21  H   UNL     1      -0.555  10.611  21.447  0.00  0.00    +0.000 HD
ENDBRANCH  19  20
BRANCH  19  22
ATOM     22  C   UNL     1       0.117  12.470  20.410  0.00  0.00    +0.000 C 
BRANCH  22  23
ATOM     23  N   UNL     1      -0.031  12.470  21.896  0.00  0.00    +0.000 NA
ATOM     24  H   UNL     1       0.286  11.563  22.251  0.00  0.00    +0.000 HD
BRANCH  23  26
ATOM     25  C   UNL     1      -2.370  13.166  21.365  0.00  0.00    +0.000 C 
ATOM     26  C   UNL     1      -1.342  12.832  22.459  0.00  0.00    +0.000 C 
ATOM     27  C   UNL     1      -1.179  13.994  23.457  0.00  0.00    +0.000 C 
ATOM     28  C   UNL     1      -1.897  11.612  23.233  0.00  0.00    +0.000 C 
ENDBRANCH  23  26
ENDBRANCH  22  23
ENDBRANCH  19  22
ENDBRANCH   1  19
BRANCH   1  29
ATOM     29  C   UNL     1      -0.654   9.706  18.269  0.00  0.00    +0.000 C 
BRANCH  29  30
ATOM     30  C   UNL     1      -1.897  10.281  17.625  0.00  0.00    +0.000 A 
ATOM     31  C   UNL     1      -2.258   9.987  16.302  0.00  0.00    +0.000 A 
ATOM     32  C   UNL     1      -3.422  10.518  15.736  0.00  0.00    +0.000 A 
ATOM     33  C   UNL     1      -4.262  11.323  16.500  0.00  0.00    +0.000 A 
ATOM     34  C   UNL     1      -3.938  11.601  17.821  0.00  0.00    +0.000 A 
ATOM     35  C   UNL     1      -2.759  11.089  18.375  0.00  0.00    +0.000 A 
ENDBRANCH  29  30
ENDBRANCH   1  29
TORSDOF 13
ENDMDL
MODEL 4
REMARK VINA RESULT:      -7.5      3.779      9.289
REMARK  Name = 
REMARK  16 active torsions:
REMARK  status: ('A' for Active; 'I' for Inactive)
REMARK    1  A    between atoms: C_1  and  C_2
REMARK    2  A    between atoms: C_2  and  C_3
REMARK    3  A    between atoms: C_2  and  C_4
REMARK    4  A    between atoms: C_2  and  N_5
REMARK    5  A    between atoms: N_5  and  C_6
REMARK    6  A    between atoms: C_6  and  C_7
REMARK    7  A    between atoms: C_7  and  O_8
REMARK    8  A    between atoms: C_7  and  C_9
REMARK    9  A    between atoms: C_9  and  C_10
REMARK   10  A    between atoms: C_9  and  N_17
REMARK   11  A    between atoms: C_10  and  C_11
REMARK   12  A    between atoms: N_17  and  C_18
REMARK   13  A    between atoms: C_18  and  C_19
REMARK   14  A    between atoms: C_19  and  C_20
REMARK   15  A    between atoms: C_20  and  C_21
REMARK   16  A    between atoms: C_20  and  C_27
REMARK                            x       y       z     vdW  Elec       q    Type
REMARK                         _______ _______ _______ _____ _____    ______ ____
ROOT
ATOM      1  C   UNL     1       0.688  10.855  18.416  0.00  0.00    +0.000 C 
ENDROOT
BRANCH   1   2
ATOM      2  N   UNL     1       1.785  10.122  17.699  0.00  0.00    +0.000 NA
ATOM      3  H   UNL     1       2.666  10.321  18.178  0.00  0.00    +0.000 HD
BRANCH   2   4
ATOM      4  C   UNL     1       1.570   8.640  17.695  0.00  0.00    +0.000 C 
BRANCH   4   5
ATOM      5  C   UNL     1       2.514   7.824  18.619  0.00  0.00    +0.000 C 
BRANCH   5   6
ATOM      6  C   UNL     1       3.025   6.453  18.018  0.00  0.00    +0.000 C 
BRANCH   6   7
ATOM      7  C   UNL     1       4.546   6.260  18.065  0.00  0.00    +0.000 A 
ATOM      8  C   UNL     1       5.169   5.464  19.039  0.00  0.00    +0.000 A 
ATOM      9  C   UNL     1       6.562   5.343  19.101  0.00  0.00    +0.000 A 
ATOM     10  C   UNL     1       7.366   6.020  18.189  0.00  0.00    +0.000 A 
ATOM     11  C   UNL     1       6.772   6.781  17.186  0.00  0.00    +0.000 A 
ATOM     12  C   UNL     1       5.376   6.889  17.117  0.00  0.00    +0.000 A 
ENDBRANCH   6   7
BRANCH   6  13
ATOM     13  C   UNL     1       2.250   5.265  18.622  0.00  0.00    +0.000 A 
ATOM     14  C   UNL     1       1.862   5.262  19.973  0.00  0.00    +0.000 A 
ATOM     15  C   UNL     1       1.186   4.165  20.527  0.00  0.00    +0.000 A 
ATOM     16  C   UNL     1       0.868   3.059  19.736  0.00  0.00    +0.000 A 
ATOM     17  C   UNL     1       1.218   3.057  18.392  0.00  0.00    +0.000 A 
ATOM     18  C   UNL     1       1.907   4.145  17.846  0.00  0.00    +0.000 A 
ENDBRANCH   6  13
ENDBRANCH   5   6
ENDBRANCH   4   5
ENDBRANCH   2   4
ENDBRANCH   1   2
BRANCH   1  19
ATOM     19  C   UNL     1       1.000  11.554  19.808  0.00  0.00    +0.000 C 
BRANCH  19  20
ATOM     20  O   UNL     1       1.052  10.514  20.826  0.00  0.00    +0.000 OA
ATOM     21  H   UNL     1       0.273   9.944  20.683  0.00  0.00    +0.000 HD
ENDBRANCH  19  20
BRANCH  19  22
ATOM     22  C   UNL     1       0.024  12.622  20.362  0.00  0.00    +0.000 C 
BRANCH  22  23
ATOM     23  N   UNL     1      -0.629  12.071  21.586  0.00  0.00    +0.000 NA
ATOM     24  H   UNL     1      -1.007  11.146  21.361  0.00  0.00    +0.000 HD
BRANCH  23  26
ATOM     25  C   UNL     1      -0.990  14.032  23.088  0.00  0.00    +0.000 C 
ATOM     26  C   UNL     1      -1.634  12.903  22.266  0.00  0.00    +0.000 C 
ATOM     27  C   UNL     1      -2.545  12.017  23.137  0.00  0.00    +0.000 C 
ATOM     28  C   UNL     1      -2.516  13.584  21.192  0.00  0.00    +0.000 C 
ENDBRANCH  23  26
ENDBRANCH  22  23
ENDBRANCH  19  22
ENDBRANCH   1  19
BRANCH   1  29
ATOM     29  C   UNL     1      -0.603   9.974  18.584  0.00  0.00    +0.000 C 
BRANCH  29  30
ATOM     30  C   UNL     1      -1.835  10.377  17.802  0.00  0.00    +0.000 A 
ATOM     31  C   UNL     1      -2.092   9.892  16.512  0.00  0.00    +0.000 A 
ATOM     32  C   UNL     1      -3.247  10.266  15.816  0.00  0.00    +0.000 A 
ATOM     33  C   UNL     1      -4.181  11.102  16.420  0.00  0.00    +0.000 A 
ATOM     34  C   UNL     1      -3.961  11.569  17.709  0.00  0.00    +0.000 A 
ATOM     35  C   UNL     1      -2.791  11.213  18.390  0.00  0.00    +0.000 A 
ENDBRANCH  29  30
ENDBRANCH   1  29
TORSDOF 13
ENDMDL
MODEL 5
REMARK VINA RESULT:      -7.4      3.754      9.314
REMARK  Name = 
REMARK  16 active torsions:
REMARK  status: ('A' for Active; 'I' for Inactive)
REMARK    1  A    between atoms: C_1  and  C_2
REMARK    2  A    between atoms: C_2  and  C_3
REMARK    3  A    between atoms: C_2  and  C_4
REMARK    4  A    between atoms: C_2  and  N_5
REMARK    5  A    between atoms: N_5  and  C_6
REMARK    6  A    between atoms: C_6  and  C_7
REMARK    7  A    between atoms: C_7  and  O_8
REMARK    8  A    between atoms: C_7  and  C_9
REMARK    9  A    between atoms: C_9  and  C_10
REMARK   10  A    between atoms: C_9  and  N_17
REMARK   11  A    between atoms: C_10  and  C_11
REMARK   12  A    between atoms: N_17  and  C_18
REMARK   13  A    between atoms: C_18  and  C_19
REMARK   14  A    between atoms: C_19  and  C_20
REMARK   15  A    between atoms: C_20  and  C_21
REMARK   16  A    between atoms: C_20  and  C_27
REMARK                            x       y       z     vdW  Elec       q    Type
REMARK                         _______ _______ _______ _____ _____    ______ ____
ROOT
ATOM      1  C   UNL     1       0.281  10.350  18.612  0.00  0.00    +0.000 C 
ENDROOT
BRANCH   1   2
ATOM      2  N   UNL     1       1.146   9.236  19.128  0.00  0.00    +0.000 NA
ATOM      3  H   UNL     1       0.565   8.399  19.216  0.00  0.00    +0.000 HD
BRANCH   2   4
ATOM      4  C   UNL     1       2.287   8.930  18.208  0.00  0.00    +0.000 C 
BRANCH   4   5
ATOM      5  C   UNL     1       2.351   7.470  17.685  0.00  0.00    +0.000 C 
BRANCH   5   6
ATOM      6  C   UNL     1       3.106   6.449  18.629  0.00  0.00    +0.000 C 
BRANCH   6   7
ATOM      7  C   UNL     1       2.280   5.224  19.038  0.00  0.00    +0.000 A 
ATOM      8  C   UNL     1       1.889   4.996  20.367  0.00  0.00    +0.000 A 
ATOM      9  C   UNL     1       1.182   3.845  20.733  0.00  0.00    +0.000 A 
ATOM     10  C   UNL     1       0.853   2.891  19.776  0.00  0.00    +0.000 A 
ATOM     11  C   UNL     1       1.189   3.112  18.444  0.00  0.00    +0.000 A 
ATOM     12  C   UNL     1       1.884   4.274  18.077  0.00  0.00    +0.000 A 
ENDBRANCH   6   7
BRANCH   6  13
ATOM     13  C   UNL     1       4.485   6.078  18.047  0.00  0.00    +0.000 A 
ATOM     14  C   UNL     1       4.841   6.438  16.735  0.00  0.00    +0.000 A 
ATOM     15  C   UNL     1       6.082   6.070  16.197  0.00  0.00    +0.000 A 
ATOM     16  C   UNL     1       7.000   5.351  16.966  0.00  0.00    +0.000 A 
ATOM     17  C   UNL     1       6.676   5.012  18.274  0.00  0.00    +0.000 A 
ATOM     18  C   UNL     1       5.431   5.365  18.803  0.00  0.00    +0.000 A 
ENDBRANCH   6  13
ENDBRANCH   5   6
ENDBRANCH   4   5
ENDBRANCH   2   4
ENDBRANCH   1   2
BRANCH   1  19
ATOM     19  C   UNL     1       0.591  11.844  19.054  0.00  0.00    +0.000 C 
BRANCH  19  20
ATOM     20  O   UNL     1       1.657  12.349  18.199  0.00  0.00    +0.000 OA
ATOM     21  H   UNL     1       1.545  11.919  17.330  0.00  0.00    +0.000 HD
ENDBRANCH  19  20
BRANCH  19  22
ATOM     22  C   UNL     1       1.057  12.131  20.504  0.00  0.00    +0.000 C 
BRANCH  22  23
ATOM     23  N   UNL     1       0.111  13.110  21.116  0.00  0.00    +0.000 NA
ATOM     24  H   UNL     1       0.658  13.822  21.608  0.00  0.00    +0.000 HD
BRANCH  23  26
ATOM     25  C   UNL     1      -0.674  11.159  22.462  0.00  0.00    +0.000 C 
ATOM     26  C   UNL     1      -0.968  12.586  21.969  0.00  0.00    +0.000 C 
ATOM     27  C   UNL     1      -2.311  12.661  21.218  0.00  0.00    +0.000 C 
ATOM     28  C   UNL     1      -1.075  13.479  23.229  0.00  0.00    +0.000 C 
ENDBRANCH  23  26
ENDBRANCH  22  23
ENDBRANCH  19  22
ENDBRANCH   1  19
BRANCH   1  29
ATOM     29  C   UNL     1      -1.248  10.072  18.849  0.00  0.00    +0.000 C 
BRANCH  29  30
ATOM     30  C   UNL     1      -2.201  10.371  17.711  0.00  0.00    +0.000 A 
ATOM     31  C   UNL     1      -2.041   9.812  16.436  0.00  0.00    +0.000 A 
ATOM     32  C   UNL     1      -2.946  10.091  15.405  0.00  0.00    +0.000 A 
ATOM     33  C   UNL     1      -4.047  10.905  15.649  0.00  0.00    +0.000 A 
ATOM     34  C   UNL     1      -4.241  11.445  16.914  0.00  0.00    +0.000 A 
ATOM     35  C   UNL     1      -3.318  11.185  17.934  0.00  0.00    +0.000 A 
ENDBRANCH  29  30
ENDBRANCH   1  29
TORSDOF 13
ENDMDL
MODEL 6
REMARK VINA RESULT:      -7.3      3.697      9.379
REMARK  Name = 
REMARK  16 active torsions:
REMARK  status: ('A' for Active; 'I' for Inactive)
REMARK    1  A    between atoms: C_1  and  C_2
REMARK    2  A    between atoms: C_2  and  C_3
REMARK    3  A    between atoms: C_2  and  C_4
REMARK    4  A    between atoms: C_2  and  N_5
REMARK    5  A    between atoms: N_5  and  C_6
REMARK    6  A    between atoms: C_6  and  C_7
REMARK    7  A    between atoms: C_7  and  O_8
REMARK    8  A    between atoms: C_7  and  C_9
REMARK    9  A    between atoms: C_9  and  C_10
REMARK   10  A    between atoms: C_9  and  N_17
REMARK   11  A    between atoms: C_10  and  C_11
REMARK   12  A    between atoms: N_17  and  C_18
REMARK   13  A    between atoms: C_18  and  C_19
REMARK   14  A    between atoms: C_19  and  C_20
REMARK   15  A    between atoms: C_20  and  C_21
REMARK   16  A    between atoms: C_20  and  C_27
REMARK                            x       y       z     vdW  Elec       q    Type
REMARK                         _______ _______ _______ _____ _____    ______ ____
ROOT
ATOM      1  C   UNL     1       0.700  10.434  18.393  0.00  0.00    +0.000 C 
ENDROOT
BRANCH   1   2
ATOM      2  N   UNL     1       1.886   9.893  17.646  0.00  0.00    +0.000 NA
ATOM      3  H   UNL     1       2.733  10.223  18.114  0.00  0.00    +0.000 HD
BRANCH   2   4
ATOM      4  C   UNL     1       1.907   8.396  17.623  0.00  0.00    +0.000 C 
BRANCH   4   5
ATOM      5  C   UNL     1       3.299   7.744  17.845  0.00  0.00    +0.000 C 
BRANCH   5   6
ATOM      6  C   UNL     1       3.383   6.202  17.501  0.00  0.00    +0.000 C 
BRANCH   6   7
ATOM      7  C   UNL     1       4.806   5.668  17.300  0.00  0.00    +0.000 A 
ATOM      8  C   UNL     1       5.168   4.911  16.174  0.00  0.00    +0.000 A 
ATOM      9  C   UNL     1       6.457   4.385  16.031  0.00  0.00    +0.000 A 
ATOM     10  C   UNL     1       7.415   4.600  17.017  0.00  0.00    +0.000 A 
ATOM     11  C   UNL     1       7.096   5.383  18.122  0.00  0.00    +0.000 A 
ATOM     12  C   UNL     1       5.808   5.923  18.256  0.00  0.00    +0.000 A 
ENDBRANCH   6   7
BRANCH   6  13
ATOM     13  C   UNL     1       2.564   5.368  18.506  0.00  0.00    +0.000 A 
ATOM     14  C   UNL     1       1.858   4.223  18.096  0.00  0.00    +0.000 A 
ATOM     15  C   UNL     1       1.087   3.486  19.006  0.00  0.00    +0.000 A 
ATOM     16  C   UNL     1       1.022   3.867  20.348  0.00  0.00    +0.000 A 
ATOM     17  C   UNL     1       1.737   4.978  20.777  0.00  0.00    +0.000 A 
ATOM     18  C   UNL     1       2.491   5.722  19.864  0.00  0.00    +0.000 A 
ENDBRANCH   6  13
ENDBRANCH   5   6
ENDBRANCH   4   5
ENDBRANCH   2   4
ENDBRANCH   1   2
BRANCH   1  19
ATOM     19  C   UNL     1       0.853  10.809  19.929  0.00  0.00    +0.000 C 
BRANCH  19  20
ATOM     20  O   UNL     1       0.098   9.832  20.702  0.00  0.00    +0.000 OA
ATOM     21  H   UNL     1      -0.144   9.115  20.085  0.00  0.00    +0.000 HD
ENDBRANCH  19  20
BRANCH  19  22
ATOM     22  C   UNL     1       0.366  12.192  20.430  0.00  0.00    +0.000 C 
BRANCH  22  23
ATOM     23  N   UNL     1       0.038  12.077  21.881  0.00  0.00    +0.000 NA
ATOM     24  H   UNL     1       0.102  11.090  22.149  0.00  0.00    +0.000 HD
BRANCH  23  26
ATOM     25  C   UNL     1      -2.169  13.021  21.193  0.00  0.00    +0.000 C 
ATOM     26  C   UNL     1      -1.222  12.674  22.354  0.00  0.00    +0.000 C 
ATOM     27  C   UNL     1      -0.920  13.907  23.228  0.00  0.00    +0.000 C 
ATOM     28  C   UNL     1      -1.958  11.634  23.232  0.00  0.00    +0.000 C 
ENDBRANCH  23  26
ENDBRANCH  22  23
ENDBRANCH  19  22
ENDBRANCH   1  19
BRANCH   1  29
ATOM     29  C   UNL     1      -0.570   9.523  18.230  0.00  0.00    +0.000 C 
BRANCH  29  30
ATOM     30  C   UNL     1      -1.800  10.138  17.597  0.00  0.00    +0.000 A 
ATOM     31  C   UNL     1      -2.609  11.059  18.276  0.00  0.00    +0.000 A 
ATOM     32  C   UNL     1      -3.731  11.627  17.662  0.00  0.00    +0.000 A 
ATOM     33  C   UNL     1      -4.037  11.307  16.343  0.00  0.00    +0.000 A 
ATOM     34  C   UNL     1      -3.230  10.420  15.642  0.00  0.00    +0.000 A 
ATOM     35  C   UNL     1      -2.125   9.835  16.269  0.00  0.00    +0.000 A 
ENDBRANCH  29  30
ENDBRANCH   1  29
TORSDOF 13
ENDMDL
MODEL 7
REMARK VINA RESULT:      -7.3      3.812      8.272
REMARK  Name = 
REMARK  16 active torsions:
REMARK  status: ('A' for Active; 'I' for Inactive)
REMARK    1  A    between atoms: C_1  and  C_2
REMARK    2  A    between atoms: C_2  and  C_3
REMARK    3  A    between atoms: C_2  and  C_4
REMARK    4  A    between atoms: C_2  and  N_5
REMARK    5  A    between atoms: N_5  and  C_6
REMARK    6  A    between atoms: C_6  and  C_7
REMARK    7  A    between atoms: C_7  and  O_8
REMARK    8  A    between atoms: C_7  and  C_9
REMARK    9  A    between atoms: C_9  and  C_10
REMARK   10  A    between atoms: C_9  and  N_17
REMARK   11  A    between atoms: C_10  and  C_11
REMARK   12  A    between atoms: N_17  and  C_18
REMARK   13  A    between atoms: C_18  and  C_19
REMARK   14  A    between atoms: C_19  and  C_20
REMARK   15  A    between atoms: C_20  and  C_21
REMARK   16  A    between atoms: C_20  and  C_27
REMARK                            x       y       z     vdW  Elec       q    Type
REMARK                         _______ _______ _______ _____ _____    ______ ____
ROOT
ATOM      1  C   UNL     1       0.808  10.987  18.159  0.00  0.00    +0.000 C 
ENDROOT
BRANCH   1   2
ATOM      2  N   UNL     1       2.061  10.179  17.977  0.00  0.00    +0.000 NA
ATOM      3  H   UNL     1       2.622  10.269  18.827  0.00  0.00    +0.000 HD
BRANCH   2   4
ATOM      4  C   UNL     1       1.773   8.728  17.747  0.00  0.00    +0.000 C 
BRANCH   4   5
ATOM      5  C   UNL     1       2.474   7.744  18.722  0.00  0.00    +0.000 C 
BRANCH   5   6
ATOM      6  C   UNL     1       2.978   6.394  18.071  0.00  0.00    +0.000 C 
BRANCH   6   7
ATOM      7  C   UNL     1       4.502   6.217  18.062  0.00  0.00    +0.000 A 
ATOM      8  C   UNL     1       5.175   5.485  19.053  0.00  0.00    +0.000 A 
ATOM      9  C   UNL     1       6.570   5.378  19.060  0.00  0.00    +0.000 A 
ATOM     10  C   UNL     1       7.327   6.008  18.077  0.00  0.00    +0.000 A 
ATOM     11  C   UNL     1       6.683   6.704  17.059  0.00  0.00    +0.000 A 
ATOM     12  C   UNL     1       5.283   6.796  17.044  0.00  0.00    +0.000 A 
ENDBRANCH   6   7
BRANCH   6  13
ATOM     13  C   UNL     1       2.236   5.183  18.669  0.00  0.00    +0.000 A 
ATOM     14  C   UNL     1       1.952   4.047  17.890  0.00  0.00    +0.000 A 
ATOM     15  C   UNL     1       1.247   2.960  18.429  0.00  0.00    +0.000 A 
ATOM     16  C   UNL     1       0.828   2.981  19.761  0.00  0.00    +0.000 A 
ATOM     17  C   UNL     1       1.125   4.083  20.553  0.00  0.00    +0.000 A 
ATOM     18  C   UNL     1       1.813   5.172  20.010  0.00  0.00    +0.000 A 
ENDBRANCH   6  13
ENDBRANCH   5   6
ENDBRANCH   4   5
ENDBRANCH   2   4
ENDBRANCH   1   2
BRANCH   1  19
ATOM     19  C   UNL     1       0.895  12.413  18.852  0.00  0.00    +0.000 C 
BRANCH  19  20
ATOM     20  O   UNL     1       0.456  13.407  17.882  0.00  0.00    +0.000 OA
ATOM     21  H   UNL     1      -0.498  13.258  17.742  0.00  0.00    +0.000 HD
ENDBRANCH  19  20
BRANCH  19  22
ATOM     22  C   UNL     1       2.261  12.926  19.375  0.00  0.00    +0.000 C 
BRANCH  22  23
ATOM     23  N   UNL     1       3.068  13.386  18.207  0.00  0.00    +0.000 NA
ATOM     24  H   UNL     1       3.656  12.608  17.895  0.00  0.00    +0.000 HD
BRANCH  23  26
ATOM     25  C   UNL     1       5.304  14.444  17.868  0.00  0.00    +0.000 C 
ATOM     26  C   UNL     1       3.856  14.620  18.356  0.00  0.00    +0.000 C 
ATOM     27  C   UNL     1       3.806  15.100  19.820  0.00  0.00    +0.000 C 
ATOM     28  C   UNL     1       3.220  15.719  17.471  0.00  0.00    +0.000 C 
ENDBRANCH  23  26
ENDBRANCH  22  23
ENDBRANCH  19  22
ENDBRANCH   1  19
BRANCH   1  29
ATOM     29  C   UNL     1      -0.331  10.164  18.864  0.00  0.00    +0.000 C 
BRANCH  29  30
ATOM     30  C   UNL     1      -0.378  10.181  20.376  0.00  0.00    +0.000 A 
ATOM     31  C   UNL     1      -1.008  11.208  21.093  0.00  0.00    +0.000 A 
ATOM     32  C   UNL     1      -1.052  11.191  22.492  0.00  0.00    +0.000 A 
ATOM     33  C   UNL     1      -0.498  10.125  23.192  0.00  0.00    +0.000 A 
ATOM     34  C   UNL     1       0.105   9.082  22.500  0.00  0.00    +0.000 A 
ATOM     35  C   UNL     1       0.170   9.116  21.102  0.00  0.00    +0.000 A 
ENDBRANCH  29  30
ENDBRANCH   1  29
TORSDOF 13
ENDMDL
MODEL 8
REMARK VINA RESULT:      -7.3      3.752      9.364
REMARK  Name = 
REMARK  16 active torsions:
REMARK  status: ('A' for Active; 'I' for Inactive)
REMARK    1  A    between atoms: C_1  and  C_2
REMARK    2  A    between atoms: C_2  and  C_3
REMARK    3  A    between atoms: C_2  and  C_4
REMARK    4  A    between atoms: C_2  and  N_5
REMARK    5  A    between atoms: N_5  and  C_6
REMARK    6  A    between atoms: C_6  and  C_7
REMARK    7  A    between atoms: C_7  and  O_8
REMARK    8  A    between atoms: C_7  and  C_9
REMARK    9  A    between atoms: C_9  and  C_10
REMARK   10  A    between atoms: C_9  and  N_17
REMARK   11  A    between atoms: C_10  and  C_11
REMARK   12  A    between atoms: N_17  and  C_18
REMARK   13  A    between atoms: C_18  and  C_19
REMARK   14  A    between atoms: C_19  and  C_20
REMARK   15  A    between atoms: C_20  and  C_21
REMARK   16  A    between atoms: C_20  and  C_27
REMARK                            x       y       z     vdW  Elec       q    Type
REMARK                         _______ _______ _______ _____ _____    ______ ____
ROOT
ATOM      1  C   UNL     1       0.440  10.476  18.677  0.00  0.00    +0.000 C 
ENDROOT
BRANCH   1   2
ATOM      2  N   UNL     1       1.382   9.404  19.144  0.00  0.00    +0.000 NA
ATOM      3  H   UNL     1       0.827   8.583  19.400  0.00  0.00    +0.000 HD
BRANCH   2   4
ATOM      4  C   UNL     1       2.361   9.005  18.083  0.00  0.00    +0.000 C 
BRANCH   4   5
ATOM      5  C   UNL     1       2.304   7.516  17.647  0.00  0.00    +0.000 C 
BRANCH   5   6
ATOM      6  C   UNL     1       3.064   6.506  18.598  0.00  0.00    +0.000 C 
BRANCH   6   7
ATOM      7  C   UNL     1       2.247   5.276  19.011  0.00  0.00    +0.000 A 
ATOM      8  C   UNL     1       1.847   5.054  20.338  0.00  0.00    +0.000 A 
ATOM      9  C   UNL     1       1.148   3.900  20.707  0.00  0.00    +0.000 A 
ATOM     10  C   UNL     1       0.836   2.934  19.755  0.00  0.00    +0.000 A 
ATOM     11  C   UNL     1       1.182   3.149  18.424  0.00  0.00    +0.000 A 
ATOM     12  C   UNL     1       1.869   4.314  18.053  0.00  0.00    +0.000 A 
ENDBRANCH   6   7
BRANCH   6  13
ATOM     13  C   UNL     1       4.448   6.143  18.023  0.00  0.00    +0.000 A 
ATOM     14  C   UNL     1       5.421   5.510  18.816  0.00  0.00    +0.000 A 
ATOM     15  C   UNL     1       6.691   5.212  18.300  0.00  0.00    +0.000 A 
ATOM     16  C   UNL     1       7.005   5.524  16.975  0.00  0.00    +0.000 A 
ATOM     17  C   UNL     1       6.045   6.123  16.169  0.00  0.00    +0.000 A 
ATOM     18  C   UNL     1       4.786   6.435  16.691  0.00  0.00    +0.000 A 
ENDBRANCH   6  13
ENDBRANCH   5   6
ENDBRANCH   4   5
ENDBRANCH   2   4
ENDBRANCH   1   2
BRANCH   1  19
ATOM     19  C   UNL     1       0.695  11.981  19.114  0.00  0.00    +0.000 C 
BRANCH  19  20
ATOM     20  O   UNL     1       2.025  12.359  18.653  0.00  0.00    +0.000 OA
ATOM     21  H   UNL     1       2.363  11.607  18.132  0.00  0.00    +0.000 HD
ENDBRANCH  19  20
BRANCH  19  22
ATOM     22  C   UNL     1       0.661  12.356  20.617  0.00  0.00    +0.000 C 
BRANCH  22  23
ATOM     23  N   UNL     1      -0.623  13.066  20.894  0.00  0.00    +0.000 NA
ATOM     24  H   UNL     1      -0.444  14.074  20.881  0.00  0.00    +0.000 HD
BRANCH  23  26
ATOM     25  C   UNL     1      -2.885  12.535  21.808  0.00  0.00    +0.000 C 
ATOM     26  C   UNL     1      -1.381  12.677  22.095  0.00  0.00    +0.000 C 
ATOM     27  C   UNL     1      -1.113  13.683  23.231  0.00  0.00    +0.000 C 
ATOM     28  C   UNL     1      -0.884  11.288  22.560  0.00  0.00    +0.000 C 
ENDBRANCH  23  26
ENDBRANCH  22  23
ENDBRANCH  19  22
ENDBRANCH   1  19
BRANCH   1  29
ATOM     29  C   UNL     1      -1.061  10.121  18.981  0.00  0.00    +0.000 C 
BRANCH  29  30
ATOM     30  C   UNL     1      -2.087  10.429  17.912  0.00  0.00    +0.000 A 
ATOM     31  C   UNL     1      -2.052   9.827  16.646  0.00  0.00    +0.000 A 
ATOM     32  C   UNL     1      -3.022  10.116  15.681  0.00  0.00    +0.000 A 
ATOM     33  C   UNL     1      -4.066  10.985  15.984  0.00  0.00    +0.000 A 
ATOM     34  C   UNL     1      -4.136  11.569  17.242  0.00  0.00    +0.000 A 
ATOM     35  C   UNL     1      -3.148  11.297  18.195  0.00  0.00    +0.000 A 
ENDBRANCH  29  30
ENDBRANCH   1  29
TORSDOF 13
ENDMDL
MODEL 9
REMARK VINA RESULT:      -7.2      4.094      8.879
REMARK  Name = 
REMARK  16 active torsions:
REMARK  status: ('A' for Active; 'I' for Inactive)
REMARK    1  A    between atoms: C_1  and  C_2
REMARK    2  A    between atoms: C_2  and  C_3
REMARK    3  A    between atoms: C_2  and  C_4
REMARK    4  A    between atoms: C_2  and  N_5
REMARK    5  A    between atoms: N_5  and  C_6
REMARK    6  A    between atoms: C_6  and  C_7
REMARK    7  A    between atoms: C_7  and  O_8
REMARK    8  A    between atoms: C_7  and  C_9
REMARK    9  A    between atoms: C_9  and  C_10
REMARK   10  A    between atoms: C_9  and  N_17
REMARK   11  A    between atoms: C_10  and  C_11
REMARK   12  A    between atoms: N_17  and  C_18
REMARK   13  A    between atoms: C_18  and  C_19
REMARK   14  A    between atoms: C_19  and  C_20
REMARK   15  A    between atoms: C_20  and  C_21
REMARK   16  A    between atoms: C_20  and  C_27
REMARK                            x       y       z     vdW  Elec       q    Type
REMARK                         _______ _______ _______ _____ _____    ______ ____
ROOT
ATOM      1  C   UNL     1       0.529  10.459  18.533  0.00  0.00    +0.000 C 
ENDROOT
BRANCH   1   2
ATOM      2  N   UNL     1       1.385   9.346  19.065  0.00  0.00    +0.000 NA
ATOM      3  H   UNL     1       0.774   8.560  19.299  0.00  0.00    +0.000 HD
BRANCH   2   4
ATOM      4  C   UNL     1       2.398   8.880  18.065  0.00  0.00    +0.000 C 
BRANCH   4   5
ATOM      5  C   UNL     1       2.296   7.386  17.656  0.00  0.00    +0.000 C 
BRANCH   5   6
ATOM      6  C   UNL     1       3.061   6.375  18.603  0.00  0.00    +0.000 C 
BRANCH   6   7
ATOM      7  C   UNL     1       2.247   5.142  19.015  0.00  0.00    +0.000 A 
ATOM      8  C   UNL     1       1.861   4.911  20.344  0.00  0.00    +0.000 A 
ATOM      9  C   UNL     1       1.165   3.754  20.712  0.00  0.00    +0.000 A 
ATOM     10  C   UNL     1       0.843   2.796  19.756  0.00  0.00    +0.000 A 
ATOM     11  C   UNL     1       1.175   3.020  18.424  0.00  0.00    +0.000 A 
ATOM     12  C   UNL     1       1.858   4.188  18.054  0.00  0.00    +0.000 A 
ENDBRANCH   6   7
BRANCH   6  13
ATOM     13  C   UNL     1       4.443   6.017  18.023  0.00  0.00    +0.000 A 
ATOM     14  C   UNL     1       4.773   6.321  16.690  0.00  0.00    +0.000 A 
ATOM     15  C   UNL     1       6.020   5.963  16.155  0.00  0.00    +0.000 A 
ATOM     16  C   UNL     1       6.967   5.313  16.948  0.00  0.00    +0.000 A 
ATOM     17  C   UNL     1       6.670   5.031  18.275  0.00  0.00    +0.000 A 
ATOM     18  C   UNL     1       5.419   5.372  18.801  0.00  0.00    +0.000 A 
ENDBRANCH   6  13
ENDBRANCH   5   6
ENDBRANCH   4   5
ENDBRANCH   2   4
ENDBRANCH   1   2
BRANCH   1  19
ATOM     19  C   UNL     1       0.976  11.965  18.768  0.00  0.00    +0.000 C 
BRANCH  19  20
ATOM     20  O   UNL     1       0.101  12.817  17.973  0.00  0.00    +0.000 OA
ATOM     21  H   UNL     1      -0.073  12.339  17.141  0.00  0.00    +0.000 HD
ENDBRANCH  19  20
BRANCH  19  22
ATOM     22  C   UNL     1       2.417  12.400  18.401  0.00  0.00    +0.000 C 
BRANCH  22  23
ATOM     23  N   UNL     1       2.345  13.717  17.702  0.00  0.00    +0.000 NA
ATOM     24  H   UNL     1       2.764  13.612  16.773  0.00  0.00    +0.000 HD
BRANCH  23  26
ATOM     25  C   UNL     1       3.709  14.513  19.636  0.00  0.00    +0.000 C 
ATOM     26  C   UNL     1       2.884  14.898  18.397  0.00  0.00    +0.000 C 
ATOM     27  C   UNL     1       1.737  15.862  18.755  0.00  0.00    +0.000 C 
ATOM     28  C   UNL     1       3.846  15.636  17.435  0.00  0.00    +0.000 C 
ENDBRANCH  23  26
ENDBRANCH  22  23
ENDBRANCH  19  22
ENDBRANCH   1  19
BRANCH   1  29
ATOM     29  C   UNL     1      -0.973  10.315  18.974  0.00  0.00    +0.000 C 
BRANCH  29  30
ATOM     30  C   UNL     1      -2.038  10.505  17.915  0.00  0.00    +0.000 A 
ATOM     31  C   UNL     1      -2.016   9.807  16.699  0.00  0.00    +0.000 A 
ATOM     32  C   UNL     1      -3.022   9.988  15.744  0.00  0.00    +0.000 A 
ATOM     33  C   UNL     1      -4.087  10.843  16.009  0.00  0.00    +0.000 A 
ATOM     34  C   UNL     1      -4.144  11.521  17.220  0.00  0.00    +0.000 A 
ATOM     35  C   UNL     1      -3.121  11.357  18.162  0.00  0.00    +0.000 A 
ENDBRANCH  29  30
ENDBRANCH   1  29
TORSDOF 13
ENDMDL
