MODEL 1
REMARK VINA RESULT:      -8.8      0.000      0.000
REMARK  Name = 
REMARK  7 active torsions:
REMARK  status: ('A' for Active; 'I' for Inactive)
REMARK    1  A    between atoms: C_2  and  C_21
REMARK    2  A    between atoms: N_3  and  C_4
REMARK    3  A    between atoms: C_7  and  O_8
REMARK    4  A    between atoms: O_8  and  C_9
REMARK    5  A    between atoms: C_12  and  C_13
REMARK    6  A    between atoms: C_13  and  O_15
REMARK    7  A    between atoms: N_25  and  C_26
REMARK                            x       y       z     vdW  Elec       q    Type
REMARK                         _______ _______ _______ _____ _____    ______ ____
ROOT
ATOM      1  O   UNL     1       8.539   7.269  19.060  0.00  0.00    +0.000 OA
ATOM      2  C   UNL     1       8.124   8.161  18.321  0.00  0.00    +0.000 C 
ATOM      3  N   UNL     1       7.129   7.982  17.370  0.00  0.00    +0.000 N 
ATOM      4  H   UNL     1       6.968   8.747  16.717  0.00  0.00    +0.000 HD
ENDROOT
BRANCH   3   5
ATOM      5  C   UNL     1       6.422   6.780  17.134  0.00  0.00    +0.000 A 
ATOM      6  C   UNL     1       7.032   5.580  16.773  0.00  0.00    +0.000 A 
ATOM      7  C   UNL     1       6.253   4.454  16.520  0.00  0.00    +0.000 A 
ATOM      8  C   UNL     1       4.884   4.554  16.675  0.00  0.00    +0.000 A 
ATOM      9  N   UNL     1       4.251   5.686  17.045  0.00  0.00    +0.000 NA
ATOM     10  C   UNL     1       5.031   6.763  17.265  0.00  0.00    +0.000 A 
ATOM     11  F   UNL     1       4.406   7.903  17.607  0.00  0.00    +0.000 F 
BRANCH   8  12
ATOM     12  O   UNL     1       4.149   3.413  16.410  0.00  0.00    +0.000 OA
BRANCH  12  13
ATOM     13  C   UNL     1       3.714   2.751  17.601  0.00  0.00    +0.000 C 
ATOM     14  C   UNL     1       4.304   3.417  18.847  0.00  0.00    +0.000 C 
ATOM     15  C   UNL     1       3.858   2.656  20.091  0.00  0.00    +0.000 C 
ATOM     16  C   UNL     1       2.330   2.640  20.229  0.00  0.00    +0.000 C 
ATOM     17  C   UNL     1       1.662   2.135  18.936  0.00  0.00    +0.000 C 
ATOM     18  C   UNL     1       2.185   2.820  17.669  0.00  0.00    +0.000 C 
BRANCH  16  19
ATOM     19  C   UNL     1       1.789   4.003  20.646  0.00  0.00    +0.000 C 
ATOM     20  O   UNL     1       0.638   4.378  20.490  0.00  0.00    +0.000 OA
BRANCH  19  21
ATOM     21  O   UNL     1       2.711   4.781  21.259  0.00  0.00    +0.000 OA
ATOM     22  H   UNL     1       3.025   5.535  20.725  0.00  0.00    +0.000 HD
ENDBRANCH  19  21
ENDBRANCH  16  19
ENDBRANCH  12  13
ENDBRANCH   8  12
ENDBRANCH   3   5
BRANCH   2  23
ATOM     23  C   UNL     1       8.670   9.495  18.365  0.00  0.00    +0.000 A 
ATOM     24  N   UNL     1       8.297  10.524  17.633  0.00  0.00    +0.000 NA
ATOM     25  N   UNL     1       9.035  11.591  18.101  0.00  0.00    +0.000 NA
ATOM     26  C   UNL     1       9.815  11.138  19.063  0.00  0.00    +0.000 A 
ATOM     27  N   UNL     1      10.672  11.744  19.908  0.00  0.00    +0.000 N 
ATOM     28  O   UNL     1       9.653   9.799  19.265  0.00  0.00    +0.000 OA
ATOM     29  H   UNL     1      11.122  11.130  20.582  0.00  0.00    +0.000 HD
BRANCH  27  30
ATOM     30  C   UNL     1      10.639  13.104  20.277  0.00  0.00    +0.000 A 
ATOM     31  C   UNL     1      11.264  14.112  19.525  0.00  0.00    +0.000 A 
ATOM     32  C   UNL     1      11.141  15.450  19.885  0.00  0.00    +0.000 A 
ATOM     33  F   UNL     1      11.720  16.387  19.123  0.00  0.00    +0.000 F 
ATOM     34  C   UNL     1      10.418  15.815  21.013  0.00  0.00    +0.000 A 
ATOM     35  F   UNL     1      10.287  17.109  21.335  0.00  0.00    +0.000 F 
ATOM     36  C   UNL     1       9.824  14.844  21.806  0.00  0.00    +0.000 A 
ATOM     37  C   UNL     1       9.945  13.506  21.437  0.00  0.00    +0.000 A 
ATOM     38  F   UNL     1       9.347  12.585  22.216  0.00  0.00    +0.000 F 
ENDBRANCH  27  30
ENDBRANCH   2  23
TORSDOF 7
ENDMDL
MODEL 2
REMARK VINA RESULT:      -8.8      3.352     11.958
REMARK  Name = 
REMARK  7 active torsions:
REMARK  status: ('A' for Active; 'I' for Inactive)
REMARK    1  A    between atoms: C_2  and  C_21
REMARK    2  A    between atoms: N_3  and  C_4
REMARK    3  A    between atoms: C_7  and  O_8
REMARK    4  A    between atoms: O_8  and  C_9
REMARK    5  A    between atoms: C_12  and  C_13
REMARK    6  A    between atoms: C_13  and  O_15
REMARK    7  A    between atoms: N_25  and  C_26
REMARK                            x       y       z     vdW  Elec       q    Type
REMARK                         _______ _______ _______ _____ _____    ______ ____
ROOT
ATOM      1  O   UNL     1       7.465   9.690  17.056  0.00  0.00    +0.000 OA
ATOM      2  C   UNL     1       7.848   8.852  17.871  0.00  0.00    +0.000 C 
ATOM      3  N   UNL     1       8.871   9.068  18.785  0.00  0.00    +0.000 N 
ATOM      4  H   UNL     1       9.201   8.261  19.310  0.00  0.00    +0.000 HD
ENDROOT
BRANCH   3   5
ATOM      5  C   UNL     1       9.591  10.274  18.945  0.00  0.00    +0.000 A 
ATOM      6  C   UNL     1      10.338  10.872  17.931  0.00  0.00    +0.000 A 
ATOM      7  C   UNL     1      11.050  12.040  18.190  0.00  0.00    +0.000 A 
ATOM      8  C   UNL     1      10.961  12.598  19.451  0.00  0.00    +0.000 A 
ATOM      9  N   UNL     1      10.232  12.070  20.456  0.00  0.00    +0.000 NA
ATOM     10  C   UNL     1       9.570  10.929  20.179  0.00  0.00    +0.000 A 
ATOM     11  F   UNL     1       8.863  10.381  21.183  0.00  0.00    +0.000 F 
BRANCH   8  12
ATOM     12  O   UNL     1      11.686  13.755  19.664  0.00  0.00    +0.000 OA
BRANCH  12  13
ATOM     13  C   UNL     1      11.538  14.701  18.602  0.00  0.00    +0.000 C 
ATOM     14  C   UNL     1      10.067  15.075  18.400  0.00  0.00    +0.000 C 
ATOM     15  C   UNL     1       9.943  16.045  17.231  0.00  0.00    +0.000 C 
ATOM     16  C   UNL     1      10.739  17.334  17.476  0.00  0.00    +0.000 C 
ATOM     17  C   UNL     1      12.200  17.019  17.852  0.00  0.00    +0.000 C 
ATOM     18  C   UNL     1      12.333  15.962  18.954  0.00  0.00    +0.000 C 
BRANCH  16  19
ATOM     19  C   UNL     1      10.067  18.219  18.519  0.00  0.00    +0.000 C 
ATOM     20  O   UNL     1      10.576  18.571  19.572  0.00  0.00    +0.000 OA
BRANCH  19  21
ATOM     21  O   UNL     1       8.830  18.631  18.157  0.00  0.00    +0.000 OA
ATOM     22  H   UNL     1       8.749  18.896  17.222  0.00  0.00    +0.000 HD
ENDBRANCH  19  21
ENDBRANCH  16  19
ENDBRANCH  12  13
ENDBRANCH   8  12
ENDBRANCH   3   5
BRANCH   2  23
ATOM     23  C   UNL     1       7.268   7.533  17.929  0.00  0.00    +0.000 A 
ATOM     24  N   UNL     1       7.620   6.552  18.734  0.00  0.00    +0.000 NA
ATOM     25  N   UNL     1       6.722   5.536  18.485  0.00  0.00    +0.000 NA
ATOM     26  C   UNL     1       5.904   5.957  17.540  0.00  0.00    +0.000 A 
ATOM     27  N   UNL     1       4.808   5.418  16.971  0.00  0.00    +0.000 N 
ATOM     28  O   UNL     1       6.214   7.216  17.119  0.00  0.00    +0.000 OA
ATOM     29  H   UNL     1       4.351   5.999  16.273  0.00  0.00    +0.000 HD
BRANCH  27  30
ATOM     30  C   UNL     1       3.983   4.432  17.550  0.00  0.00    +0.000 A 
ATOM     31  C   UNL     1       4.359   3.082  17.640  0.00  0.00    +0.000 A 
ATOM     32  C   UNL     1       3.546   2.158  18.287  0.00  0.00    +0.000 A 
ATOM     33  F   UNL     1       3.954   0.885  18.387  0.00  0.00    +0.000 F 
ATOM     34  C   UNL     1       2.330   2.546  18.835  0.00  0.00    +0.000 A 
ATOM     35  F   UNL     1       1.568   1.650  19.477  0.00  0.00    +0.000 F 
ATOM     36  C   UNL     1       1.904   3.861  18.726  0.00  0.00    +0.000 A 
ATOM     37  C   UNL     1       2.725   4.785  18.082  0.00  0.00    +0.000 A 
ATOM     38  F   UNL     1       2.294   6.058  18.003  0.00  0.00    +0.000 F 
ENDBRANCH  27  30
ENDBRANCH   2  23
TORSDOF 7
ENDMDL
MODEL 3
REMARK VINA RESULT:      -8.7      8.489     10.120
REMARK  Name = 
REMARK  7 active torsions:
REMARK  status: ('A' for Active; 'I' for Inactive)
REMARK    1  A    between atoms: C_2  and  C_21
REMARK    2  A    between atoms: N_3  and  C_4
REMARK    3  A    between atoms: C_7  and  O_8
REMARK    4  A    between atoms: O_8  and  C_9
REMARK    5  A    between atoms: C_12  and  C_13
REMARK    6  A    between atoms: C_13  and  O_15
REMARK    7  A    between atoms: N_25  and  C_26
REMARK                            x       y       z     vdW  Elec       q    Type
REMARK                         _______ _______ _______ _____ _____    ______ ____
ROOT
ATOM      1  O   UNL     1       1.522  11.136  21.487  0.00  0.00    +0.000 OA
ATOM      2  C   UNL     1       0.388  10.711  21.275  0.00  0.00    +0.000 C 
ATOM      3  N   UNL     1       0.099   9.670  20.403  0.00  0.00    +0.000 N 
ATOM      4  H   UNL     1      -0.883   9.498  20.194  0.00  0.00    +0.000 HD
ENDROOT
BRANCH   3   5
ATOM      5  C   UNL     1       1.049   8.924  19.668  0.00  0.00    +0.000 A 
ATOM      6  C   UNL     1       1.433   9.229  18.364  0.00  0.00    +0.000 A 
ATOM      7  C   UNL     1       2.347   8.414  17.700  0.00  0.00    +0.000 A 
ATOM      8  C   UNL     1       2.881   7.336  18.380  0.00  0.00    +0.000 A 
ATOM      9  N   UNL     1       2.559   7.016  19.650  0.00  0.00    +0.000 NA
ATOM     10  C   UNL     1       1.657   7.813  20.258  0.00  0.00    +0.000 A 
ATOM     11  F   UNL     1       1.310   7.484  21.515  0.00  0.00    +0.000 F 
BRANCH   8  12
ATOM     12  O   UNL     1       3.781   6.553  17.682  0.00  0.00    +0.000 OA
BRANCH  12  13
ATOM     13  C   UNL     1       3.582   5.155  17.905  0.00  0.00    +0.000 C 
ATOM     14  C   UNL     1       4.151   4.728  19.261  0.00  0.00    +0.000 C 
ATOM     15  C   UNL     1       3.964   3.226  19.442  0.00  0.00    +0.000 C 
ATOM     16  C   UNL     1       2.483   2.828  19.393  0.00  0.00    +0.000 C 
ATOM     17  C   UNL     1       1.804   3.375  18.122  0.00  0.00    +0.000 C 
ATOM     18  C   UNL     1       2.079   4.863  17.875  0.00  0.00    +0.000 C 
BRANCH  16  19
ATOM     19  C   UNL     1       1.744   3.257  20.655  0.00  0.00    +0.000 C 
ATOM     20  O   UNL     1       2.270   3.474  21.735  0.00  0.00    +0.000 OA
BRANCH  19  21
ATOM     21  O   UNL     1       0.413   3.420  20.468  0.00  0.00    +0.000 OA
ATOM     22  H   UNL     1      -0.134   3.202  21.246  0.00  0.00    +0.000 HD
ENDBRANCH  19  21
ENDBRANCH  16  19
ENDBRANCH  12  13
ENDBRANCH   8  12
ENDBRANCH   3   5
BRANCH   2  23
ATOM     23  C   UNL     1      -0.769  11.290  21.911  0.00  0.00    +0.000 A 
ATOM     24  N   UNL     1      -1.087  11.219  23.187  0.00  0.00    +0.000 NA
ATOM     25  N   UNL     1      -2.213  12.001  23.328  0.00  0.00    +0.000 NA
ATOM     26  C   UNL     1      -2.514  12.476  22.134  0.00  0.00    +0.000 A 
ATOM     27  N   UNL     1      -3.452  13.341  21.703  0.00  0.00    +0.000 N 
ATOM     28  O   UNL     1      -1.647  12.038  21.177  0.00  0.00    +0.000 OA
ATOM     29  H   UNL     1      -3.425  13.549  20.708  0.00  0.00    +0.000 HD
BRANCH  27  30
ATOM     30  C   UNL     1      -4.096  14.315  22.493  0.00  0.00    +0.000 A 
ATOM     31  C   UNL     1      -5.415  14.171  22.953  0.00  0.00    +0.000 A 
ATOM     32  C   UNL     1      -5.985  15.122  23.793  0.00  0.00    +0.000 A 
ATOM     33  F   UNL     1      -7.233  14.933  24.242  0.00  0.00    +0.000 F 
ATOM     34  C   UNL     1      -5.268  16.249  24.174  0.00  0.00    +0.000 A 
ATOM     35  F   UNL     1      -5.820  17.145  25.003  0.00  0.00    +0.000 F 
ATOM     36  C   UNL     1      -3.979  16.449  23.703  0.00  0.00    +0.000 A 
ATOM     37  C   UNL     1      -3.411  15.489  22.867  0.00  0.00    +0.000 A 
ATOM     38  F   UNL     1      -2.153  15.700  22.437  0.00  0.00    +0.000 F 
ENDBRANCH  27  30
ENDBRANCH   2  23
TORSDOF 7
ENDMDL
MODEL 4
REMARK VINA RESULT:      -8.7      7.743      9.728
REMARK  Name = 
REMARK  7 active torsions:
REMARK  status: ('A' for Active; 'I' for Inactive)
REMARK    1  A    between atoms: C_2  and  C_21
REMARK    2  A    between atoms: N_3  and  C_4
REMARK    3  A    between atoms: C_7  and  O_8
REMARK    4  A    between atoms: O_8  and  C_9
REMARK    5  A    between atoms: C_12  and  C_13
REMARK    6  A    between atoms: C_13  and  O_15
REMARK    7  A    between atoms: N_25  and  C_26
REMARK                            x       y       z     vdW  Elec       q    Type
REMARK                         _______ _______ _______ _____ _____    ______ ____
ROOT
ATOM      1  O   UNL     1       1.861  11.513  18.716  0.00  0.00    +0.000 OA
ATOM      2  C   UNL     1       0.852  10.968  19.161  0.00  0.00    +0.000 C 
ATOM      3  N   UNL     1       0.694   9.592  19.263  0.00  0.00    +0.000 N 
ATOM      4  H   UNL     1      -0.233   9.249  19.507  0.00  0.00    +0.000 HD
ENDROOT
BRANCH   3   5
ATOM      5  C   UNL     1       1.663   8.623  18.915  0.00  0.00    +0.000 A 
ATOM      6  C   UNL     1       2.301   8.574  17.677  0.00  0.00    +0.000 A 
ATOM      7  C   UNL     1       3.215   7.559  17.407  0.00  0.00    +0.000 A 
ATOM      8  C   UNL     1       3.492   6.642  18.402  0.00  0.00    +0.000 A 
ATOM      9  N   UNL     1       2.918   6.663  19.623  0.00  0.00    +0.000 NA
ATOM     10  C   UNL     1       2.025   7.647  19.847  0.00  0.00    +0.000 A 
ATOM     11  F   UNL     1       1.428   7.659  21.052  0.00  0.00    +0.000 F 
BRANCH   8  12
ATOM     12  O   UNL     1       4.402   5.650  18.089  0.00  0.00    +0.000 OA
BRANCH  12  13
ATOM     13  C   UNL     1       3.843   4.338  18.196  0.00  0.00    +0.000 C 
ATOM     14  C   UNL     1       4.213   3.690  19.533  0.00  0.00    +0.000 C 
ATOM     15  C   UNL     1       3.643   2.277  19.591  0.00  0.00    +0.000 C 
ATOM     16  C   UNL     1       2.113   2.277  19.461  0.00  0.00    +0.000 C 
ATOM     17  C   UNL     1       1.664   3.063  18.214  0.00  0.00    +0.000 C 
ATOM     18  C   UNL     1       2.318   4.444  18.093  0.00  0.00    +0.000 C 
BRANCH  16  19
ATOM     19  C   UNL     1       1.442   2.797  20.727  0.00  0.00    +0.000 C 
ATOM     20  O   UNL     1       1.811   2.556  21.865  0.00  0.00    +0.000 OA
BRANCH  19  21
ATOM     21  O   UNL     1       0.387   3.607  20.480  0.00  0.00    +0.000 OA
ATOM     22  H   UNL     1       0.350   3.960  19.571  0.00  0.00    +0.000 HD
ENDBRANCH  19  21
ENDBRANCH  16  19
ENDBRANCH  12  13
ENDBRANCH   8  12
ENDBRANCH   3   5
BRANCH   2  23
ATOM     23  C   UNL     1      -0.289  11.731  19.601  0.00  0.00    +0.000 A 
ATOM     24  N   UNL     1      -1.421  11.903  18.951  0.00  0.00    +0.000 NA
ATOM     25  N   UNL     1      -2.230  12.618  19.810  0.00  0.00    +0.000 NA
ATOM     26  C   UNL     1      -1.534  12.847  20.906  0.00  0.00    +0.000 A 
ATOM     27  N   UNL     1      -1.844  13.423  22.084  0.00  0.00    +0.000 N 
ATOM     28  O   UNL     1      -0.273  12.332  20.829  0.00  0.00    +0.000 OA
ATOM     29  H   UNL     1      -1.097  13.433  22.772  0.00  0.00    +0.000 HD
BRANCH  27  30
ATOM     30  C   UNL     1      -3.143  13.548  22.620  0.00  0.00    +0.000 A 
ATOM     31  C   UNL     1      -3.663  12.654  23.568  0.00  0.00    +0.000 A 
ATOM     32  C   UNL     1      -4.921  12.859  24.125  0.00  0.00    +0.000 A 
ATOM     33  F   UNL     1      -5.371  12.005  25.056  0.00  0.00    +0.000 F 
ATOM     34  C   UNL     1      -5.700  13.940  23.735  0.00  0.00    +0.000 A 
ATOM     35  F   UNL     1      -6.899  14.140  24.298  0.00  0.00    +0.000 F 
ATOM     36  C   UNL     1      -5.238  14.820  22.767  0.00  0.00    +0.000 A 
ATOM     37  C   UNL     1      -3.975  14.613  22.217  0.00  0.00    +0.000 A 
ATOM     38  F   UNL     1      -3.545  15.490  21.290  0.00  0.00    +0.000 F 
ENDBRANCH  27  30
ENDBRANCH   2  23
TORSDOF 7
ENDMDL
MODEL 5
REMARK VINA RESULT:      -8.7      8.577     10.476
REMARK  Name = 
REMARK  7 active torsions:
REMARK  status: ('A' for Active; 'I' for Inactive)
REMARK    1  A    between atoms: C_2  and  C_21
REMARK    2  A    between atoms: N_3  and  C_4
REMARK    3  A    between atoms: C_7  and  O_8
REMARK    4  A    between atoms: O_8  and  C_9
REMARK    5  A    between atoms: C_12  and  C_13
REMARK    6  A    between atoms: C_13  and  O_15
REMARK    7  A    between atoms: N_25  and  C_26
REMARK                            x       y       z     vdW  Elec       q    Type
REMARK                         _______ _______ _______ _____ _____    ______ ____
ROOT
ATOM      1  O   UNL     1       1.977  12.110  20.379  0.00  0.00    +0.000 OA
ATOM      2  C   UNL     1       0.904  11.714  20.832  0.00  0.00    +0.000 C 
ATOM      3  N   UNL     1       0.390  10.443  20.610  0.00  0.00    +0.000 N 
ATOM      4  H   UNL     1      -0.568  10.272  20.909  0.00  0.00    +0.000 HD
ENDROOT
BRANCH   3   5
ATOM      5  C   UNL     1       1.026   9.413  19.879  0.00  0.00    +0.000 A 
ATOM      6  C   UNL     1       1.234   9.455  18.502  0.00  0.00    +0.000 A 
ATOM      7  C   UNL     1       1.834   8.376  17.857  0.00  0.00    +0.000 A 
ATOM      8  C   UNL     1       2.243   7.300  18.620  0.00  0.00    +0.000 A 
ATOM      9  N   UNL     1       2.085   7.224  19.958  0.00  0.00    +0.000 NA
ATOM     10  C   UNL     1       1.485   8.277  20.550  0.00  0.00    +0.000 A 
ATOM     11  F   UNL     1       1.299   8.198  21.879  0.00  0.00    +0.000 F 
BRANCH   8  12
ATOM     12  O   UNL     1       2.830   6.250  17.939  0.00  0.00    +0.000 OA
BRANCH  12  13
ATOM     13  C   UNL     1       4.243   6.183  18.145  0.00  0.00    +0.000 C 
ATOM     14  C   UNL     1       4.736   4.733  18.109  0.00  0.00    +0.000 C 
ATOM     15  C   UNL     1       6.235   4.697  18.379  0.00  0.00    +0.000 C 
ATOM     16  C   UNL     1       7.020   5.500  17.333  0.00  0.00    +0.000 C 
ATOM     17  C   UNL     1       6.462   6.929  17.198  0.00  0.00    +0.000 C 
ATOM     18  C   UNL     1       4.938   6.978  17.035  0.00  0.00    +0.000 C 
BRANCH  16  19
ATOM     19  C   UNL     1       7.060   4.782  15.989  0.00  0.00    +0.000 C 
ATOM     20  O   UNL     1       7.604   5.209  14.983  0.00  0.00    +0.000 OA
BRANCH  19  21
ATOM     21  O   UNL     1       6.456   3.571  16.009  0.00  0.00    +0.000 OA
ATOM     22  H   UNL     1       6.143   3.261  15.138  0.00  0.00    +0.000 HD
ENDBRANCH  19  21
ENDBRANCH  16  19
ENDBRANCH  12  13
ENDBRANCH   8  12
ENDBRANCH   3   5
BRANCH   2  23
ATOM     23  C   UNL     1       0.057  12.567  21.628  0.00  0.00    +0.000 A 
ATOM     24  N   UNL     1       0.140  13.876  21.742  0.00  0.00    +0.000 NA
ATOM     25  N   UNL     1      -0.934  14.243  22.525  0.00  0.00    +0.000 NA
ATOM     26  C   UNL     1      -1.581  13.140  22.847  0.00  0.00    +0.000 A 
ATOM     27  N   UNL     1      -2.726  12.914  23.520  0.00  0.00    +0.000 N 
ATOM     28  O   UNL     1      -0.985  12.028  22.330  0.00  0.00    +0.000 OA
ATOM     29  H   UNL     1      -3.003  11.938  23.589  0.00  0.00    +0.000 HD
BRANCH  27  30
ATOM     30  C   UNL     1      -3.777  13.840  23.687  0.00  0.00    +0.000 A 
ATOM     31  C   UNL     1      -3.675  14.963  24.522  0.00  0.00    +0.000 A 
ATOM     32  C   UNL     1      -4.709  15.890  24.598  0.00  0.00    +0.000 A 
ATOM     33  F   UNL     1      -4.562  16.971  25.377  0.00  0.00    +0.000 F 
ATOM     34  C   UNL     1      -5.876  15.710  23.868  0.00  0.00    +0.000 A 
ATOM     35  F   UNL     1      -6.854  16.623  23.932  0.00  0.00    +0.000 F 
ATOM     36  C   UNL     1      -6.032  14.588  23.067  0.00  0.00    +0.000 A 
ATOM     37  C   UNL     1      -4.990  13.665  22.990  0.00  0.00    +0.000 A 
ATOM     38  F   UNL     1      -5.162  12.593  22.194  0.00  0.00    +0.000 F 
ENDBRANCH  27  30
ENDBRANCH   2  23
TORSDOF 7
ENDMDL
MODEL 6
REMARK VINA RESULT:      -8.7      7.507      9.305
REMARK  Name = 
REMARK  7 active torsions:
REMARK  status: ('A' for Active; 'I' for Inactive)
REMARK    1  A    between atoms: C_2  and  C_21
REMARK    2  A    between atoms: N_3  and  C_4
REMARK    3  A    between atoms: C_7  and  O_8
REMARK    4  A    between atoms: O_8  and  C_9
REMARK    5  A    between atoms: C_12  and  C_13
REMARK    6  A    between atoms: C_13  and  O_15
REMARK    7  A    between atoms: N_25  and  C_26
REMARK                            x       y       z     vdW  Elec       q    Type
REMARK                         _______ _______ _______ _____ _____    ______ ____
ROOT
ATOM      1  O   UNL     1       2.038  11.296  18.332  0.00  0.00    +0.000 OA
ATOM      2  C   UNL     1       1.104  10.816  18.972  0.00  0.00    +0.000 C 
ATOM      3  N   UNL     1       0.968   9.463  19.251  0.00  0.00    +0.000 N 
ATOM      4  H   UNL     1       0.086   9.160  19.659  0.00  0.00    +0.000 HD
ENDROOT
BRANCH   3   5
ATOM      5  C   UNL     1       1.884   8.450  18.884  0.00  0.00    +0.000 A 
ATOM      6  C   UNL     1       2.528   8.397  17.650  0.00  0.00    +0.000 A 
ATOM      7  C   UNL     1       3.386   7.339  17.359  0.00  0.00    +0.000 A 
ATOM      8  C   UNL     1       3.603   6.382  18.332  0.00  0.00    +0.000 A 
ATOM      9  N   UNL     1       3.022   6.405  19.549  0.00  0.00    +0.000 NA
ATOM     10  C   UNL     1       2.183   7.432  19.793  0.00  0.00    +0.000 A 
ATOM     11  F   UNL     1       1.579   7.447  20.994  0.00  0.00    +0.000 F 
BRANCH   8  12
ATOM     12  O   UNL     1       4.458   5.349  17.999  0.00  0.00    +0.000 OA
BRANCH  12  13
ATOM     13  C   UNL     1       3.860   4.062  18.174  0.00  0.00    +0.000 C 
ATOM     14  C   UNL     1       4.190   3.484  19.552  0.00  0.00    +0.000 C 
ATOM     15  C   UNL     1       3.578   2.095  19.684  0.00  0.00    +0.000 C 
ATOM     16  C   UNL     1       2.052   2.131  19.529  0.00  0.00    +0.000 C 
ATOM     17  C   UNL     1       1.643   2.854  18.231  0.00  0.00    +0.000 C 
ATOM     18  C   UNL     1       2.340   4.205  18.039  0.00  0.00    +0.000 C 
BRANCH  16  19
ATOM     19  C   UNL     1       1.377   2.743  20.751  0.00  0.00    +0.000 C 
ATOM     20  O   UNL     1       1.720   2.555  21.907  0.00  0.00    +0.000 OA
BRANCH  19  21
ATOM     21  O   UNL     1       0.354   3.572  20.440  0.00  0.00    +0.000 OA
ATOM     22  H   UNL     1       0.119   4.206  21.142  0.00  0.00    +0.000 HD
ENDBRANCH  19  21
ENDBRANCH  16  19
ENDBRANCH  12  13
ENDBRANCH   8  12
ENDBRANCH   3   5
BRANCH   2  23
ATOM     23  C   UNL     1       0.032  11.637  19.477  0.00  0.00    +0.000 A 
ATOM     24  N   UNL     1      -1.112  11.897  18.877  0.00  0.00    +0.000 NA
ATOM     25  N   UNL     1      -1.840  12.637  19.785  0.00  0.00    +0.000 NA
ATOM     26  C   UNL     1      -1.089  12.792  20.858  0.00  0.00    +0.000 A 
ATOM     27  N   UNL     1      -1.316  13.354  22.062  0.00  0.00    +0.000 N 
ATOM     28  O   UNL     1       0.132  12.202  20.718  0.00  0.00    +0.000 OA
ATOM     29  H   UNL     1      -0.544  13.298  22.719  0.00  0.00    +0.000 HD
BRANCH  27  30
ATOM     30  C   UNL     1      -2.583  13.545  22.652  0.00  0.00    +0.000 A 
ATOM     31  C   UNL     1      -3.312  14.737  22.520  0.00  0.00    +0.000 A 
ATOM     32  C   UNL     1      -4.589  14.854  23.057  0.00  0.00    +0.000 A 
ATOM     33  F   UNL     1      -5.271  15.994  22.879  0.00  0.00    +0.000 F 
ATOM     34  C   UNL     1      -5.162  13.801  23.758  0.00  0.00    +0.000 A 
ATOM     35  F   UNL     1      -6.403  13.918  24.248  0.00  0.00    +0.000 F 
ATOM     36  C   UNL     1      -4.454  12.623  23.948  0.00  0.00    +0.000 A 
ATOM     37  C   UNL     1      -3.176  12.509  23.403  0.00  0.00    +0.000 A 
ATOM     38  F   UNL     1      -2.517  11.350  23.590  0.00  0.00    +0.000 F 
ENDBRANCH  27  30
ENDBRANCH   2  23
TORSDOF 7
ENDMDL
MODEL 7
REMARK VINA RESULT:      -8.6      8.019      9.439
REMARK  Name = 
REMARK  7 active torsions:
REMARK  status: ('A' for Active; 'I' for Inactive)
REMARK    1  A    between atoms: C_2  and  C_21
REMARK    2  A    between atoms: N_3  and  C_4
REMARK    3  A    between atoms: C_7  and  O_8
REMARK    4  A    between atoms: O_8  and  C_9
REMARK    5  A    between atoms: C_12  and  C_13
REMARK    6  A    between atoms: C_13  and  O_15
REMARK    7  A    between atoms: N_25  and  C_26
REMARK                            x       y       z     vdW  Elec       q    Type
REMARK                         _______ _______ _______ _____ _____    ______ ____
ROOT
ATOM      1  O   UNL     1       1.791   9.727  22.279  0.00  0.00    +0.000 OA
ATOM      2  C   UNL     1       0.733   9.843  21.662  0.00  0.00    +0.000 C 
ATOM      3  N   UNL     1       0.496   9.280  20.415  0.00  0.00    +0.000 N 
ATOM      4  H   UNL     1      -0.357   9.561  19.934  0.00  0.00    +0.000 HD
ENDROOT
BRANCH   3   5
ATOM      5  C   UNL     1       1.400   8.467  19.693  0.00  0.00    +0.000 A 
ATOM      6  C   UNL     1       1.933   8.813  18.453  0.00  0.00    +0.000 A 
ATOM      7  C   UNL     1       2.787   7.932  17.794  0.00  0.00    +0.000 A 
ATOM      8  C   UNL     1       3.112   6.743  18.417  0.00  0.00    +0.000 A 
ATOM      9  N   UNL     1       2.642   6.376  19.627  0.00  0.00    +0.000 NA
ATOM     10  C   UNL     1       1.803   7.242  20.230  0.00  0.00    +0.000 A 
ATOM     11  F   UNL     1       1.308   6.871  21.424  0.00  0.00    +0.000 F 
BRANCH   8  12
ATOM     12  O   UNL     1       3.959   5.898  17.725  0.00  0.00    +0.000 OA
BRANCH  12  13
ATOM     13  C   UNL     1       3.665   4.517  17.953  0.00  0.00    +0.000 C 
ATOM     14  C   UNL     1       4.181   4.063  19.322  0.00  0.00    +0.000 C 
ATOM     15  C   UNL     1       3.893   2.578  19.509  0.00  0.00    +0.000 C 
ATOM     16  C   UNL     1       2.390   2.278  19.435  0.00  0.00    +0.000 C 
ATOM     17  C   UNL     1       1.771   2.859  18.150  0.00  0.00    +0.000 C 
ATOM     18  C   UNL     1       2.147   4.324  17.899  0.00  0.00    +0.000 C 
BRANCH  16  19
ATOM     19  C   UNL     1       1.658   2.763  20.682  0.00  0.00    +0.000 C 
ATOM     20  O   UNL     1       2.124   2.767  21.810  0.00  0.00    +0.000 OA
BRANCH  19  21
ATOM     21  O   UNL     1       0.420   3.243  20.424  0.00  0.00    +0.000 OA
ATOM     22  H   UNL     1      -0.293   2.581  20.490  0.00  0.00    +0.000 HD
ENDBRANCH  19  21
ENDBRANCH  16  19
ENDBRANCH  12  13
ENDBRANCH   8  12
ENDBRANCH   3   5
BRANCH   2  23
ATOM     23  C   UNL     1      -0.367  10.616  22.183  0.00  0.00    +0.000 A 
ATOM     24  N   UNL     1      -1.001  10.417  23.320  0.00  0.00    +0.000 NA
ATOM     25  N   UNL     1      -1.899  11.459  23.424  0.00  0.00    +0.000 NA
ATOM     26  C   UNL     1      -1.765  12.203  22.343  0.00  0.00    +0.000 A 
ATOM     27  N   UNL     1      -2.322  13.368  21.958  0.00  0.00    +0.000 N 
ATOM     28  O   UNL     1      -0.821  11.706  21.493  0.00  0.00    +0.000 OA
ATOM     29  H   UNL     1      -1.997  13.730  21.066  0.00  0.00    +0.000 HD
BRANCH  27  30
ATOM     30  C   UNL     1      -2.884  14.333  22.819  0.00  0.00    +0.000 A 
ATOM     31  C   UNL     1      -4.264  14.585  22.882  0.00  0.00    +0.000 A 
ATOM     32  C   UNL     1      -4.781  15.494  23.799  0.00  0.00    +0.000 A 
ATOM     33  F   UNL     1      -6.106  15.682  23.857  0.00  0.00    +0.000 F 
ATOM     34  C   UNL     1      -3.939  16.190  24.657  0.00  0.00    +0.000 A 
ATOM     35  F   UNL     1      -4.452  17.043  25.553  0.00  0.00    +0.000 F 
ATOM     36  C   UNL     1      -2.566  16.001  24.593  0.00  0.00    +0.000 A 
ATOM     37  C   UNL     1      -2.054  15.085  23.676  0.00  0.00    +0.000 A 
ATOM     38  F   UNL     1      -0.719  14.910  23.645  0.00  0.00    +0.000 F 
ENDBRANCH  27  30
ENDBRANCH   2  23
TORSDOF 7
ENDMDL
MODEL 8
REMARK VINA RESULT:      -8.6      0.904      1.126
REMARK  Name = 
REMARK  7 active torsions:
REMARK  status: ('A' for Active; 'I' for Inactive)
REMARK    1  A    between atoms: C_2  and  C_21
REMARK    2  A    between atoms: N_3  and  C_4
REMARK    3  A    between atoms: C_7  and  O_8
REMARK    4  A    between atoms: O_8  and  C_9
REMARK    5  A    between atoms: C_12  and  C_13
REMARK    6  A    between atoms: C_13  and  O_15
REMARK    7  A    between atoms: N_25  and  C_26
REMARK                            x       y       z     vdW  Elec       q    Type
REMARK                         _______ _______ _______ _____ _____    ______ ____
ROOT
ATOM      1  O   UNL     1       8.295   7.133  18.843  0.00  0.00    +0.000 OA
ATOM      2  C   UNL     1       7.869   8.087  18.194  0.00  0.00    +0.000 C 
ATOM      3  N   UNL     1       6.774   8.020  17.343  0.00  0.00    +0.000 N 
ATOM      4  H   UNL     1       6.600   8.828  16.748  0.00  0.00    +0.000 HD
ENDROOT
BRANCH   3   5
ATOM      5  C   UNL     1       5.970   6.878  17.123  0.00  0.00    +0.000 A 
ATOM      6  C   UNL     1       4.641   6.776  17.528  0.00  0.00    +0.000 A 
ATOM      7  C   UNL     1       3.936   5.596  17.305  0.00  0.00    +0.000 A 
ATOM      8  C   UNL     1       4.575   4.563  16.645  0.00  0.00    +0.000 A 
ATOM      9  N   UNL     1       5.851   4.625  16.213  0.00  0.00    +0.000 NA
ATOM     10  C   UNL     1       6.512   5.774  16.460  0.00  0.00    +0.000 A 
ATOM     11  F   UNL     1       7.793   5.833  16.057  0.00  0.00    +0.000 F 
BRANCH   8  12
ATOM     12  O   UNL     1       3.839   3.410  16.449  0.00  0.00    +0.000 OA
BRANCH  12  13
ATOM     13  C   UNL     1       3.506   2.754  17.675  0.00  0.00    +0.000 C 
ATOM     14  C   UNL     1       4.181   3.439  18.866  0.00  0.00    +0.000 C 
ATOM     15  C   UNL     1       3.843   2.686  20.147  0.00  0.00    +0.000 C 
ATOM     16  C   UNL     1       2.330   2.652  20.403  0.00  0.00    +0.000 C 
ATOM     17  C   UNL     1       1.571   2.125  19.171  0.00  0.00    +0.000 C 
ATOM     18  C   UNL     1       1.986   2.805  17.861  0.00  0.00    +0.000 C 
BRANCH  16  19
ATOM     19  C   UNL     1       1.806   4.012  20.849  0.00  0.00    +0.000 C 
ATOM     20  O   UNL     1       0.724   4.482  20.536  0.00  0.00    +0.000 OA
BRANCH  19  21
ATOM     21  O   UNL     1       2.649   4.666  21.681  0.00  0.00    +0.000 OA
ATOM     22  H   UNL     1       2.770   4.241  22.551  0.00  0.00    +0.000 HD
ENDBRANCH  19  21
ENDBRANCH  16  19
ENDBRANCH  12  13
ENDBRANCH   8  12
ENDBRANCH   3   5
BRANCH   2  23
ATOM     23  C   UNL     1       8.503   9.381  18.246  0.00  0.00    +0.000 A 
ATOM     24  N   UNL     1       8.183  10.445  17.539  0.00  0.00    +0.000 NA
ATOM     25  N   UNL     1       9.000  11.453  18.006  0.00  0.00    +0.000 NA
ATOM     26  C   UNL     1       9.769  10.933  18.943  0.00  0.00    +0.000 A 
ATOM     27  N   UNL     1      10.682  11.467  19.778  0.00  0.00    +0.000 N 
ATOM     28  O   UNL     1       9.522   9.605  19.129  0.00  0.00    +0.000 OA
ATOM     29  H   UNL     1      11.105  10.814  20.432  0.00  0.00    +0.000 HD
BRANCH  27  30
ATOM     30  C   UNL     1      10.747  12.820  20.168  0.00  0.00    +0.000 A 
ATOM     31  C   UNL     1      11.470  13.785  19.449  0.00  0.00    +0.000 A 
ATOM     32  C   UNL     1      11.444  15.123  19.828  0.00  0.00    +0.000 A 
ATOM     33  F   UNL     1      12.116  16.023  19.096  0.00  0.00    +0.000 F 
ATOM     34  C   UNL     1      10.722  15.529  20.943  0.00  0.00    +0.000 A 
ATOM     35  F   UNL     1      10.686  16.824  21.283  0.00  0.00    +0.000 F 
ATOM     36  C   UNL     1      10.033  14.597  21.705  0.00  0.00    +0.000 A 
ATOM     37  C   UNL     1      10.057  13.259  21.317  0.00  0.00    +0.000 A 
ATOM     38  F   UNL     1       9.367  12.377  22.065  0.00  0.00    +0.000 F 
ENDBRANCH  27  30
ENDBRANCH   2  23
TORSDOF 7
ENDMDL
MODEL 9
REMARK VINA RESULT:      -8.6      1.380      1.684
REMARK  Name = 
REMARK  7 active torsions:
REMARK  status: ('A' for Active; 'I' for Inactive)
REMARK    1  A    between atoms: C_2  and  C_21
REMARK    2  A    between atoms: N_3  and  C_4
REMARK    3  A    between atoms: C_7  and  O_8
REMARK    4  A    between atoms: O_8  and  C_9
REMARK    5  A    between atoms: C_12  and  C_13
REMARK    6  A    between atoms: C_13  and  O_15
REMARK    7  A    between atoms: N_25  and  C_26
REMARK                            x       y       z     vdW  Elec       q    Type
REMARK                         _______ _______ _______ _____ _____    ______ ____
ROOT
ATOM      1  O   UNL     1       8.699   8.012  19.012  0.00  0.00    +0.000 OA
ATOM      2  C   UNL     1       8.174   8.688  18.128  0.00  0.00    +0.000 C 
ATOM      3  N   UNL     1       7.186   8.217  17.274  0.00  0.00    +0.000 N 
ATOM      4  H   UNL     1       6.929   8.813  16.490  0.00  0.00    +0.000 HD
ENDROOT
BRANCH   3   5
ATOM      5  C   UNL     1       6.612   6.925  17.312  0.00  0.00    +0.000 A 
ATOM      6  C   UNL     1       7.070   5.897  18.132  0.00  0.00    +0.000 A 
ATOM      7  C   UNL     1       6.468   4.642  18.075  0.00  0.00    +0.000 A 
ATOM      8  C   UNL     1       5.397   4.466  17.221  0.00  0.00    +0.000 A 
ATOM      9  N   UNL     1       4.902   5.438  16.426  0.00  0.00    +0.000 NA
ATOM     10  C   UNL     1       5.518   6.635  16.492  0.00  0.00    +0.000 A 
ATOM     11  F   UNL     1       5.050   7.602  15.683  0.00  0.00    +0.000 F 
BRANCH   8  12
ATOM     12  O   UNL     1       4.833   3.205  17.193  0.00  0.00    +0.000 OA
BRANCH  12  13
ATOM     13  C   UNL     1       3.484   3.194  17.670  0.00  0.00    +0.000 C 
ATOM     14  C   UNL     1       3.265   2.061  18.675  0.00  0.00    +0.000 C 
ATOM     15  C   UNL     1       1.808   2.051  19.124  0.00  0.00    +0.000 C 
ATOM     16  C   UNL     1       1.412   3.374  19.793  0.00  0.00    +0.000 C 
ATOM     17  C   UNL     1       1.763   4.576  18.895  0.00  0.00    +0.000 C 
ATOM     18  C   UNL     1       3.195   4.535  18.352  0.00  0.00    +0.000 C 
BRANCH  16  19
ATOM     19  C   UNL     1       2.028   3.509  21.180  0.00  0.00    +0.000 C 
ATOM     20  O   UNL     1       2.216   2.585  21.956  0.00  0.00    +0.000 OA
BRANCH  19  21
ATOM     21  O   UNL     1       2.399   4.774  21.482  0.00  0.00    +0.000 OA
ATOM     22  H   UNL     1       3.361   4.902  21.580  0.00  0.00    +0.000 HD
ENDBRANCH  19  21
ENDBRANCH  16  19
ENDBRANCH  12  13
ENDBRANCH   8  12
ENDBRANCH   3   5
BRANCH   2  23
ATOM     23  C   UNL     1       8.571  10.053  17.883  0.00  0.00    +0.000 A 
ATOM     24  N   UNL     1       7.778  11.064  17.596  0.00  0.00    +0.000 NA
ATOM     25  N   UNL     1       8.601  12.170  17.547  0.00  0.00    +0.000 NA
ATOM     26  C   UNL     1       9.830  11.756  17.785  0.00  0.00    +0.000 A 
ATOM     27  N   UNL     1      11.002  12.404  17.933  0.00  0.00    +0.000 N 
ATOM     28  O   UNL     1       9.887  10.407  17.981  0.00  0.00    +0.000 OA
ATOM     29  H   UNL     1      11.801  11.813  18.146  0.00  0.00    +0.000 HD
BRANCH  27  30
ATOM     30  C   UNL     1      11.152  13.756  18.304  0.00  0.00    +0.000 A 
ATOM     31  C   UNL     1      11.260  14.795  17.367  0.00  0.00    +0.000 A 
ATOM     32  C   UNL     1      11.331  16.122  17.779  0.00  0.00    +0.000 A 
ATOM     33  F   UNL     1      11.396  17.090  16.855  0.00  0.00    +0.000 F 
ATOM     34  C   UNL     1      11.321  16.445  19.129  0.00  0.00    +0.000 A 
ATOM     35  F   UNL     1      11.364  17.728  19.511  0.00  0.00    +0.000 F 
ATOM     36  C   UNL     1      11.260  15.442  20.086  0.00  0.00    +0.000 A 
ATOM     37  C   UNL     1      11.184  14.115  19.668  0.00  0.00    +0.000 A 
ATOM     38  F   UNL     1      11.111  13.163  20.617  0.00  0.00    +0.000 F 
ENDBRANCH  27  30
ENDBRANCH   2  23
TORSDOF 7
ENDMDL
