MODEL 1
REMARK VINA RESULT:      -7.7      0.000      0.000
REMARK  Name = 
REMARK  9 active torsions:
REMARK  status: ('A' for Active; 'I' for Inactive)
REMARK    1  A    between atoms: C_1  and  C_2
REMARK    2  A    between atoms: C_2  and  C_3
REMARK    3  A    between atoms: C_10  and  C_11
REMARK    4  A    between atoms: C_11  and  O_12
REMARK    5  A    between atoms: C_11  and  C_13
REMARK    6  A    between atoms: C_15  and  N_16
REMARK    7  A    between atoms: C_19  and  C_20
REMARK    8  A    between atoms: C_27  and  O_28
REMARK    9  A    between atoms: O_28  and  C_29
REMARK                            x       y       z     vdW  Elec       q    Type
REMARK                         _______ _______ _______ _____ _____    ______ ____
ROOT
ATOM      1  C   UNL     1       2.991   6.258  18.864  0.00  0.00    +0.000 A 
ATOM      2  C   UNL     1       2.558   7.455  19.442  0.00  0.00    +0.000 A 
ATOM      3  C   UNL     1       1.659   7.469  20.493  0.00  0.00    +0.000 A 
ATOM      4  N   UNL     1       1.126   6.315  20.937  0.00  0.00    +0.000 NA
ATOM      5  C   UNL     1       1.496   5.148  20.383  0.00  0.00    +0.000 A 
ATOM      6  C   UNL     1       0.937   3.984  20.901  0.00  0.00    +0.000 A 
ATOM      7  C   UNL     1       1.238   2.717  20.389  0.00  0.00    +0.000 A 
ATOM      8  C   UNL     1       2.125   2.599  19.332  0.00  0.00    +0.000 A 
ATOM      9  C   UNL     1       2.718   3.759  18.813  0.00  0.00    +0.000 A 
ATOM     10  C   UNL     1       2.424   5.047  19.327  0.00  0.00    +0.000 A 
ENDROOT
BRANCH   3  11
ATOM     11  N   UNL     1       1.272   8.663  21.057  0.00  0.00    +0.000 N 
ATOM     12  C   UNL     1       1.616   8.967  22.436  0.00  0.00    +0.000 C 
ATOM     13  C   UNL     1       0.346   9.497  23.111  0.00  0.00    +0.000 C 
ATOM     14  C   UNL     1      -0.270  10.678  22.336  0.00  0.00    +0.000 C 
ATOM     15  C   UNL     1      -1.609  11.079  22.949  0.00  0.00    +0.000 C 
ATOM     16  C   UNL     1      -0.446  10.342  20.845  0.00  0.00    +0.000 C 
ATOM     17  C   UNL     1       0.853   9.803  20.250  0.00  0.00    +0.000 C 
ENDBRANCH   3  11
BRANCH   8  18
ATOM     18  O   UNL     1       2.497   1.435  18.718  0.00  0.00    +0.000 OA
ATOM     19  C   UNL     1       3.843   1.349  18.267  0.00  0.00    +0.000 C 
ENDBRANCH   8  18
BRANCH   1  20
ATOM     20  C   UNL     1       4.089   6.358  17.829  0.00  0.00    +0.000 C 
BRANCH  20  28
ATOM     21  C   UNL     1       7.343   7.162  18.325  0.00  0.00    +0.000 C 
ATOM     22  C   UNL     1       6.877   6.838  16.888  0.00  0.00    +0.000 C 
ATOM     23  N   UNL     1       6.246   5.495  16.824  0.00  0.00    +0.000 NA
ATOM     24  C   UNL     1       7.343   4.508  16.986  0.00  0.00    +0.000 C 
ATOM     25  C   UNL     1       8.129   4.747  18.287  0.00  0.00    +0.000 C 
ATOM     26  C   UNL     1       7.431   5.836  19.121  0.00  0.00    +0.000 C 
ATOM     27  C   UNL     1       5.979   5.364  19.328  0.00  0.00    +0.000 C 
ATOM     28  C   UNL     1       5.262   5.326  17.960  0.00  0.00    +0.000 C 
BRANCH  21  30
ATOM     29  C   UNL     1       8.344   9.473  18.110  0.00  0.00    +0.000 C 
ATOM     30  C   UNL     1       8.630   7.994  18.351  0.00  0.00    +0.000 C 
ENDBRANCH  21  30
ENDBRANCH  20  28
BRANCH  20  31
ATOM     31  O   UNL     1       3.465   6.147  16.545  0.00  0.00    +0.000 OA
ATOM     32  H   UNL     1       3.770   5.262  16.262  0.00  0.00    +0.000 HD
ENDBRANCH  20  31
ENDBRANCH   1  20
TORSDOF 6
ENDMDL
MODEL 2
REMARK VINA RESULT:      -7.4      3.900      8.825
REMARK  Name = 
REMARK  9 active torsions:
REMARK  status: ('A' for Active; 'I' for Inactive)
REMARK    1  A    between atoms: C_1  and  C_2
REMARK    2  A    between atoms: C_2  and  C_3
REMARK    3  A    between atoms: C_10  and  C_11
REMARK    4  A    between atoms: C_11  and  O_12
REMARK    5  A    between atoms: C_11  and  C_13
REMARK    6  A    between atoms: C_15  and  N_16
REMARK    7  A    between atoms: C_19  and  C_20
REMARK    8  A    between atoms: C_27  and  O_28
REMARK    9  A    between atoms: O_28  and  C_29
REMARK                            x       y       z     vdW  Elec       q    Type
REMARK                         _______ _______ _______ _____ _____    ______ ____
ROOT
ATOM      1  C   UNL     1       0.529   9.747  18.922  0.00  0.00    +0.000 A 
ATOM      2  C   UNL     1       1.346   8.837  18.245  0.00  0.00    +0.000 A 
ATOM      3  C   UNL     1       2.050   7.854  18.918  0.00  0.00    +0.000 A 
ATOM      4  N   UNL     1       2.013   7.803  20.263  0.00  0.00    +0.000 NA
ATOM      5  C   UNL     1       1.263   8.682  20.948  0.00  0.00    +0.000 A 
ATOM      6  C   UNL     1       1.237   8.565  22.334  0.00  0.00    +0.000 A 
ATOM      7  C   UNL     1       0.504   9.437  23.147  0.00  0.00    +0.000 A 
ATOM      8  C   UNL     1      -0.231  10.457  22.566  0.00  0.00    +0.000 A 
ATOM      9  C   UNL     1      -0.238  10.577  21.169  0.00  0.00    +0.000 A 
ATOM     10  C   UNL     1       0.498   9.696  20.336  0.00  0.00    +0.000 A 
ENDROOT
BRANCH   3  11
ATOM     11  N   UNL     1       2.826   6.957  18.220  0.00  0.00    +0.000 N 
ATOM     12  C   UNL     1       2.518   5.537  18.261  0.00  0.00    +0.000 C 
ATOM     13  C   UNL     1       3.836   4.798  18.519  0.00  0.00    +0.000 C 
ATOM     14  C   UNL     1       4.924   5.183  17.497  0.00  0.00    +0.000 C 
ATOM     15  C   UNL     1       6.260   4.548  17.874  0.00  0.00    +0.000 C 
ATOM     16  C   UNL     1       5.073   6.710  17.383  0.00  0.00    +0.000 C 
ATOM     17  C   UNL     1       3.720   7.375  17.147  0.00  0.00    +0.000 C 
ENDBRANCH   3  11
BRANCH   8  18
ATOM     18  O   UNL     1      -0.975  11.393  23.230  0.00  0.00    +0.000 OA
ATOM     19  C   UNL     1      -2.084  11.946  22.531  0.00  0.00    +0.000 C 
ENDBRANCH   8  18
BRANCH   1  20
ATOM     20  C   UNL     1      -0.310  10.674  18.072  0.00  0.00    +0.000 C 
BRANCH  20  28
ATOM     21  C   UNL     1      -2.923  10.118  15.989  0.00  0.00    +0.000 C 
ATOM     22  C   UNL     1      -2.473  11.577  16.228  0.00  0.00    +0.000 C 
ATOM     23  N   UNL     1      -2.487  11.905  17.677  0.00  0.00    +0.000 NA
ATOM     24  C   UNL     1      -3.914  11.989  18.074  0.00  0.00    +0.000 C 
ATOM     25  C   UNL     1      -4.671  10.692  17.739  0.00  0.00    +0.000 C 
ATOM     26  C   UNL     1      -3.676   9.625  17.249  0.00  0.00    +0.000 C 
ATOM     27  C   UNL     1      -2.612   9.479  18.353  0.00  0.00    +0.000 C 
ATOM     28  C   UNL     1      -1.822  10.801  18.469  0.00  0.00    +0.000 C 
BRANCH  21  30
ATOM     29  C   UNL     1      -2.786   9.699  13.499  0.00  0.00    +0.000 C 
ATOM     30  C   UNL     1      -3.712   9.955  14.684  0.00  0.00    +0.000 C 
ENDBRANCH  21  30
ENDBRANCH  20  28
BRANCH  20  31
ATOM     31  O   UNL     1       0.282  11.985  18.185  0.00  0.00    +0.000 OA
ATOM     32  H   UNL     1       0.904  11.913  18.937  0.00  0.00    +0.000 HD
ENDBRANCH  20  31
ENDBRANCH   1  20
TORSDOF 6
ENDMDL
MODEL 3
REMARK VINA RESULT:      -7.3      4.691     10.938
REMARK  Name = 
REMARK  9 active torsions:
REMARK  status: ('A' for Active; 'I' for Inactive)
REMARK    1  A    between atoms: C_1  and  C_2
REMARK    2  A    between atoms: C_2  and  C_3
REMARK    3  A    between atoms: C_10  and  C_11
REMARK    4  A    between atoms: C_11  and  O_12
REMARK    5  A    between atoms: C_11  and  C_13
REMARK    6  A    between atoms: C_15  and  N_16
REMARK    7  A    between atoms: C_19  and  C_20
REMARK    8  A    between atoms: C_27  and  O_28
REMARK    9  A    between atoms: O_28  and  C_29
REMARK                            x       y       z     vdW  Elec       q    Type
REMARK                         _______ _______ _______ _____ _____    ______ ____
ROOT
ATOM      1  C   UNL     1      -1.888  12.366  20.065  0.00  0.00    +0.000 A 
ATOM      2  C   UNL     1      -0.722  11.596  20.086  0.00  0.00    +0.000 A 
ATOM      3  C   UNL     1      -0.568  10.491  19.268  0.00  0.00    +0.000 A 
ATOM      4  N   UNL     1      -1.583  10.092  18.478  0.00  0.00    +0.000 NA
ATOM      5  C   UNL     1      -2.731  10.791  18.457  0.00  0.00    +0.000 A 
ATOM      6  C   UNL     1      -3.737  10.354  17.601  0.00  0.00    +0.000 A 
ATOM      7  C   UNL     1      -4.977  10.995  17.511  0.00  0.00    +0.000 A 
ATOM      8  C   UNL     1      -5.228  12.109  18.294  0.00  0.00    +0.000 A 
ATOM      9  C   UNL     1      -4.219  12.581  19.146  0.00  0.00    +0.000 A 
ATOM     10  C   UNL     1      -2.957  11.942  19.241  0.00  0.00    +0.000 A 
ENDROOT
BRANCH   3  11
ATOM     11  N   UNL     1       0.603   9.768  19.293  0.00  0.00    +0.000 N 
ATOM     12  C   UNL     1       1.519   9.821  18.166  0.00  0.00    +0.000 C 
ATOM     13  C   UNL     1       1.921   8.377  17.844  0.00  0.00    +0.000 C 
ATOM     14  C   UNL     1       2.476   7.643  19.081  0.00  0.00    +0.000 C 
ATOM     15  C   UNL     1       2.721   6.170  18.763  0.00  0.00    +0.000 C 
ATOM     16  C   UNL     1       1.530   7.777  20.287  0.00  0.00    +0.000 C 
ATOM     17  C   UNL     1       1.161   9.238  20.531  0.00  0.00    +0.000 C 
ENDBRANCH   3  11
BRANCH   8  18
ATOM     18  O   UNL     1      -6.394  12.823  18.329  0.00  0.00    +0.000 OA
ATOM     19  C   UNL     1      -7.416  12.342  19.193  0.00  0.00    +0.000 C 
ENDBRANCH   8  18
BRANCH   1  20
ATOM     20  C   UNL     1      -1.882  13.636  20.886  0.00  0.00    +0.000 C 
BRANCH  20  28
ATOM     21  C   UNL     1      -4.858  13.632  22.507  0.00  0.00    +0.000 C 
ATOM     22  C   UNL     1      -4.031  14.938  22.493  0.00  0.00    +0.000 C 
ATOM     23  N   UNL     1      -2.669  14.709  23.040  0.00  0.00    +0.000 NA
ATOM     24  C   UNL     1      -2.833  14.503  24.501  0.00  0.00    +0.000 C 
ATOM     25  C   UNL     1      -3.809  13.353  24.802  0.00  0.00    +0.000 C 
ATOM     26  C   UNL     1      -4.191  12.641  23.492  0.00  0.00    +0.000 C 
ATOM     27  C   UNL     1      -2.870  12.204  22.831  0.00  0.00    +0.000 C 
ATOM     28  C   UNL     1      -2.065  13.461  22.434  0.00  0.00    +0.000 C 
BRANCH  21  30
ATOM     29  C   UNL     1      -7.068  12.596  23.166  0.00  0.00    +0.000 C 
ATOM     30  C   UNL     1      -6.345  13.884  22.782  0.00  0.00    +0.000 C 
ENDBRANCH  21  30
ENDBRANCH  20  28
BRANCH  20  31
ATOM     31  O   UNL     1      -0.601  14.262  20.667  0.00  0.00    +0.000 OA
ATOM     32  H   UNL     1      -0.813  15.129  20.267  0.00  0.00    +0.000 HD
ENDBRANCH  20  31
ENDBRANCH   1  20
TORSDOF 6
ENDMDL
MODEL 4
REMARK VINA RESULT:      -7.1      3.671      8.276
REMARK  Name = 
REMARK  9 active torsions:
REMARK  status: ('A' for Active; 'I' for Inactive)
REMARK    1  A    between atoms: C_1  and  C_2
REMARK    2  A    between atoms: C_2  and  C_3
REMARK    3  A    between atoms: C_10  and  C_11
REMARK    4  A    between atoms: C_11  and  O_12
REMARK    5  A    between atoms: C_11  and  C_13
REMARK    6  A    between atoms: C_15  and  N_16
REMARK    7  A    between atoms: C_19  and  C_20
REMARK    8  A    between atoms: C_27  and  O_28
REMARK    9  A    between atoms: O_28  and  C_29
REMARK                            x       y       z     vdW  Elec       q    Type
REMARK                         _______ _______ _______ _____ _____    ______ ____
ROOT
ATOM      1  C   UNL     1       1.088  10.166  19.713  0.00  0.00    +0.000 A 
ATOM      2  C   UNL     1       1.694   8.943  19.414  0.00  0.00    +0.000 A 
ATOM      3  C   UNL     1       1.535   7.836  20.229  0.00  0.00    +0.000 A 
ATOM      4  N   UNL     1       0.841   7.942  21.378  0.00  0.00    +0.000 NA
ATOM      5  C   UNL     1       0.271   9.112  21.713  0.00  0.00    +0.000 A 
ATOM      6  C   UNL     1      -0.461   9.158  22.895  0.00  0.00    +0.000 A 
ATOM      7  C   UNL     1      -1.081  10.327  23.348  0.00  0.00    +0.000 A 
ATOM      8  C   UNL     1      -0.976  11.489  22.603  0.00  0.00    +0.000 A 
ATOM      9  C   UNL     1      -0.263  11.459  21.395  0.00  0.00    +0.000 A 
ATOM     10  C   UNL     1       0.365  10.278  20.925  0.00  0.00    +0.000 A 
ENDROOT
BRANCH   3  11
ATOM     11  N   UNL     1       2.124   6.639  19.894  0.00  0.00    +0.000 N 
ATOM     12  C   UNL     1       3.158   6.594  18.873  0.00  0.00    +0.000 C 
ATOM     13  C   UNL     1       2.815   5.429  17.937  0.00  0.00    +0.000 C 
ATOM     14  C   UNL     1       2.623   4.107  18.705  0.00  0.00    +0.000 C 
ATOM     15  C   UNL     1       2.135   3.008  17.765  0.00  0.00    +0.000 C 
ATOM     16  C   UNL     1       1.644   4.277  19.880  0.00  0.00    +0.000 C 
ATOM     17  C   UNL     1       2.039   5.465  20.754  0.00  0.00    +0.000 C 
ENDBRANCH   3  11
BRANCH   8  18
ATOM     18  O   UNL     1      -1.508  12.707  22.929  0.00  0.00    +0.000 OA
ATOM     19  C   UNL     1      -2.914  12.758  23.137  0.00  0.00    +0.000 C 
ENDBRANCH   8  18
BRANCH   1  20
ATOM     20  C   UNL     1       1.204  11.258  18.673  0.00  0.00    +0.000 C 
BRANCH  20  28
ATOM     21  C   UNL     1       0.506  14.427  19.649  0.00  0.00    +0.000 C 
ATOM     22  C   UNL     1       0.794  14.166  18.154  0.00  0.00    +0.000 C 
ATOM     23  N   UNL     1       2.117  13.514  17.974  0.00  0.00    +0.000 NA
ATOM     24  C   UNL     1       3.138  14.548  18.275  0.00  0.00    +0.000 C 
ATOM     25  C   UNL     1       2.942  15.144  19.680  0.00  0.00    +0.000 C 
ATOM     26  C   UNL     1       1.845  14.362  20.425  0.00  0.00    +0.000 C 
ATOM     27  C   UNL     1       2.276  12.883  20.411  0.00  0.00    +0.000 C 
ATOM     28  C   UNL     1       2.273  12.371  18.953  0.00  0.00    +0.000 C 
BRANCH  21  30
ATOM     29  C   UNL     1      -0.416  16.529  18.590  0.00  0.00    +0.000 C 
ATOM     30  C   UNL     1      -0.287  15.719  19.876  0.00  0.00    +0.000 C 
ENDBRANCH  21  30
ENDBRANCH  20  28
BRANCH  20  31
ATOM     31  O   UNL     1       1.563  10.611  17.435  0.00  0.00    +0.000 OA
ATOM     32  H   UNL     1       2.032   9.797  17.706  0.00  0.00    +0.000 HD
ENDBRANCH  20  31
ENDBRANCH   1  20
TORSDOF 6
ENDMDL
MODEL 5
REMARK VINA RESULT:      -7.0      4.921     11.077
REMARK  Name = 
REMARK  9 active torsions:
REMARK  status: ('A' for Active; 'I' for Inactive)
REMARK    1  A    between atoms: C_1  and  C_2
REMARK    2  A    between atoms: C_2  and  C_3
REMARK    3  A    between atoms: C_10  and  C_11
REMARK    4  A    between atoms: C_11  and  O_12
REMARK    5  A    between atoms: C_11  and  C_13
REMARK    6  A    between atoms: C_15  and  N_16
REMARK    7  A    between atoms: C_19  and  C_20
REMARK    8  A    between atoms: C_27  and  O_28
REMARK    9  A    between atoms: O_28  and  C_29
REMARK                            x       y       z     vdW  Elec       q    Type
REMARK                         _______ _______ _______ _____ _____    ______ ____
ROOT
ATOM      1  C   UNL     1      -2.214  11.877  19.721  0.00  0.00    +0.000 A 
ATOM      2  C   UNL     1      -1.024  11.165  19.902  0.00  0.00    +0.000 A 
ATOM      3  C   UNL     1      -0.561  10.275  18.949  0.00  0.00    +0.000 A 
ATOM      4  N   UNL     1      -1.297  10.023  17.850  0.00  0.00    +0.000 NA
ATOM      5  C   UNL     1      -2.461  10.666  17.660  0.00  0.00    +0.000 A 
ATOM      6  C   UNL     1      -3.167  10.392  16.493  0.00  0.00    +0.000 A 
ATOM      7  C   UNL     1      -4.397  10.990  16.201  0.00  0.00    +0.000 A 
ATOM      8  C   UNL     1      -4.946  11.894  17.096  0.00  0.00    +0.000 A 
ATOM      9  C   UNL     1      -4.239  12.203  18.267  0.00  0.00    +0.000 A 
ATOM     10  C   UNL     1      -2.989  11.606  18.569  0.00  0.00    +0.000 A 
ENDROOT
BRANCH   3  11
ATOM     11  N   UNL     1       0.627   9.608  19.145  0.00  0.00    +0.000 N 
ATOM     12  C   UNL     1       1.620   9.557  18.084  0.00  0.00    +0.000 C 
ATOM     13  C   UNL     1       2.089   8.102  17.975  0.00  0.00    +0.000 C 
ATOM     14  C   UNL     1       2.577   7.549  19.329  0.00  0.00    +0.000 C 
ATOM     15  C   UNL     1       2.890   6.060  19.217  0.00  0.00    +0.000 C 
ATOM     16  C   UNL     1       1.542   7.794  20.442  0.00  0.00    +0.000 C 
ATOM     17  C   UNL     1       1.111   9.258  20.475  0.00  0.00    +0.000 C 
ENDBRANCH   3  11
BRANCH   8  18
ATOM     18  O   UNL     1      -6.144  12.539  16.956  0.00  0.00    +0.000 OA
ATOM     19  C   UNL     1      -7.114  12.319  17.973  0.00  0.00    +0.000 C 
ENDBRANCH   8  18
BRANCH   1  20
ATOM     20  C   UNL     1      -2.539  12.934  20.753  0.00  0.00    +0.000 C 
BRANCH  20  28
ATOM     21  C   UNL     1      -4.781  14.911  22.349  0.00  0.00    +0.000 C 
ATOM     22  C   UNL     1      -3.393  14.702  22.997  0.00  0.00    +0.000 C 
ATOM     23  N   UNL     1      -3.113  13.257  23.198  0.00  0.00    +0.000 NA
ATOM     24  C   UNL     1      -4.002  12.807  24.298  0.00  0.00    +0.000 C 
ATOM     25  C   UNL     1      -5.480  13.101  23.987  0.00  0.00    +0.000 C 
ATOM     26  C   UNL     1      -5.612  13.618  22.544  0.00  0.00    +0.000 C 
ATOM     27  C   UNL     1      -4.965  12.554  21.637  0.00  0.00    +0.000 C 
ATOM     28  C   UNL     1      -3.453  12.480  21.945  0.00  0.00    +0.000 C 
BRANCH  21  30
ATOM     29  C   UNL     1      -6.975  16.149  22.568  0.00  0.00    +0.000 C 
ATOM     30  C   UNL     1      -5.475  16.183  22.849  0.00  0.00    +0.000 C 
ENDBRANCH  21  30
ENDBRANCH  20  28
BRANCH  20  31
ATOM     31  O   UNL     1      -1.282  13.368  21.310  0.00  0.00    +0.000 OA
ATOM     32  H   UNL     1      -1.389  14.331  21.447  0.00  0.00    +0.000 HD
ENDBRANCH  20  31
ENDBRANCH   1  20
TORSDOF 6
ENDMDL
MODEL 6
REMARK VINA RESULT:      -6.8      7.716     11.271
REMARK  Name = 
REMARK  9 active torsions:
REMARK  status: ('A' for Active; 'I' for Inactive)
REMARK    1  A    between atoms: C_1  and  C_2
REMARK    2  A    between atoms: C_2  and  C_3
REMARK    3  A    between atoms: C_10  and  C_11
REMARK    4  A    between atoms: C_11  and  O_12
REMARK    5  A    between atoms: C_11  and  C_13
REMARK    6  A    between atoms: C_15  and  N_16
REMARK    7  A    between atoms: C_19  and  C_20
REMARK    8  A    between atoms: C_27  and  O_28
REMARK    9  A    between atoms: O_28  and  C_29
REMARK                            x       y       z     vdW  Elec       q    Type
REMARK                         _______ _______ _______ _____ _____    ______ ____
ROOT
ATOM      1  C   UNL     1      -2.378  13.144  20.062  0.00  0.00    +0.000 A 
ATOM      2  C   UNL     1      -1.001  13.365  20.150  0.00  0.00    +0.000 A 
ATOM      3  C   UNL     1      -0.109  12.734  19.301  0.00  0.00    +0.000 A 
ATOM      4  N   UNL     1      -0.555  11.829  18.410  0.00  0.00    +0.000 NA
ATOM      5  C   UNL     1      -1.871  11.568  18.320  0.00  0.00    +0.000 A 
ATOM      6  C   UNL     1      -2.281  10.647  17.361  0.00  0.00    +0.000 A 
ATOM      7  C   UNL     1      -3.622  10.287  17.192  0.00  0.00    +0.000 A 
ATOM      8  C   UNL     1      -4.591  10.863  17.998  0.00  0.00    +0.000 A 
ATOM      9  C   UNL     1      -4.201  11.812  18.954  0.00  0.00    +0.000 A 
ATOM     10  C   UNL     1      -2.845  12.187  19.130  0.00  0.00    +0.000 A 
ENDROOT
BRANCH   3  11
ATOM     11  N   UNL     1       1.239  12.992  19.396  0.00  0.00    +0.000 N 
ATOM     12  C   UNL     1       1.891  13.005  20.696  0.00  0.00    +0.000 C 
ATOM     13  C   UNL     1       2.763  14.265  20.749  0.00  0.00    +0.000 C 
ATOM     14  C   UNL     1       3.731  14.349  19.553  0.00  0.00    +0.000 C 
ATOM     15  C   UNL     1       4.471  15.684  19.557  0.00  0.00    +0.000 C 
ATOM     16  C   UNL     1       2.992  14.154  18.217  0.00  0.00    +0.000 C 
ATOM     17  C   UNL     1       2.131  12.893  18.248  0.00  0.00    +0.000 C 
ENDBRANCH   3  11
BRANCH   8  18
ATOM     18  O   UNL     1      -5.932  10.596  17.962  0.00  0.00    +0.000 OA
ATOM     19  C   UNL     1      -6.659  10.799  19.167  0.00  0.00    +0.000 C 
ENDBRANCH   8  18
BRANCH   1  20
ATOM     20  C   UNL     1      -3.265  14.004  20.935  0.00  0.00    +0.000 C 
BRANCH  20  28
ATOM     21  C   UNL     1      -5.391  13.018  23.382  0.00  0.00    +0.000 C 
ATOM     22  C   UNL     1      -5.257  14.530  23.091  0.00  0.00    +0.000 C 
ATOM     23  N   UNL     1      -3.842  14.968  23.203  0.00  0.00    +0.000 NA
ATOM     24  C   UNL     1      -3.507  14.935  24.649  0.00  0.00    +0.000 C 
ATOM     25  C   UNL     1      -3.761  13.544  25.256  0.00  0.00    +0.000 C 
ATOM     26  C   UNL     1      -4.123  12.550  24.138  0.00  0.00    +0.000 C 
ATOM     27  C   UNL     1      -2.972  12.603  23.117  0.00  0.00    +0.000 C 
ATOM     28  C   UNL     1      -2.936  14.004  22.468  0.00  0.00    +0.000 C 
BRANCH  21  30
ATOM     29  C   UNL     1      -7.645  13.874  24.142  0.00  0.00    +0.000 C 
ATOM     30  C   UNL     1      -6.707  12.673  24.090  0.00  0.00    +0.000 C 
ENDBRANCH  21  30
ENDBRANCH  20  28
BRANCH  20  31
ATOM     31  O   UNL     1      -3.124  15.358  20.459  0.00  0.00    +0.000 OA
ATOM     32  H   UNL     1      -3.996  15.770  20.619  0.00  0.00    +0.000 HD
ENDBRANCH  20  31
ENDBRANCH   1  20
TORSDOF 6
ENDMDL
MODEL 7
REMARK VINA RESULT:      -6.8      7.834      9.250
REMARK  Name = 
REMARK  9 active torsions:
REMARK  status: ('A' for Active; 'I' for Inactive)
REMARK    1  A    between atoms: C_1  and  C_2
REMARK    2  A    between atoms: C_2  and  C_3
REMARK    3  A    between atoms: C_10  and  C_11
REMARK    4  A    between atoms: C_11  and  O_12
REMARK    5  A    between atoms: C_11  and  C_13
REMARK    6  A    between atoms: C_15  and  N_16
REMARK    7  A    between atoms: C_19  and  C_20
REMARK    8  A    between atoms: C_27  and  O_28
REMARK    9  A    between atoms: O_28  and  C_29
REMARK                            x       y       z     vdW  Elec       q    Type
REMARK                         _______ _______ _______ _____ _____    ______ ____
ROOT
ATOM      1  C   UNL     1      -1.894  12.563  19.587  0.00  0.00    +0.000 A 
ATOM      2  C   UNL     1      -2.553  13.100  20.696  0.00  0.00    +0.000 A 
ATOM      3  C   UNL     1      -3.928  13.033  20.825  0.00  0.00    +0.000 A 
ATOM      4  N   UNL     1      -4.672  12.505  19.834  0.00  0.00    +0.000 NA
ATOM      5  C   UNL     1      -4.073  12.008  18.739  0.00  0.00    +0.000 A 
ATOM      6  C   UNL     1      -4.886  11.445  17.759  0.00  0.00    +0.000 A 
ATOM      7  C   UNL     1      -4.371  10.915  16.572  0.00  0.00    +0.000 A 
ATOM      8  C   UNL     1      -3.004  10.938  16.348  0.00  0.00    +0.000 A 
ATOM      9  C   UNL     1      -2.165  11.479  17.334  0.00  0.00    +0.000 A 
ATOM     10  C   UNL     1      -2.676  12.015  18.543  0.00  0.00    +0.000 A 
ENDROOT
BRANCH   3  11
ATOM     11  N   UNL     1      -4.545  13.549  21.942  0.00  0.00    +0.000 N 
ATOM     12  C   UNL     1      -4.353  12.921  23.239  0.00  0.00    +0.000 C 
ATOM     13  C   UNL     1      -5.737  12.789  23.884  0.00  0.00    +0.000 C 
ATOM     14  C   UNL     1      -6.483  14.137  23.935  0.00  0.00    +0.000 C 
ATOM     15  C   UNL     1      -7.909  13.941  24.441  0.00  0.00    +0.000 C 
ATOM     16  C   UNL     1      -6.495  14.826  22.559  0.00  0.00    +0.000 C 
ATOM     17  C   UNL     1      -5.087  14.902  21.974  0.00  0.00    +0.000 C 
ENDBRANCH   3  11
BRANCH   8  18
ATOM     18  O   UNL     1      -2.362  10.478  15.232  0.00  0.00    +0.000 OA
ATOM     19  C   UNL     1      -3.180  10.066  14.144  0.00  0.00    +0.000 C 
ENDBRANCH   8  18
BRANCH   1  20
ATOM     20  C   UNL     1      -0.382  12.556  19.628  0.00  0.00    +0.000 C 
BRANCH  20  28
ATOM     21  C   UNL     1       2.109  14.586  18.553  0.00  0.00    +0.000 C 
ATOM     22  C   UNL     1       2.482  13.356  19.412  0.00  0.00    +0.000 C 
ATOM     23  N   UNL     1       1.756  13.374  20.708  0.00  0.00    +0.000 NA
ATOM     24  C   UNL     1       2.361  14.466  21.512  0.00  0.00    +0.000 C 
ATOM     25  C   UNL     1       2.307  15.811  20.769  0.00  0.00    +0.000 C 
ATOM     26  C   UNL     1       1.481  15.658  19.479  0.00  0.00    +0.000 C 
ATOM     27  C   UNL     1       0.108  15.104  19.903  0.00  0.00    +0.000 C 
ATOM     28  C   UNL     1       0.293  13.685  20.483  0.00  0.00    +0.000 C 
BRANCH  21  30
ATOM     29  C   UNL     1       3.091  16.549  17.298  0.00  0.00    +0.000 C 
ATOM     30  C   UNL     1       3.288  15.095  17.715  0.00  0.00    +0.000 C 
ENDBRANCH  21  30
ENDBRANCH  20  28
BRANCH  20  31
ATOM     31  O   UNL     1       0.009  11.288  20.194  0.00  0.00    +0.000 OA
ATOM     32  H   UNL     1      -0.334  10.620  19.567  0.00  0.00    +0.000 HD
ENDBRANCH  20  31
ENDBRANCH   1  20
TORSDOF 6
ENDMDL
MODEL 8
REMARK VINA RESULT:      -6.7      5.811      9.530
REMARK  Name = 
REMARK  9 active torsions:
REMARK  status: ('A' for Active; 'I' for Inactive)
REMARK    1  A    between atoms: C_1  and  C_2
REMARK    2  A    between atoms: C_2  and  C_3
REMARK    3  A    between atoms: C_10  and  C_11
REMARK    4  A    between atoms: C_11  and  O_12
REMARK    5  A    between atoms: C_11  and  C_13
REMARK    6  A    between atoms: C_15  and  N_16
REMARK    7  A    between atoms: C_19  and  C_20
REMARK    8  A    between atoms: C_27  and  O_28
REMARK    9  A    between atoms: O_28  and  C_29
REMARK                            x       y       z     vdW  Elec       q    Type
REMARK                         _______ _______ _______ _____ _____    ______ ____
ROOT
ATOM      1  C   UNL     1      -3.027  12.472  20.452  0.00  0.00    +0.000 A 
ATOM      2  C   UNL     1      -3.803  13.290  21.276  0.00  0.00    +0.000 A 
ATOM      3  C   UNL     1      -5.103  13.629  20.944  0.00  0.00    +0.000 A 
ATOM      4  N   UNL     1      -5.624  13.227  19.769  0.00  0.00    +0.000 NA
ATOM      5  C   UNL     1      -4.893  12.465  18.938  0.00  0.00    +0.000 A 
ATOM      6  C   UNL     1      -5.490  12.051  17.751  0.00  0.00    +0.000 A 
ATOM      7  C   UNL     1      -4.817  11.270  16.806  0.00  0.00    +0.000 A 
ATOM      8  C   UNL     1      -3.509  10.883  17.046  0.00  0.00    +0.000 A 
ATOM      9  C   UNL     1      -2.897  11.269  18.248  0.00  0.00    +0.000 A 
ATOM     10  C   UNL     1      -3.572  12.056  19.214  0.00  0.00    +0.000 A 
ENDROOT
BRANCH   3  11
ATOM     11  N   UNL     1      -5.851  14.417  21.789  0.00  0.00    +0.000 N 
ATOM     12  C   UNL     1      -7.000  15.148  21.281  0.00  0.00    +0.000 C 
ATOM     13  C   UNL     1      -6.898  16.579  21.821  0.00  0.00    +0.000 C 
ATOM     14  C   UNL     1      -6.753  16.610  23.355  0.00  0.00    +0.000 C 
ATOM     15  C   UNL     1      -6.501  18.035  23.840  0.00  0.00    +0.000 C 
ATOM     16  C   UNL     1      -5.626  15.677  23.832  0.00  0.00    +0.000 C 
ATOM     17  C   UNL     1      -5.786  14.279  23.239  0.00  0.00    +0.000 C 
ENDBRANCH   3  11
BRANCH   8  18
ATOM     18  O   UNL     1      -2.721  10.141  16.209  0.00  0.00    +0.000 OA
ATOM     19  C   UNL     1      -2.996  10.235  14.817  0.00  0.00    +0.000 C 
ENDBRANCH   8  18
BRANCH   1  20
ATOM     20  C   UNL     1      -1.680  12.043  20.990  0.00  0.00    +0.000 C 
BRANCH  20  28
ATOM     21  C   UNL     1       0.906  11.420  18.891  0.00  0.00    +0.000 C 
ATOM     22  C   UNL     1       1.112  11.175  20.403  0.00  0.00    +0.000 C 
ATOM     23  N   UNL     1       0.818  12.404  21.184  0.00  0.00    +0.000 NA
ATOM     24  C   UNL     1       1.926  13.352  20.906  0.00  0.00    +0.000 C 
ATOM     25  C   UNL     1       2.078  13.615  19.397  0.00  0.00    +0.000 C 
ATOM     26  C   UNL     1       0.919  12.947  18.636  0.00  0.00    +0.000 C 
ATOM     27  C   UNL     1      -0.382  13.495  19.254  0.00  0.00    +0.000 C 
ATOM     28  C   UNL     1      -0.483  13.020  20.720  0.00  0.00    +0.000 C 
BRANCH  21  30
ATOM     29  C   UNL     1       1.569   9.143  18.013  0.00  0.00    +0.000 C 
ATOM     30  C   UNL     1       1.900  10.632  18.030  0.00  0.00    +0.000 C 
ENDBRANCH  21  30
ENDBRANCH  20  28
BRANCH  20  31
ATOM     31  O   UNL     1      -1.827  11.920  22.420  0.00  0.00    +0.000 OA
ATOM     32  H   UNL     1      -1.744  12.834  22.758  0.00  0.00    +0.000 HD
ENDBRANCH  20  31
ENDBRANCH   1  20
TORSDOF 6
ENDMDL
MODEL 9
REMARK VINA RESULT:      -6.7      7.906      9.964
REMARK  Name = 
REMARK  9 active torsions:
REMARK  status: ('A' for Active; 'I' for Inactive)
REMARK    1  A    between atoms: C_1  and  C_2
REMARK    2  A    between atoms: C_2  and  C_3
REMARK    3  A    between atoms: C_10  and  C_11
REMARK    4  A    between atoms: C_11  and  O_12
REMARK    5  A    between atoms: C_11  and  C_13
REMARK    6  A    between atoms: C_15  and  N_16
REMARK    7  A    between atoms: C_19  and  C_20
REMARK    8  A    between atoms: C_27  and  O_28
REMARK    9  A    between atoms: O_28  and  C_29
REMARK                            x       y       z     vdW  Elec       q    Type
REMARK                         _______ _______ _______ _____ _____    ______ ____
ROOT
ATOM      1  C   UNL     1      -0.706  14.187  20.017  0.00  0.00    +0.000 A 
ATOM      2  C   UNL     1      -1.225  13.250  19.119  0.00  0.00    +0.000 A 
ATOM      3  C   UNL     1      -2.153  12.303  19.515  0.00  0.00    +0.000 A 
ATOM      4  N   UNL     1      -2.523  12.224  20.808  0.00  0.00    +0.000 NA
ATOM      5  C   UNL     1      -2.019  13.089  21.704  0.00  0.00    +0.000 A 
ATOM      6  C   UNL     1      -2.458  12.983  23.020  0.00  0.00    +0.000 A 
ATOM      7  C   UNL     1      -1.988  13.820  24.037  0.00  0.00    +0.000 A 
ATOM      8  C   UNL     1      -1.053  14.798  23.740  0.00  0.00    +0.000 A 
ATOM      9  C   UNL     1      -0.615  14.938  22.415  0.00  0.00    +0.000 A 
ATOM     10  C   UNL     1      -1.089  14.098  21.376  0.00  0.00    +0.000 A 
ENDROOT
BRANCH   3  11
ATOM     11  N   UNL     1      -2.664  11.410  18.602  0.00  0.00    +0.000 N 
ATOM     12  C   UNL     1      -1.966  10.165  18.327  0.00  0.00    +0.000 C 
ATOM     13  C   UNL     1      -1.911  10.006  16.804  0.00  0.00    +0.000 C 
ATOM     14  C   UNL     1      -3.310  10.104  16.162  0.00  0.00    +0.000 C 
ATOM     15  C   UNL     1      -3.201  10.095  14.640  0.00  0.00    +0.000 C 
ATOM     16  C   UNL     1      -4.058  11.363  16.636  0.00  0.00    +0.000 C 
ATOM     17  C   UNL     1      -4.052  11.462  18.159  0.00  0.00    +0.000 C 
ENDBRANCH   3  11
BRANCH   8  18
ATOM     18  O   UNL     1      -0.489  15.671  24.630  0.00  0.00    +0.000 OA
ATOM     19  C   UNL     1      -1.067  15.728  25.928  0.00  0.00    +0.000 C 
ENDBRANCH   8  18
BRANCH   1  20
ATOM     20  C   UNL     1       0.181  15.267  19.438  0.00  0.00    +0.000 C 
BRANCH  20  28
ATOM     21  C   UNL     1       3.289  15.992  20.576  0.00  0.00    +0.000 C 
ATOM     22  C   UNL     1       2.717  16.835  19.414  0.00  0.00    +0.000 C 
ATOM     23  N   UNL     1       2.318  15.968  18.276  0.00  0.00    +0.000 NA
ATOM     24  C   UNL     1       3.576  15.474  17.664  0.00  0.00    +0.000 C 
ATOM     25  C   UNL     1       4.460  14.751  18.695  0.00  0.00    +0.000 C 
ATOM     26  C   UNL     1       3.693  14.604  20.021  0.00  0.00    +0.000 C 
ATOM     27  C   UNL     1       2.376  13.878  19.685  0.00  0.00    +0.000 C 
ATOM     28  C   UNL     1       1.518  14.785  18.775  0.00  0.00    +0.000 C 
BRANCH  21  30
ATOM     29  C   UNL     1       4.021  17.003  22.774  0.00  0.00    +0.000 C 
ATOM     30  C   UNL     1       4.412  16.716  21.328  0.00  0.00    +0.000 C 
ENDBRANCH  21  30
ENDBRANCH  20  28
BRANCH  20  31
ATOM     31  O   UNL     1      -0.593  15.935  18.421  0.00  0.00    +0.000 OA
ATOM     32  H   UNL     1      -0.395  16.886  18.542  0.00  0.00    +0.000 HD
ENDBRANCH  20  31
ENDBRANCH   1  20
TORSDOF 6
ENDMDL
