MODEL 1
REMARK VINA RESULT:      -8.3      0.000      0.000
REMARK  Name = 
REMARK  7 active torsions:
REMARK  status: ('A' for Active; 'I' for Inactive)
REMARK    1  A    between atoms: C_1  and  N_2
REMARK    2  A    between atoms: C_3  and  C_5
REMARK    3  A    between atoms: C_9  and  N_10
REMARK    4  A    between atoms: N_19  and  C_20
REMARK    5  A    between atoms: C_20  and  C_21
REMARK    6  A    between atoms: C_26  and  O_27
REMARK    7  A    between atoms: O_27  and  C_28
REMARK                            x       y       z     vdW  Elec       q    Type
REMARK                         _______ _______ _______ _____ _____    ______ ____
ROOT
ATOM      1  N   UNL     1      -0.240  12.393  22.255  0.00  0.00    +0.000 N 
ATOM      2  C   UNL     1      -0.192  11.958  20.927  0.00  0.00    +0.000 A 
ATOM      3  N   UNL     1      -0.841  12.581  19.955  0.00  0.00    +0.000 NA
ATOM      4  C   UNL     1      -0.717  12.018  18.762  0.00  0.00    +0.000 A 
ATOM      5  N   UNL     1      -0.031  10.915  18.479  0.00  0.00    +0.000 NA
ATOM      6  C   UNL     1       0.549  10.322  19.518  0.00  0.00    +0.000 A 
ATOM      7  N   UNL     1       1.137   9.089  19.346  0.00  0.00    +0.000 N 
ATOM      8  C   UNL     1       1.766   8.438  20.490  0.00  0.00    +0.000 C 
ATOM      9  C   UNL     1       1.663   6.905  20.305  0.00  0.00    +0.000 C 
ATOM     10  N   UNL     1       2.286   6.364  19.071  0.00  0.00    +0.000 NA
ATOM     11  C   UNL     1       1.862   7.183  17.906  0.00  0.00    +0.000 C 
ATOM     12  C   UNL     1       1.724   8.731  18.051  0.00  0.00    +0.000 C 
ATOM     13  N   UNL     1       0.516  10.845  20.746  0.00  0.00    +0.000 NA
ATOM     14  H   UNL     1       0.269  11.716  22.808  0.00  0.00    +0.000 HD
ENDROOT
BRANCH   1  19
ATOM     15  C   UNL     1      -3.431  13.361  23.956  0.00  0.00    +0.000 A 
ATOM     16  C   UNL     1      -3.106  14.651  24.381  0.00  0.00    +0.000 A 
ATOM     17  C   UNL     1      -1.855  15.180  24.089  0.00  0.00    +0.000 A 
ATOM     18  C   UNL     1      -0.926  14.420  23.377  0.00  0.00    +0.000 A 
ATOM     19  C   UNL     1      -1.223  13.115  22.951  0.00  0.00    +0.000 A 
ATOM     20  C   UNL     1      -2.498  12.607  23.231  0.00  0.00    +0.000 A 
BRANCH  15  23
ATOM     21  C   UNL     1      -7.199  13.071  23.941  0.00  0.00    +0.000 C 
ATOM     22  N   UNL     1      -5.847  13.482  23.673  0.00  0.00    +0.000 N 
ATOM     23  C   UNL     1      -4.785  12.831  24.265  0.00  0.00    +0.000 C 
ATOM     24  O   UNL     1      -4.912  11.852  24.992  0.00  0.00    +0.000 OA
ATOM     25  H   UNL     1      -5.682  14.209  22.989  0.00  0.00    +0.000 HD
ENDBRANCH  15  23
ENDBRANCH   1  19
BRANCH  10  26
ATOM     26  C   UNL     1       3.737   6.192  19.268  0.00  0.00    +0.000 C 
BRANCH  26  27
ATOM     27  C   UNL     1       4.539   5.636  18.099  0.00  0.00    +0.000 A 
ATOM     28  C   UNL     1       5.242   6.486  17.229  0.00  0.00    +0.000 A 
ATOM     29  C   UNL     1       6.006   5.964  16.181  0.00  0.00    +0.000 A 
ATOM     30  C   UNL     1       6.100   4.586  16.010  0.00  0.00    +0.000 A 
ATOM     31  C   UNL     1       5.347   3.732  16.816  0.00  0.00    +0.000 A 
ATOM     32  C   UNL     1       4.512   4.253  17.812  0.00  0.00    +0.000 A 
BRANCH  32  33
ATOM     33  O   UNL     1       3.604   3.522  18.528  0.00  0.00    +0.000 OA
BRANCH  33  34
ATOM     34  C   UNL     1       2.447   3.035  17.874  0.00  0.00    +0.000 C 
ATOM     35  F   UNL     1       1.395   3.039  18.720  0.00  0.00    +0.000 F 
ATOM     36  F   UNL     1       2.162   3.861  16.842  0.00  0.00    +0.000 F 
ATOM     37  F   UNL     1       2.629   1.795  17.376  0.00  0.00    +0.000 F 
ENDBRANCH  33  34
ENDBRANCH  32  33
ENDBRANCH  26  27
ENDBRANCH  10  26
TORSDOF 6
ENDMDL
MODEL 2
REMARK VINA RESULT:      -8.0      1.577      2.229
REMARK  Name = 
REMARK  7 active torsions:
REMARK  status: ('A' for Active; 'I' for Inactive)
REMARK    1  A    between atoms: C_1  and  N_2
REMARK    2  A    between atoms: C_3  and  C_5
REMARK    3  A    between atoms: C_9  and  N_10
REMARK    4  A    between atoms: N_19  and  C_20
REMARK    5  A    between atoms: C_20  and  C_21
REMARK    6  A    between atoms: C_26  and  O_27
REMARK    7  A    between atoms: O_27  and  C_28
REMARK                            x       y       z     vdW  Elec       q    Type
REMARK                         _______ _______ _______ _____ _____    ______ ____
ROOT
ATOM      1  N   UNL     1      -0.311  11.885  22.401  0.00  0.00    +0.000 N 
ATOM      2  C   UNL     1      -0.112  11.575  21.052  0.00  0.00    +0.000 A 
ATOM      3  N   UNL     1      -0.632  12.303  20.076  0.00  0.00    +0.000 NA
ATOM      4  C   UNL     1      -0.375  11.852  18.857  0.00  0.00    +0.000 A 
ATOM      5  N   UNL     1       0.324  10.763  18.551  0.00  0.00    +0.000 NA
ATOM      6  C   UNL     1       0.767  10.060  19.588  0.00  0.00    +0.000 A 
ATOM      7  N   UNL     1       1.354   8.834  19.368  0.00  0.00    +0.000 N 
ATOM      8  C   UNL     1       1.833   8.062  20.510  0.00  0.00    +0.000 C 
ATOM      9  C   UNL     1       1.730   6.556  20.167  0.00  0.00    +0.000 C 
ATOM     10  N   UNL     1       2.487   6.118  18.968  0.00  0.00    +0.000 NA
ATOM     11  C   UNL     1       2.217   7.053  17.846  0.00  0.00    +0.000 C 
ATOM     12  C   UNL     1       2.084   8.585  18.122  0.00  0.00    +0.000 C 
ATOM     13  N   UNL     1       0.596  10.466  20.848  0.00  0.00    +0.000 NA
ATOM     14  H   UNL     1       0.119  11.145  22.942  0.00  0.00    +0.000 HD
ENDROOT
BRANCH   1  19
ATOM     15  C   UNL     1      -2.329  14.501  24.161  0.00  0.00    +0.000 A 
ATOM     16  C   UNL     1      -3.547  13.830  24.292  0.00  0.00    +0.000 A 
ATOM     17  C   UNL     1      -3.676  12.532  23.813  0.00  0.00    +0.000 A 
ATOM     18  C   UNL     1      -2.591  11.905  23.201  0.00  0.00    +0.000 A 
ATOM     19  C   UNL     1      -1.360  12.563  23.044  0.00  0.00    +0.000 A 
ATOM     20  C   UNL     1      -1.240  13.860  23.555  0.00  0.00    +0.000 A 
BRANCH  15  23
ATOM     21  C   UNL     1      -2.807  18.240  24.430  0.00  0.00    +0.000 C 
ATOM     22  N   UNL     1      -2.887  16.866  24.010  0.00  0.00    +0.000 N 
ATOM     23  C   UNL     1      -2.216  15.881  24.702  0.00  0.00    +0.000 C 
ATOM     24  O   UNL     1      -1.572  16.091  25.724  0.00  0.00    +0.000 OA
ATOM     25  H   UNL     1      -3.500  16.624  23.242  0.00  0.00    +0.000 HD
ENDBRANCH  15  23
ENDBRANCH   1  19
BRANCH  10  26
ATOM     26  C   UNL     1       3.901   5.891  19.317  0.00  0.00    +0.000 C 
BRANCH  26  27
ATOM     27  C   UNL     1       4.842   5.490  18.188  0.00  0.00    +0.000 A 
ATOM     28  C   UNL     1       5.851   6.358  17.738  0.00  0.00    +0.000 A 
ATOM     29  C   UNL     1       6.734   5.967  16.727  0.00  0.00    +0.000 A 
ATOM     30  C   UNL     1       6.636   4.694  16.175  0.00  0.00    +0.000 A 
ATOM     31  C   UNL     1       5.593   3.849  16.555  0.00  0.00    +0.000 A 
ATOM     32  C   UNL     1       4.654   4.268  17.505  0.00  0.00    +0.000 A 
BRANCH  32  33
ATOM     33  O   UNL     1       3.502   3.596  17.810  0.00  0.00    +0.000 OA
BRANCH  33  34
ATOM     34  C   UNL     1       3.584   2.396  18.555  0.00  0.00    +0.000 C 
ATOM     35  F   UNL     1       3.808   1.350  17.734  0.00  0.00    +0.000 F 
ATOM     36  F   UNL     1       4.628   2.496  19.408  0.00  0.00    +0.000 F 
ATOM     37  F   UNL     1       2.472   2.174  19.286  0.00  0.00    +0.000 F 
ENDBRANCH  33  34
ENDBRANCH  32  33
ENDBRANCH  26  27
ENDBRANCH  10  26
TORSDOF 6
ENDMDL
MODEL 3
REMARK VINA RESULT:      -7.7      4.037     11.466
REMARK  Name = 
REMARK  7 active torsions:
REMARK  status: ('A' for Active; 'I' for Inactive)
REMARK    1  A    between atoms: C_1  and  N_2
REMARK    2  A    between atoms: C_3  and  C_5
REMARK    3  A    between atoms: C_9  and  N_10
REMARK    4  A    between atoms: N_19  and  C_20
REMARK    5  A    between atoms: C_20  and  C_21
REMARK    6  A    between atoms: C_26  and  O_27
REMARK    7  A    between atoms: O_27  and  C_28
REMARK                            x       y       z     vdW  Elec       q    Type
REMARK                         _______ _______ _______ _____ _____    ______ ____
ROOT
ATOM      1  N   UNL     1       1.871   7.408  18.948  0.00  0.00    +0.000 N 
ATOM      2  C   UNL     1       1.720   8.792  18.817  0.00  0.00    +0.000 A 
ATOM      3  N   UNL     1       2.403   9.496  17.927  0.00  0.00    +0.000 NA
ATOM      4  C   UNL     1       2.166  10.799  17.959  0.00  0.00    +0.000 A 
ATOM      5  N   UNL     1       1.340  11.430  18.788  0.00  0.00    +0.000 NA
ATOM      6  C   UNL     1       0.732  10.658  19.683  0.00  0.00    +0.000 A 
ATOM      7  N   UNL     1      -0.009  11.245  20.685  0.00  0.00    +0.000 N 
ATOM      8  C   UNL     1      -0.669  10.395  21.670  0.00  0.00    +0.000 C 
ATOM      9  C   UNL     1      -0.760  11.168  23.008  0.00  0.00    +0.000 C 
ATOM     10  N   UNL     1      -1.491  12.459  22.954  0.00  0.00    +0.000 NA
ATOM     11  C   UNL     1      -1.015  13.246  21.788  0.00  0.00    +0.000 C 
ATOM     12  C   UNL     1      -0.683  12.524  20.443  0.00  0.00    +0.000 C 
ATOM     13  N   UNL     1       0.875   9.331  19.693  0.00  0.00    +0.000 NA
ATOM     14  H   UNL     1       1.305   7.121  19.736  0.00  0.00    +0.000 HD
ENDROOT
BRANCH   1  19
ATOM     15  C   UNL     1       4.685   5.682  17.181  0.00  0.00    +0.000 A 
ATOM     16  C   UNL     1       5.162   4.866  18.209  0.00  0.00    +0.000 A 
ATOM     17  C   UNL     1       4.544   4.889  19.453  0.00  0.00    +0.000 A 
ATOM     18  C   UNL     1       3.451   5.730  19.672  0.00  0.00    +0.000 A 
ATOM     19  C   UNL     1       2.961   6.571  18.659  0.00  0.00    +0.000 A 
ATOM     20  C   UNL     1       3.580   6.515  17.405  0.00  0.00    +0.000 A 
BRANCH  15  23
ATOM     21  C   UNL     1       6.428   4.206  14.170  0.00  0.00    +0.000 C 
ATOM     22  N   UNL     1       5.737   4.368  15.422  0.00  0.00    +0.000 N 
ATOM     23  C   UNL     1       5.354   5.620  15.855  0.00  0.00    +0.000 C 
ATOM     24  O   UNL     1       5.518   6.642  15.199  0.00  0.00    +0.000 OA
ATOM     25  H   UNL     1       5.473   3.544  15.945  0.00  0.00    +0.000 HD
ENDBRANCH  15  23
ENDBRANCH   1  19
BRANCH  10  26
ATOM     26  C   UNL     1      -2.944  12.224  23.048  0.00  0.00    +0.000 C 
BRANCH  26  27
ATOM     27  C   UNL     1      -3.823  13.419  23.389  0.00  0.00    +0.000 A 
ATOM     28  C   UNL     1      -3.363  14.446  24.231  0.00  0.00    +0.000 A 
ATOM     29  C   UNL     1      -4.163  15.557  24.508  0.00  0.00    +0.000 A 
ATOM     30  C   UNL     1      -5.421  15.670  23.924  0.00  0.00    +0.000 A 
ATOM     31  C   UNL     1      -5.924  14.625  23.149  0.00  0.00    +0.000 A 
ATOM     32  C   UNL     1      -5.161  13.470  22.938  0.00  0.00    +0.000 A 
BRANCH  32  33
ATOM     33  O   UNL     1      -5.627  12.324  22.353  0.00  0.00    +0.000 OA
BRANCH  33  34
ATOM     34  C   UNL     1      -5.973  12.346  20.981  0.00  0.00    +0.000 C 
ATOM     35  F   UNL     1      -6.292  11.105  20.559  0.00  0.00    +0.000 F 
ATOM     36  F   UNL     1      -7.059  13.137  20.829  0.00  0.00    +0.000 F 
ATOM     37  F   UNL     1      -4.983  12.849  20.215  0.00  0.00    +0.000 F 
ENDBRANCH  33  34
ENDBRANCH  32  33
ENDBRANCH  26  27
ENDBRANCH  10  26
TORSDOF 6
ENDMDL
MODEL 4
REMARK VINA RESULT:      -7.7      4.263     11.619
REMARK  Name = 
REMARK  7 active torsions:
REMARK  status: ('A' for Active; 'I' for Inactive)
REMARK    1  A    between atoms: C_1  and  N_2
REMARK    2  A    between atoms: C_3  and  C_5
REMARK    3  A    between atoms: C_9  and  N_10
REMARK    4  A    between atoms: N_19  and  C_20
REMARK    5  A    between atoms: C_20  and  C_21
REMARK    6  A    between atoms: C_26  and  O_27
REMARK    7  A    between atoms: O_27  and  C_28
REMARK                            x       y       z     vdW  Elec       q    Type
REMARK                         _______ _______ _______ _____ _____    ______ ____
ROOT
ATOM      1  N   UNL     1       1.418   8.593  18.354  0.00  0.00    +0.000 N 
ATOM      2  C   UNL     1       1.525   9.987  18.324  0.00  0.00    +0.000 A 
ATOM      3  N   UNL     1       2.570  10.604  17.793  0.00  0.00    +0.000 NA
ATOM      4  C   UNL     1       2.528  11.926  17.879  0.00  0.00    +0.000 A 
ATOM      5  N   UNL     1       1.567  12.650  18.444  0.00  0.00    +0.000 NA
ATOM      6  C   UNL     1       0.580  11.953  18.998  0.00  0.00    +0.000 A 
ATOM      7  N   UNL     1      -0.369  12.611  19.748  0.00  0.00    +0.000 N 
ATOM      8  C   UNL     1      -1.447  11.842  20.360  0.00  0.00    +0.000 C 
ATOM      9  C   UNL     1      -1.885  12.555  21.663  0.00  0.00    +0.000 C 
ATOM     10  N   UNL     1      -2.355  13.954  21.502  0.00  0.00    +0.000 NA
ATOM     11  C   UNL     1      -1.394  14.701  20.651  0.00  0.00    +0.000 C 
ATOM     12  C   UNL     1      -0.723  13.997  19.428  0.00  0.00    +0.000 C 
ATOM     13  N   UNL     1       0.516  10.622  18.917  0.00  0.00    +0.000 NA
ATOM     14  H   UNL     1       0.577   8.371  18.871  0.00  0.00    +0.000 HD
ENDROOT
BRANCH   1  19
ATOM     15  C   UNL     1       4.272   6.380  17.370  0.00  0.00    +0.000 A 
ATOM     16  C   UNL     1       4.367   5.575  18.508  0.00  0.00    +0.000 A 
ATOM     17  C   UNL     1       3.486   5.766  19.565  0.00  0.00    +0.000 A 
ATOM     18  C   UNL     1       2.512   6.763  19.489  0.00  0.00    +0.000 A 
ATOM     19  C   UNL     1       2.406   7.595  18.362  0.00  0.00    +0.000 A 
ATOM     20  C   UNL     1       3.285   7.371  17.296  0.00  0.00    +0.000 A 
BRANCH  15  23
ATOM     21  C   UNL     1       7.070   4.791  15.388  0.00  0.00    +0.000 C 
ATOM     22  N   UNL     1       6.091   5.083  16.401  0.00  0.00    +0.000 N 
ATOM     23  C   UNL     1       5.216   6.137  16.247  0.00  0.00    +0.000 C 
ATOM     24  O   UNL     1       5.173   6.840  15.244  0.00  0.00    +0.000 OA
ATOM     25  H   UNL     1       6.007   4.461  17.194  0.00  0.00    +0.000 HD
ENDBRANCH  15  23
ENDBRANCH   1  19
BRANCH  10  26
ATOM     26  C   UNL     1      -3.767  13.968  21.078  0.00  0.00    +0.000 C 
BRANCH  26  27
ATOM     27  C   UNL     1      -4.750  14.735  21.953  0.00  0.00    +0.000 A 
ATOM     28  C   UNL     1      -4.916  16.124  21.817  0.00  0.00    +0.000 A 
ATOM     29  C   UNL     1      -5.847  16.813  22.598  0.00  0.00    +0.000 A 
ATOM     30  C   UNL     1      -6.644  16.117  23.503  0.00  0.00    +0.000 A 
ATOM     31  C   UNL     1      -6.439  14.753  23.706  0.00  0.00    +0.000 A 
ATOM     32  C   UNL     1      -5.447  14.073  22.988  0.00  0.00    +0.000 A 
BRANCH  32  33
ATOM     33  O   UNL     1      -5.045  12.789  23.238  0.00  0.00    +0.000 OA
BRANCH  33  34
ATOM     34  C   UNL     1      -4.277  12.525  24.397  0.00  0.00    +0.000 C 
ATOM     35  F   UNL     1      -5.071  12.078  25.393  0.00  0.00    +0.000 F 
ATOM     36  F   UNL     1      -3.383  11.554  24.102  0.00  0.00    +0.000 F 
ATOM     37  F   UNL     1      -3.591  13.610  24.812  0.00  0.00    +0.000 F 
ENDBRANCH  33  34
ENDBRANCH  32  33
ENDBRANCH  26  27
ENDBRANCH  10  26
TORSDOF 6
ENDMDL
MODEL 5
REMARK VINA RESULT:      -7.7      1.364      1.629
REMARK  Name = 
REMARK  7 active torsions:
REMARK  status: ('A' for Active; 'I' for Inactive)
REMARK    1  A    between atoms: C_1  and  N_2
REMARK    2  A    between atoms: C_3  and  C_5
REMARK    3  A    between atoms: C_9  and  N_10
REMARK    4  A    between atoms: N_19  and  C_20
REMARK    5  A    between atoms: C_20  and  C_21
REMARK    6  A    between atoms: C_26  and  O_27
REMARK    7  A    between atoms: O_27  and  C_28
REMARK                            x       y       z     vdW  Elec       q    Type
REMARK                         _______ _______ _______ _____ _____    ______ ____
ROOT
ATOM      1  N   UNL     1      -0.576  13.092  22.806  0.00  0.00    +0.000 N 
ATOM      2  C   UNL     1      -0.292  12.967  21.442  0.00  0.00    +0.000 A 
ATOM      3  N   UNL     1      -0.631  13.896  20.561  0.00  0.00    +0.000 NA
ATOM      4  C   UNL     1      -0.318  13.604  19.307  0.00  0.00    +0.000 A 
ATOM      5  N   UNL     1       0.273  12.492  18.881  0.00  0.00    +0.000 NA
ATOM      6  C   UNL     1       0.534  11.589  19.821  0.00  0.00    +0.000 A 
ATOM      7  N   UNL     1       0.992  10.345  19.448  0.00  0.00    +0.000 N 
ATOM      8  C   UNL     1       1.270   9.354  20.483  0.00  0.00    +0.000 C 
ATOM      9  C   UNL     1       1.024   7.943  19.895  0.00  0.00    +0.000 C 
ATOM     10  N   UNL     1       1.831   7.596  18.698  0.00  0.00    +0.000 NA
ATOM     11  C   UNL     1       1.776   8.717  17.725  0.00  0.00    +0.000 C 
ATOM     12  C   UNL     1       1.799  10.193  18.235  0.00  0.00    +0.000 C 
ATOM     13  N   UNL     1       0.298  11.819  21.114  0.00  0.00    +0.000 NA
ATOM     14  H   UNL     1      -0.286  12.230  23.250  0.00  0.00    +0.000 HD
ENDROOT
BRANCH   1  19
ATOM     15  C   UNL     1      -3.929  14.262  23.991  0.00  0.00    +0.000 A 
ATOM     16  C   UNL     1      -3.542  15.259  24.889  0.00  0.00    +0.000 A 
ATOM     17  C   UNL     1      -2.193  15.535  25.078  0.00  0.00    +0.000 A 
ATOM     18  C   UNL     1      -1.230  14.813  24.371  0.00  0.00    +0.000 A 
ATOM     19  C   UNL     1      -1.592  13.796  23.472  0.00  0.00    +0.000 A 
ATOM     20  C   UNL     1      -2.956  13.550  23.276  0.00  0.00    +0.000 A 
BRANCH  15  23
ATOM     21  C   UNL     1      -7.166  12.336  23.691  0.00  0.00    +0.000 C 
ATOM     22  N   UNL     1      -5.788  12.693  23.903  0.00  0.00    +0.000 N 
ATOM     23  C   UNL     1      -5.380  14.006  23.796  0.00  0.00    +0.000 C 
ATOM     24  O   UNL     1      -6.146  14.937  23.577  0.00  0.00    +0.000 OA
ATOM     25  H   UNL     1      -5.138  11.979  24.201  0.00  0.00    +0.000 HD
ENDBRANCH  15  23
ENDBRANCH   1  19
BRANCH  10  26
ATOM     26  C   UNL     1       3.172   7.137  19.107  0.00  0.00    +0.000 C 
BRANCH  26  27
ATOM     27  C   UNL     1       3.820   6.044  18.268  0.00  0.00    +0.000 A 
ATOM     28  C   UNL     1       4.449   6.339  17.047  0.00  0.00    +0.000 A 
ATOM     29  C   UNL     1       5.074   5.335  16.303  0.00  0.00    +0.000 A 
ATOM     30  C   UNL     1       5.103   4.029  16.785  0.00  0.00    +0.000 A 
ATOM     31  C   UNL     1       4.417   3.704  17.955  0.00  0.00    +0.000 A 
ATOM     32  C   UNL     1       3.715   4.690  18.660  0.00  0.00    +0.000 A 
BRANCH  32  33
ATOM     33  O   UNL     1       2.869   4.446  19.707  0.00  0.00    +0.000 OA
BRANCH  33  34
ATOM     34  C   UNL     1       1.576   3.937  19.439  0.00  0.00    +0.000 C 
ATOM     35  F   UNL     1       1.201   4.250  18.182  0.00  0.00    +0.000 F 
ATOM     36  F   UNL     1       1.620   2.589  19.544  0.00  0.00    +0.000 F 
ATOM     37  F   UNL     1       0.658   4.391  20.317  0.00  0.00    +0.000 F 
ENDBRANCH  33  34
ENDBRANCH  32  33
ENDBRANCH  26  27
ENDBRANCH  10  26
TORSDOF 6
ENDMDL
MODEL 6
REMARK VINA RESULT:      -7.7      4.851     10.560
REMARK  Name = 
REMARK  7 active torsions:
REMARK  status: ('A' for Active; 'I' for Inactive)
REMARK    1  A    between atoms: C_1  and  N_2
REMARK    2  A    between atoms: C_3  and  C_5
REMARK    3  A    between atoms: C_9  and  N_10
REMARK    4  A    between atoms: N_19  and  C_20
REMARK    5  A    between atoms: C_20  and  C_21
REMARK    6  A    between atoms: C_26  and  O_27
REMARK    7  A    between atoms: O_27  and  C_28
REMARK                            x       y       z     vdW  Elec       q    Type
REMARK                         _______ _______ _______ _____ _____    ______ ____
ROOT
ATOM      1  N   UNL     1       2.054   8.163  20.537  0.00  0.00    +0.000 N 
ATOM      2  C   UNL     1       1.093   8.884  21.253  0.00  0.00    +0.000 A 
ATOM      3  N   UNL     1       0.345   8.325  22.192  0.00  0.00    +0.000 NA
ATOM      4  C   UNL     1      -0.538   9.141  22.748  0.00  0.00    +0.000 A 
ATOM      5  N   UNL     1      -0.733  10.420  22.440  0.00  0.00    +0.000 NA
ATOM      6  C   UNL     1       0.023  10.890  21.453  0.00  0.00    +0.000 A 
ATOM      7  N   UNL     1      -0.227  12.150  20.958  0.00  0.00    +0.000 N 
ATOM      8  C   UNL     1       0.601  12.660  19.869  0.00  0.00    +0.000 C 
ATOM      9  C   UNL     1      -0.249  13.634  19.017  0.00  0.00    +0.000 C 
ATOM     10  N   UNL     1      -0.815  14.797  19.745  0.00  0.00    +0.000 NA
ATOM     11  C   UNL     1      -1.444  14.329  21.007  0.00  0.00    +0.000 C 
ATOM     12  C   UNL     1      -0.774  13.188  21.836  0.00  0.00    +0.000 C 
ATOM     13  N   UNL     1       0.971  10.153  20.870  0.00  0.00    +0.000 NA
ATOM     14  H   UNL     1       2.432   8.787  19.836  0.00  0.00    +0.000 HD
ENDROOT
BRANCH   1  19
ATOM     15  C   UNL     1       3.216   4.859  19.213  0.00  0.00    +0.000 A 
ATOM     16  C   UNL     1       2.197   4.029  19.686  0.00  0.00    +0.000 A 
ATOM     17  C   UNL     1       1.146   4.571  20.416  0.00  0.00    +0.000 A 
ATOM     18  C   UNL     1       1.114   5.942  20.677  0.00  0.00    +0.000 A 
ATOM     19  C   UNL     1       2.133   6.796  20.225  0.00  0.00    +0.000 A 
ATOM     20  C   UNL     1       3.171   6.236  19.469  0.00  0.00    +0.000 A 
BRANCH  15  23
ATOM     21  C   UNL     1       5.320   3.963  16.205  0.00  0.00    +0.000 C 
ATOM     22  N   UNL     1       4.321   4.535  17.068  0.00  0.00    +0.000 N 
ATOM     23  C   UNL     1       4.315   4.253  18.417  0.00  0.00    +0.000 C 
ATOM     24  O   UNL     1       5.166   3.564  18.968  0.00  0.00    +0.000 OA
ATOM     25  H   UNL     1       3.666   5.203  16.683  0.00  0.00    +0.000 HD
ENDBRANCH  15  23
ENDBRANCH   1  19
BRANCH  10  26
ATOM     26  C   UNL     1       0.197  15.863  19.864  0.00  0.00    +0.000 C 
BRANCH  26  27
ATOM     27  C   UNL     1       0.431  16.742  18.643  0.00  0.00    +0.000 A 
ATOM     28  C   UNL     1      -0.643  17.327  17.950  0.00  0.00    +0.000 A 
ATOM     29  C   UNL     1      -0.416  18.163  16.854  0.00  0.00    +0.000 A 
ATOM     30  C   UNL     1       0.886  18.447  16.455  0.00  0.00    +0.000 A 
ATOM     31  C   UNL     1       1.960  17.814  17.081  0.00  0.00    +0.000 A 
ATOM     32  C   UNL     1       1.735  16.908  18.125  0.00  0.00    +0.000 A 
BRANCH  32  33
ATOM     33  O   UNL     1       2.693  16.104  18.679  0.00  0.00    +0.000 OA
BRANCH  33  34
ATOM     34  C   UNL     1       3.305  15.112  17.877  0.00  0.00    +0.000 C 
ATOM     35  F   UNL     1       2.415  14.148  17.564  0.00  0.00    +0.000 F 
ATOM     36  F   UNL     1       3.721  15.693  16.728  0.00  0.00    +0.000 F 
ATOM     37  F   UNL     1       4.381  14.564  18.477  0.00  0.00    +0.000 F 
ENDBRANCH  33  34
ENDBRANCH  32  33
ENDBRANCH  26  27
ENDBRANCH  10  26
TORSDOF 6
ENDMDL
MODEL 7
REMARK VINA RESULT:      -7.7      2.388      2.892
REMARK  Name = 
REMARK  7 active torsions:
REMARK  status: ('A' for Active; 'I' for Inactive)
REMARK    1  A    between atoms: C_1  and  N_2
REMARK    2  A    between atoms: C_3  and  C_5
REMARK    3  A    between atoms: C_9  and  N_10
REMARK    4  A    between atoms: N_19  and  C_20
REMARK    5  A    between atoms: C_20  and  C_21
REMARK    6  A    between atoms: C_26  and  O_27
REMARK    7  A    between atoms: O_27  and  C_28
REMARK                            x       y       z     vdW  Elec       q    Type
REMARK                         _______ _______ _______ _____ _____    ______ ____
ROOT
ATOM      1  N   UNL     1      -0.426  12.716  22.299  0.00  0.00    +0.000 N 
ATOM      2  C   UNL     1      -0.525  12.276  20.975  0.00  0.00    +0.000 A 
ATOM      3  N   UNL     1      -1.387  12.803  20.118  0.00  0.00    +0.000 NA
ATOM      4  C   UNL     1      -1.374  12.248  18.915  0.00  0.00    +0.000 A 
ATOM      5  N   UNL     1      -0.604  11.237  18.521  0.00  0.00    +0.000 NA
ATOM      6  C   UNL     1       0.196  10.734  19.455  0.00  0.00    +0.000 A 
ATOM      7  N   UNL     1       0.903   9.583  19.184  0.00  0.00    +0.000 N 
ATOM      8  C   UNL     1       1.775   9.029  20.215  0.00  0.00    +0.000 C 
ATOM      9  C   UNL     1       1.840   7.493  20.033  0.00  0.00    +0.000 C 
ATOM     10  N   UNL     1       2.333   7.023  18.714  0.00  0.00    +0.000 NA
ATOM     11  C   UNL     1       1.638   7.769  17.634  0.00  0.00    +0.000 C 
ATOM     12  C   UNL     1       1.328   9.290  17.813  0.00  0.00    +0.000 C 
ATOM     13  N   UNL     1       0.283  11.261  20.678  0.00  0.00    +0.000 NA
ATOM     14  H   UNL     1       0.243  12.114  22.762  0.00  0.00    +0.000 HD
ENDROOT
BRANCH   1  19
ATOM     15  C   UNL     1      -3.589  13.467  24.155  0.00  0.00    +0.000 A 
ATOM     16  C   UNL     1      -3.188  14.585  24.889  0.00  0.00    +0.000 A 
ATOM     17  C   UNL     1      -1.895  15.076  24.750  0.00  0.00    +0.000 A 
ATOM     18  C   UNL     1      -1.002  14.449  23.881  0.00  0.00    +0.000 A 
ATOM     19  C   UNL     1      -1.376  13.314  23.142  0.00  0.00    +0.000 A 
ATOM     20  C   UNL     1      -2.690  12.849  23.275  0.00  0.00    +0.000 A 
BRANCH  15  23
ATOM     21  C   UNL     1      -7.367  13.526  24.202  0.00  0.00    +0.000 C 
ATOM     22  N   UNL     1      -5.984  13.890  24.043  0.00  0.00    +0.000 N 
ATOM     23  C   UNL     1      -4.985  12.979  24.310  0.00  0.00    +0.000 C 
ATOM     24  O   UNL     1      -5.198  11.816  24.635  0.00  0.00    +0.000 OA
ATOM     25  H   UNL     1      -5.758  14.800  23.664  0.00  0.00    +0.000 HD
ENDBRANCH  15  23
ENDBRANCH   1  19
BRANCH  10  26
ATOM     26  C   UNL     1       3.807   7.038  18.689  0.00  0.00    +0.000 C 
BRANCH  26  27
ATOM     27  C   UNL     1       4.499   6.063  17.745  0.00  0.00    +0.000 A 
ATOM     28  C   UNL     1       4.031   4.747  17.587  0.00  0.00    +0.000 A 
ATOM     29  C   UNL     1       4.649   3.870  16.691  0.00  0.00    +0.000 A 
ATOM     30  C   UNL     1       5.723   4.308  15.922  0.00  0.00    +0.000 A 
ATOM     31  C   UNL     1       6.248   5.584  16.122  0.00  0.00    +0.000 A 
ATOM     32  C   UNL     1       5.687   6.437  17.080  0.00  0.00    +0.000 A 
BRANCH  32  33
ATOM     33  O   UNL     1       6.233   7.627  17.480  0.00  0.00    +0.000 OA
BRANCH  33  34
ATOM     34  C   UNL     1       7.626   7.697  17.717  0.00  0.00    +0.000 C 
ATOM     35  F   UNL     1       7.944   8.875  18.293  0.00  0.00    +0.000 F 
ATOM     36  F   UNL     1       7.962   6.705  18.573  0.00  0.00    +0.000 F 
ATOM     37  F   UNL     1       8.344   7.532  16.588  0.00  0.00    +0.000 F 
ENDBRANCH  33  34
ENDBRANCH  32  33
ENDBRANCH  26  27
ENDBRANCH  10  26
TORSDOF 6
ENDMDL
MODEL 8
REMARK VINA RESULT:      -7.6      4.027     11.304
REMARK  Name = 
REMARK  7 active torsions:
REMARK  status: ('A' for Active; 'I' for Inactive)
REMARK    1  A    between atoms: C_1  and  N_2
REMARK    2  A    between atoms: C_3  and  C_5
REMARK    3  A    between atoms: C_9  and  N_10
REMARK    4  A    between atoms: N_19  and  C_20
REMARK    5  A    between atoms: C_20  and  C_21
REMARK    6  A    between atoms: C_26  and  O_27
REMARK    7  A    between atoms: O_27  and  C_28
REMARK                            x       y       z     vdW  Elec       q    Type
REMARK                         _______ _______ _______ _____ _____    ______ ____
ROOT
ATOM      1  N   UNL     1       1.805   7.949  18.461  0.00  0.00    +0.000 N 
ATOM      2  C   UNL     1       1.697   9.342  18.525  0.00  0.00    +0.000 A 
ATOM      3  N   UNL     1       2.428  10.143  17.765  0.00  0.00    +0.000 NA
ATOM      4  C   UNL     1       2.226  11.435  17.976  0.00  0.00    +0.000 A 
ATOM      5  N   UNL     1       1.391  11.968  18.863  0.00  0.00    +0.000 NA
ATOM      6  C   UNL     1       0.734  11.097  19.621  0.00  0.00    +0.000 A 
ATOM      7  N   UNL     1      -0.023  11.559  20.675  0.00  0.00    +0.000 N 
ATOM      8  C   UNL     1      -0.737  10.599  21.510  0.00  0.00    +0.000 C 
ATOM      9  C   UNL     1      -0.851  11.177  22.941  0.00  0.00    +0.000 C 
ATOM     10  N   UNL     1      -1.543  12.485  23.053  0.00  0.00    +0.000 NA
ATOM     11  C   UNL     1      -1.008  13.414  22.025  0.00  0.00    +0.000 C 
ATOM     12  C   UNL     1      -0.653  12.880  20.600  0.00  0.00    +0.000 C 
ATOM     13  N   UNL     1       0.839   9.778  19.445  0.00  0.00    +0.000 NA
ATOM     14  H   UNL     1       1.206   7.571  19.183  0.00  0.00    +0.000 HD
ENDROOT
BRANCH   1  19
ATOM     15  C   UNL     1       4.133   5.035  18.133  0.00  0.00    +0.000 A 
ATOM     16  C   UNL     1       5.068   5.563  17.240  0.00  0.00    +0.000 A 
ATOM     17  C   UNL     1       4.923   6.864  16.775  0.00  0.00    +0.000 A 
ATOM     18  C   UNL     1       3.842   7.639  17.200  0.00  0.00    +0.000 A 
ATOM     19  C   UNL     1       2.880   7.127  18.086  0.00  0.00    +0.000 A 
ATOM     20  C   UNL     1       3.057   5.823  18.564  0.00  0.00    +0.000 A 
BRANCH  15  23
ATOM     21  C   UNL     1       3.564   1.323  18.554  0.00  0.00    +0.000 C 
ATOM     22  N   UNL     1       3.482   2.689  18.109  0.00  0.00    +0.000 N 
ATOM     23  C   UNL     1       4.327   3.647  18.628  0.00  0.00    +0.000 C 
ATOM     24  O   UNL     1       5.215   3.400  19.435  0.00  0.00    +0.000 OA
ATOM     25  H   UNL     1       2.845   2.922  17.359  0.00  0.00    +0.000 HD
ENDBRANCH  15  23
ENDBRANCH   1  19
BRANCH  10  26
ATOM     26  C   UNL     1      -3.004  12.286  23.071  0.00  0.00    +0.000 C 
BRANCH  26  27
ATOM     27  C   UNL     1      -3.866  13.478  23.465  0.00  0.00    +0.000 A 
ATOM     28  C   UNL     1      -3.378  14.476  24.326  0.00  0.00    +0.000 A 
ATOM     29  C   UNL     1      -4.162  15.586  24.652  0.00  0.00    +0.000 A 
ATOM     30  C   UNL     1      -5.432  15.725  24.099  0.00  0.00    +0.000 A 
ATOM     31  C   UNL     1      -5.961  14.707  23.306  0.00  0.00    +0.000 A 
ATOM     32  C   UNL     1      -5.213  13.552  23.046  0.00  0.00    +0.000 A 
BRANCH  32  33
ATOM     33  O   UNL     1      -5.701  12.427  22.439  0.00  0.00    +0.000 OA
BRANCH  33  34
ATOM     34  C   UNL     1      -6.256  12.533  21.142  0.00  0.00    +0.000 C 
ATOM     35  F   UNL     1      -5.494  13.337  20.371  0.00  0.00    +0.000 F 
ATOM     36  F   UNL     1      -6.270  11.302  20.583  0.00  0.00    +0.000 F 
ATOM     37  F   UNL     1      -7.524  12.992  21.166  0.00  0.00    +0.000 F 
ENDBRANCH  33  34
ENDBRANCH  32  33
ENDBRANCH  26  27
ENDBRANCH  10  26
TORSDOF 6
ENDMDL
MODEL 9
REMARK VINA RESULT:      -7.6      4.028     11.233
REMARK  Name = 
REMARK  7 active torsions:
REMARK  status: ('A' for Active; 'I' for Inactive)
REMARK    1  A    between atoms: C_1  and  N_2
REMARK    2  A    between atoms: C_3  and  C_5
REMARK    3  A    between atoms: C_9  and  N_10
REMARK    4  A    between atoms: N_19  and  C_20
REMARK    5  A    between atoms: C_20  and  C_21
REMARK    6  A    between atoms: C_26  and  O_27
REMARK    7  A    between atoms: O_27  and  C_28
REMARK                            x       y       z     vdW  Elec       q    Type
REMARK                         _______ _______ _______ _____ _____    ______ ____
ROOT
ATOM      1  N   UNL     1       1.428   8.542  18.279  0.00  0.00    +0.000 N 
ATOM      2  C   UNL     1       1.504   9.938  18.307  0.00  0.00    +0.000 A 
ATOM      3  N   UNL     1       2.556  10.598  17.846  0.00  0.00    +0.000 NA
ATOM      4  C   UNL     1       2.480  11.914  17.980  0.00  0.00    +0.000 A 
ATOM      5  N   UNL     1       1.479  12.594  18.530  0.00  0.00    +0.000 NA
ATOM      6  C   UNL     1       0.486  11.855  19.013  0.00  0.00    +0.000 A 
ATOM      7  N   UNL     1      -0.510  12.463  19.745  0.00  0.00    +0.000 N 
ATOM      8  C   UNL     1      -1.595  11.647  20.280  0.00  0.00    +0.000 C 
ATOM      9  C   UNL     1      -2.105  12.298  21.588  0.00  0.00    +0.000 C 
ATOM     10  N   UNL     1      -2.600  13.692  21.460  0.00  0.00    +0.000 NA
ATOM     11  C   UNL     1      -1.621  14.493  20.681  0.00  0.00    +0.000 C 
ATOM     12  C   UNL     1      -0.883  13.852  19.463  0.00  0.00    +0.000 C 
ATOM     13  N   UNL     1       0.456  10.527  18.879  0.00  0.00    +0.000 NA
ATOM     14  H   UNL     1       0.571   8.282  18.750  0.00  0.00    +0.000 HD
ENDROOT
BRANCH   1  19
ATOM     15  C   UNL     1       4.323   6.379  17.302  0.00  0.00    +0.000 A 
ATOM     16  C   UNL     1       4.444   5.591  18.449  0.00  0.00    +0.000 A 
ATOM     17  C   UNL     1       3.567   5.777  19.510  0.00  0.00    +0.000 A 
ATOM     18  C   UNL     1       2.571   6.751  19.429  0.00  0.00    +0.000 A 
ATOM     19  C   UNL     1       2.438   7.566  18.292  0.00  0.00    +0.000 A 
ATOM     20  C   UNL     1       3.313   7.347  17.222  0.00  0.00    +0.000 A 
BRANCH  15  23
ATOM     21  C   UNL     1       7.074   4.763  15.277  0.00  0.00    +0.000 C 
ATOM     22  N   UNL     1       6.101   5.053  16.296  0.00  0.00    +0.000 N 
ATOM     23  C   UNL     1       5.263   6.142  16.175  0.00  0.00    +0.000 C 
ATOM     24  O   UNL     1       5.250   6.880  15.196  0.00  0.00    +0.000 OA
ATOM     25  H   UNL     1       5.991   4.408  17.067  0.00  0.00    +0.000 HD
ENDBRANCH  15  23
ENDBRANCH   1  19
BRANCH  10  26
ATOM     26  C   UNL     1      -3.993  13.693  20.975  0.00  0.00    +0.000 C 
BRANCH  26  27
ATOM     27  C   UNL     1      -5.074  13.267  21.960  0.00  0.00    +0.000 A 
ATOM     28  C   UNL     1      -4.794  13.115  23.328  0.00  0.00    +0.000 A 
ATOM     29  C   UNL     1      -5.801  12.761  24.230  0.00  0.00    +0.000 A 
ATOM     30  C   UNL     1      -7.105  12.582  23.778  0.00  0.00    +0.000 A 
ATOM     31  C   UNL     1      -7.385  12.651  22.413  0.00  0.00    +0.000 A 
ATOM     32  C   UNL     1      -6.363  12.921  21.495  0.00  0.00    +0.000 A 
BRANCH  32  33
ATOM     33  O   UNL     1      -6.492  12.833  20.136  0.00  0.00    +0.000 OA
BRANCH  33  34
ATOM     34  C   UNL     1      -6.467  11.556  19.526  0.00  0.00    +0.000 C 
ATOM     35  F   UNL     1      -5.245  11.308  19.011  0.00  0.00    +0.000 F 
ATOM     36  F   UNL     1      -6.722  10.626  20.475  0.00  0.00    +0.000 F 
ATOM     37  F   UNL     1      -7.404  11.433  18.563  0.00  0.00    +0.000 F 
ENDBRANCH  33  34
ENDBRANCH  32  33
ENDBRANCH  26  27
ENDBRANCH  10  26
TORSDOF 6
ENDMDL
