MODEL 1
REMARK VINA RESULT:      -8.8      0.000      0.000
REMARK  Name = 
REMARK  3 active torsions:
REMARK  status: ('A' for Active; 'I' for Inactive)
REMARK    1  A    between atoms: C_5  and  N_6
REMARK    2  A    between atoms: N_6  and  C_7
REMARK    3  A    between atoms: C_10  and  C_11
REMARK                            x       y       z     vdW  Elec       q    Type
REMARK                         _______ _______ _______ _____ _____    ______ ____
ROOT
ATOM      1  C   UNL     1       3.473   5.752  19.202  0.00  0.00    +0.000 A 
ATOM      2  N   UNL     1       4.689   6.034  18.668  0.00  0.00    +0.000 NA
ATOM      3  C   UNL     1       5.266   5.294  17.708  0.00  0.00    +0.000 A 
ATOM      4  C   UNL     1       6.502   5.677  17.151  0.00  0.00    +0.000 A 
ATOM      5  C   UNL     1       7.083   4.913  16.122  0.00  0.00    +0.000 A 
ATOM      6  C   UNL     1       6.458   3.767  15.644  0.00  0.00    +0.000 A 
ATOM      7  C   UNL     1       5.243   3.373  16.189  0.00  0.00    +0.000 A 
ATOM      8  C   UNL     1       4.643   4.137  17.215  0.00  0.00    +0.000 A 
ATOM      9  C   UNL     1       3.384   3.792  17.790  0.00  0.00    +0.000 A 
ATOM     10  S   UNL     1       2.370   2.437  17.404  0.00  0.00    +0.000 S 
ATOM     11  C   UNL     1       1.170   2.903  18.510  0.00  0.00    +0.000 A 
ATOM     12  C   UNL     1       1.514   4.049  19.183  0.00  0.00    +0.000 A 
ATOM     13  C   UNL     1       2.793   4.584  18.783  0.00  0.00    +0.000 A 
ENDROOT
BRANCH   4  14
ATOM     14  C   UNL     1       7.214   6.881  17.605  0.00  0.00    +0.000 A 
ATOM     15  N   UNL     1       8.125   6.968  18.559  0.00  0.00    +0.000 NA
ATOM     16  N   UNL     1       8.540   8.279  18.650  0.00  0.00    +0.000 NA
ATOM     17  C   UNL     1       7.874   8.968  17.754  0.00  0.00    +0.000 A 
ATOM     18  N   UNL     1       7.032   8.140  17.087  0.00  0.00    +0.000 N 
ATOM     19  H   UNL     1       6.390   8.366  16.336  0.00  0.00    +0.000 HD
ENDBRANCH   4  14
BRANCH   1  20
ATOM     20  N   UNL     1       2.951   6.652  20.147  0.00  0.00    +0.000 N 
ATOM     21  H   UNL     1       2.749   6.235  21.047  0.00  0.00    +0.000 HD
BRANCH  20  26
ATOM     22  F   UNL     1      -0.355  10.984  19.109  0.00  0.00    +0.000 F 
ATOM     23  C   UNL     1       0.433   9.927  19.349  0.00  0.00    +0.000 A 
ATOM     24  C   UNL     1       1.199   9.401  18.321  0.00  0.00    +0.000 A 
ATOM     25  C   UNL     1       2.028   8.310  18.577  0.00  0.00    +0.000 A 
ATOM     26  C   UNL     1       2.101   7.742  19.860  0.00  0.00    +0.000 A 
ATOM     27  C   UNL     1       1.301   8.279  20.878  0.00  0.00    +0.000 A 
ATOM     28  C   UNL     1       0.473   9.377  20.624  0.00  0.00    +0.000 A 
ENDBRANCH  20  26
ENDBRANCH   1  20
TORSDOF 3
ENDMDL
MODEL 2
REMARK VINA RESULT:      -8.7      0.375      1.183
REMARK  Name = 
REMARK  3 active torsions:
REMARK  status: ('A' for Active; 'I' for Inactive)
REMARK    1  A    between atoms: C_5  and  N_6
REMARK    2  A    between atoms: N_6  and  C_7
REMARK    3  A    between atoms: C_10  and  C_11
REMARK                            x       y       z     vdW  Elec       q    Type
REMARK                         _______ _______ _______ _____ _____    ______ ____
ROOT
ATOM      1  C   UNL     1       3.453   5.742  19.177  0.00  0.00    +0.000 A 
ATOM      2  N   UNL     1       4.655   6.031  18.616  0.00  0.00    +0.000 NA
ATOM      3  C   UNL     1       5.219   5.286  17.651  0.00  0.00    +0.000 A 
ATOM      4  C   UNL     1       6.440   5.674  17.065  0.00  0.00    +0.000 A 
ATOM      5  C   UNL     1       7.007   4.904  16.032  0.00  0.00    +0.000 A 
ATOM      6  C   UNL     1       6.383   3.748  15.578  0.00  0.00    +0.000 A 
ATOM      7  C   UNL     1       5.183   3.348  16.153  0.00  0.00    +0.000 A 
ATOM      8  C   UNL     1       4.597   4.117  17.183  0.00  0.00    +0.000 A 
ATOM      9  C   UNL     1       3.354   3.767  17.788  0.00  0.00    +0.000 A 
ATOM     10  S   UNL     1       2.345   2.398  17.438  0.00  0.00    +0.000 S 
ATOM     11  C   UNL     1       1.164   2.865  18.563  0.00  0.00    +0.000 A 
ATOM     12  C   UNL     1       1.510   4.021  19.217  0.00  0.00    +0.000 A 
ATOM     13  C   UNL     1       2.775   4.564  18.784  0.00  0.00    +0.000 A 
ENDROOT
BRANCH   4  14
ATOM     14  C   UNL     1       7.149   6.889  17.491  0.00  0.00    +0.000 A 
ATOM     15  N   UNL     1       7.066   8.098  16.963  0.00  0.00    +0.000 NA
ATOM     16  N   UNL     1       7.888   8.945  17.675  0.00  0.00    +0.000 NA
ATOM     17  C   UNL     1       8.459   8.238  18.621  0.00  0.00    +0.000 A 
ATOM     18  N   UNL     1       8.035   6.952  18.539  0.00  0.00    +0.000 N 
ATOM     19  H   UNL     1       8.287   6.166  19.127  0.00  0.00    +0.000 HD
ENDBRANCH   4  14
BRANCH   1  20
ATOM     20  N   UNL     1       2.942   6.648  20.124  0.00  0.00    +0.000 N 
ATOM     21  H   UNL     1       2.731   6.231  21.021  0.00  0.00    +0.000 HD
BRANCH  20  26
ATOM     22  F   UNL     1      -0.362  10.934  18.906  0.00  0.00    +0.000 F 
ATOM     23  C   UNL     1       0.446   9.909  19.211  0.00  0.00    +0.000 A 
ATOM     24  C   UNL     1       0.470   9.422  20.508  0.00  0.00    +0.000 A 
ATOM     25  C   UNL     1       1.302   8.348  20.819  0.00  0.00    +0.000 A 
ATOM     26  C   UNL     1       2.110   7.752  19.837  0.00  0.00    +0.000 A 
ATOM     27  C   UNL     1       2.083   8.275  18.537  0.00  0.00    +0.000 A 
ATOM     28  C   UNL     1       1.245   9.349  18.223  0.00  0.00    +0.000 A 
ENDBRANCH  20  26
ENDBRANCH   1  20
TORSDOF 3
ENDMDL
MODEL 3
REMARK VINA RESULT:      -7.9      3.986      7.041
REMARK  Name = 
REMARK  3 active torsions:
REMARK  status: ('A' for Active; 'I' for Inactive)
REMARK    1  A    between atoms: C_5  and  N_6
REMARK    2  A    between atoms: N_6  and  C_7
REMARK    3  A    between atoms: C_10  and  C_11
REMARK                            x       y       z     vdW  Elec       q    Type
REMARK                         _______ _______ _______ _____ _____    ______ ____
ROOT
ATOM      1  C   UNL     1       5.483   4.547  18.197  0.00  0.00    +0.000 A 
ATOM      2  N   UNL     1       5.229   3.575  19.112  0.00  0.00    +0.000 NA
ATOM      3  C   UNL     1       4.137   3.561  19.893  0.00  0.00    +0.000 A 
ATOM      4  C   UNL     1       3.900   2.491  20.777  0.00  0.00    +0.000 A 
ATOM      5  C   UNL     1       2.736   2.469  21.568  0.00  0.00    +0.000 A 
ATOM      6  C   UNL     1       1.807   3.501  21.500  0.00  0.00    +0.000 A 
ATOM      7  C   UNL     1       2.031   4.568  20.638  0.00  0.00    +0.000 A 
ATOM      8  C   UNL     1       3.190   4.597  19.831  0.00  0.00    +0.000 A 
ATOM      9  C   UNL     1       3.455   5.653  18.910  0.00  0.00    +0.000 A 
ATOM     10  S   UNL     1       2.492   7.064  18.599  0.00  0.00    +0.000 S 
ATOM     11  C   UNL     1       3.549   7.633  17.399  0.00  0.00    +0.000 A 
ATOM     12  C   UNL     1       4.627   6.798  17.230  0.00  0.00    +0.000 A 
ATOM     13  C   UNL     1       4.595   5.643  18.095  0.00  0.00    +0.000 A 
ENDROOT
BRANCH   4  14
ATOM     14  C   UNL     1       4.836   1.364  20.894  0.00  0.00    +0.000 A 
ATOM     15  N   UNL     1       5.576   1.035  21.939  0.00  0.00    +0.000 NA
ATOM     16  N   UNL     1       6.300  -0.095  21.625  0.00  0.00    +0.000 NA
ATOM     17  C   UNL     1       5.993  -0.432  20.395  0.00  0.00    +0.000 A 
ATOM     18  N   UNL     1       5.092   0.452  19.898  0.00  0.00    +0.000 N 
ATOM     19  H   UNL     1       4.658   0.463  18.983  0.00  0.00    +0.000 HD
ENDBRANCH   4  14
BRANCH   1  20
ATOM     20  N   UNL     1       6.625   4.400  17.391  0.00  0.00    +0.000 N 
ATOM     21  H   UNL     1       7.455   4.840  17.768  0.00  0.00    +0.000 HD
BRANCH  20  26
ATOM     22  F   UNL     1       6.769   4.240  11.848  0.00  0.00    +0.000 F 
ATOM     23  C   UNL     1       6.718   4.286  13.187  0.00  0.00    +0.000 A 
ATOM     24  C   UNL     1       5.801   3.496  13.861  0.00  0.00    +0.000 A 
ATOM     25  C   UNL     1       5.759   3.537  15.254  0.00  0.00    +0.000 A 
ATOM     26  C   UNL     1       6.634   4.361  15.980  0.00  0.00    +0.000 A 
ATOM     27  C   UNL     1       7.539   5.166  15.274  0.00  0.00    +0.000 A 
ATOM     28  C   UNL     1       7.586   5.122  13.878  0.00  0.00    +0.000 A 
ENDBRANCH  20  26
ENDBRANCH   1  20
TORSDOF 3
ENDMDL
MODEL 4
REMARK VINA RESULT:      -7.3      5.653      9.970
REMARK  Name = 
REMARK  3 active torsions:
REMARK  status: ('A' for Active; 'I' for Inactive)
REMARK    1  A    between atoms: C_5  and  N_6
REMARK    2  A    between atoms: N_6  and  C_7
REMARK    3  A    between atoms: C_10  and  C_11
REMARK                            x       y       z     vdW  Elec       q    Type
REMARK                         _______ _______ _______ _____ _____    ______ ____
ROOT
ATOM      1  C   UNL     1      -0.841  11.719  19.658  0.00  0.00    +0.000 A 
ATOM      2  N   UNL     1      -1.795  11.490  18.718  0.00  0.00    +0.000 NA
ATOM      3  C   UNL     1      -3.085  11.827  18.876  0.00  0.00    +0.000 A 
ATOM      4  C   UNL     1      -4.014  11.619  17.838  0.00  0.00    +0.000 A 
ATOM      5  C   UNL     1      -5.357  12.005  18.000  0.00  0.00    +0.000 A 
ATOM      6  C   UNL     1      -5.794  12.587  19.185  0.00  0.00    +0.000 A 
ATOM      7  C   UNL     1      -4.892  12.790  20.221  0.00  0.00    +0.000 A 
ATOM      8  C   UNL     1      -3.538  12.417  20.067  0.00  0.00    +0.000 A 
ATOM      9  C   UNL     1      -2.564  12.628  21.088  0.00  0.00    +0.000 A 
ATOM     10  S   UNL     1      -2.801  13.329  22.659  0.00  0.00    +0.000 S 
ATOM     11  C   UNL     1      -1.159  13.194  23.067  0.00  0.00    +0.000 A 
ATOM     12  C   UNL     1      -0.428  12.618  22.058  0.00  0.00    +0.000 A 
ATOM     13  C   UNL     1      -1.220  12.282  20.900  0.00  0.00    +0.000 A 
ENDROOT
BRANCH   4  14
ATOM     14  C   UNL     1      -3.617  11.016  16.557  0.00  0.00    +0.000 A 
ATOM     15  N   UNL     1      -3.876  11.465  15.340  0.00  0.00    +0.000 NA
ATOM     16  N   UNL     1      -3.310  10.602  14.426  0.00  0.00    +0.000 NA
ATOM     17  C   UNL     1      -2.720   9.643  15.100  0.00  0.00    +0.000 A 
ATOM     18  N   UNL     1      -2.893   9.856  16.428  0.00  0.00    +0.000 N 
ATOM     19  H   UNL     1      -2.556   9.299  17.205  0.00  0.00    +0.000 HD
ENDBRANCH   4  14
BRANCH   1  20
ATOM     20  N   UNL     1       0.486  11.386  19.334  0.00  0.00    +0.000 N 
ATOM     21  H   UNL     1       0.889  11.960  18.604  0.00  0.00    +0.000 HD
BRANCH  20  26
ATOM     22  F   UNL     1       2.729   6.313  19.370  0.00  0.00    +0.000 F 
ATOM     23  C   UNL     1       2.171   7.531  19.363  0.00  0.00    +0.000 A 
ATOM     24  C   UNL     1       1.538   7.998  20.505  0.00  0.00    +0.000 A 
ATOM     25  C   UNL     1       0.970   9.271  20.498  0.00  0.00    +0.000 A 
ATOM     26  C   UNL     1       1.034  10.085  19.355  0.00  0.00    +0.000 A 
ATOM     27  C   UNL     1       1.661   9.583  18.207  0.00  0.00    +0.000 A 
ATOM     28  C   UNL     1       2.236   8.309  18.214  0.00  0.00    +0.000 A 
ENDBRANCH  20  26
ENDBRANCH   1  20
TORSDOF 3
ENDMDL
MODEL 5
REMARK VINA RESULT:      -7.3      5.592      9.791
REMARK  Name = 
REMARK  3 active torsions:
REMARK  status: ('A' for Active; 'I' for Inactive)
REMARK    1  A    between atoms: C_5  and  N_6
REMARK    2  A    between atoms: N_6  and  C_7
REMARK    3  A    between atoms: C_10  and  C_11
REMARK                            x       y       z     vdW  Elec       q    Type
REMARK                         _______ _______ _______ _____ _____    ______ ____
ROOT
ATOM      1  C   UNL     1      -0.735  11.531  19.263  0.00  0.00    +0.000 A 
ATOM      2  N   UNL     1      -1.710  11.320  18.341  0.00  0.00    +0.000 NA
ATOM      3  C   UNL     1      -2.992  11.674  18.525  0.00  0.00    +0.000 A 
ATOM      4  C   UNL     1      -3.943  11.484  17.504  0.00  0.00    +0.000 A 
ATOM      5  C   UNL     1      -5.277  11.889  17.694  0.00  0.00    +0.000 A 
ATOM      6  C   UNL     1      -5.683  12.473  18.889  0.00  0.00    +0.000 A 
ATOM      7  C   UNL     1      -4.758  12.658  19.908  0.00  0.00    +0.000 A 
ATOM      8  C   UNL     1      -3.413  12.267  19.727  0.00  0.00    +0.000 A 
ATOM      9  C   UNL     1      -2.417  12.460  20.729  0.00  0.00    +0.000 A 
ATOM     10  S   UNL     1      -2.613  13.157  22.307  0.00  0.00    +0.000 S 
ATOM     11  C   UNL     1      -0.965  12.997  22.682  0.00  0.00    +0.000 A 
ATOM     12  C   UNL     1      -0.262  12.415  21.657  0.00  0.00    +0.000 A 
ATOM     13  C   UNL     1      -1.082  12.094  20.513  0.00  0.00    +0.000 A 
ENDROOT
BRANCH   4  14
ATOM     14  C   UNL     1      -3.581  10.881  16.214  0.00  0.00    +0.000 A 
ATOM     15  N   UNL     1      -3.979  11.253  15.009  0.00  0.00    +0.000 NA
ATOM     16  N   UNL     1      -3.392  10.424  14.078  0.00  0.00    +0.000 NA
ATOM     17  C   UNL     1      -2.650   9.560  14.730  0.00  0.00    +0.000 A 
ATOM     18  N   UNL     1      -2.744   9.802  16.061  0.00  0.00    +0.000 N 
ATOM     19  H   UNL     1      -2.289   9.314  16.824  0.00  0.00    +0.000 HD
ENDBRANCH   4  14
BRANCH   1  20
ATOM     20  N   UNL     1       0.580  11.180  18.912  0.00  0.00    +0.000 N 
ATOM     21  H   UNL     1       0.936  11.669  18.100  0.00  0.00    +0.000 HD
BRANCH  20  26
ATOM     22  F   UNL     1       2.742   6.109  19.532  0.00  0.00    +0.000 F 
ATOM     23  C   UNL     1       2.236   7.341  19.380  0.00  0.00    +0.000 A 
ATOM     24  C   UNL     1       2.354   7.980  18.156  0.00  0.00    +0.000 A 
ATOM     25  C   UNL     1       1.816   9.256  17.998  0.00  0.00    +0.000 A 
ATOM     26  C   UNL     1       1.154   9.898  19.057  0.00  0.00    +0.000 A 
ATOM     27  C   UNL     1       1.064   9.240  20.291  0.00  0.00    +0.000 A 
ATOM     28  C   UNL     1       1.599   7.957  20.450  0.00  0.00    +0.000 A 
ENDBRANCH  20  26
ENDBRANCH   1  20
TORSDOF 3
ENDMDL
MODEL 6
REMARK VINA RESULT:      -7.2      8.028     10.720
REMARK  Name = 
REMARK  3 active torsions:
REMARK  status: ('A' for Active; 'I' for Inactive)
REMARK    1  A    between atoms: C_5  and  N_6
REMARK    2  A    between atoms: N_6  and  C_7
REMARK    3  A    between atoms: C_10  and  C_11
REMARK                            x       y       z     vdW  Elec       q    Type
REMARK                         _______ _______ _______ _____ _____    ______ ____
ROOT
ATOM      1  C   UNL     1      -2.388  12.360  20.462  0.00  0.00    +0.000 A 
ATOM      2  N   UNL     1      -3.341  12.259  19.499  0.00  0.00    +0.000 NA
ATOM      3  C   UNL     1      -3.202  11.503  18.398  0.00  0.00    +0.000 A 
ATOM      4  C   UNL     1      -4.253  11.390  17.467  0.00  0.00    +0.000 A 
ATOM      5  C   UNL     1      -4.111  10.571  16.333  0.00  0.00    +0.000 A 
ATOM      6  C   UNL     1      -2.934   9.867  16.103  0.00  0.00    +0.000 A 
ATOM      7  C   UNL     1      -1.885   9.976  17.008  0.00  0.00    +0.000 A 
ATOM      8  C   UNL     1      -2.019  10.786  18.157  0.00  0.00    +0.000 A 
ATOM      9  C   UNL     1      -0.985  10.911  19.131  0.00  0.00    +0.000 A 
ATOM     10  S   UNL     1       0.581  10.162  19.126  0.00  0.00    +0.000 S 
ATOM     11  C   UNL     1       1.013  10.842  20.619  0.00  0.00    +0.000 A 
ATOM     12  C   UNL     1       0.015  11.639  21.125  0.00  0.00    +0.000 A 
ATOM     13  C   UNL     1      -1.153  11.695  20.280  0.00  0.00    +0.000 A 
ENDROOT
BRANCH   4  14
ATOM     14  C   UNL     1      -5.527  12.100  17.652  0.00  0.00    +0.000 A 
ATOM     15  N   UNL     1      -6.072  13.001  16.852  0.00  0.00    +0.000 NA
ATOM     16  N   UNL     1      -7.273  13.402  17.397  0.00  0.00    +0.000 NA
ATOM     17  C   UNL     1      -7.438  12.742  18.519  0.00  0.00    +0.000 A 
ATOM     18  N   UNL     1      -6.373  11.928  18.721  0.00  0.00    +0.000 N 
ATOM     19  H   UNL     1      -6.204  11.290  19.490  0.00  0.00    +0.000 HD
ENDBRANCH   4  14
BRANCH   1  20
ATOM     20  N   UNL     1      -2.693  13.126  21.601  0.00  0.00    +0.000 N 
ATOM     21  H   UNL     1      -1.890  13.348  22.176  0.00  0.00    +0.000 HD
BRANCH  20  26
ATOM     22  F   UNL     1      -7.316  12.822  24.652  0.00  0.00    +0.000 F 
ATOM     23  C   UNL     1      -6.205  12.882  23.904  0.00  0.00    +0.000 A 
ATOM     24  C   UNL     1      -6.293  13.296  22.585  0.00  0.00    +0.000 A 
ATOM     25  C   UNL     1      -5.134  13.369  21.814  0.00  0.00    +0.000 A 
ATOM     26  C   UNL     1      -3.882  13.036  22.356  0.00  0.00    +0.000 A 
ATOM     27  C   UNL     1      -3.822  12.601  23.687  0.00  0.00    +0.000 A 
ATOM     28  C   UNL     1      -4.983  12.532  24.464  0.00  0.00    +0.000 A 
ENDBRANCH  20  26
ENDBRANCH   1  20
TORSDOF 3
ENDMDL
MODEL 7
REMARK VINA RESULT:      -7.2      7.629     11.065
REMARK  Name = 
REMARK  3 active torsions:
REMARK  status: ('A' for Active; 'I' for Inactive)
REMARK    1  A    between atoms: C_5  and  N_6
REMARK    2  A    between atoms: N_6  and  C_7
REMARK    3  A    between atoms: C_10  and  C_11
REMARK                            x       y       z     vdW  Elec       q    Type
REMARK                         _______ _______ _______ _____ _____    ______ ____
ROOT
ATOM      1  C   UNL     1      -2.932  12.652  20.957  0.00  0.00    +0.000 A 
ATOM      2  N   UNL     1      -3.375  12.154  19.773  0.00  0.00    +0.000 NA
ATOM      3  C   UNL     1      -4.656  12.219  19.375  0.00  0.00    +0.000 A 
ATOM      4  C   UNL     1      -5.039  11.740  18.107  0.00  0.00    +0.000 A 
ATOM      5  C   UNL     1      -6.378  11.842  17.686  0.00  0.00    +0.000 A 
ATOM      6  C   UNL     1      -7.345  12.406  18.511  0.00  0.00    +0.000 A 
ATOM      7  C   UNL     1      -6.983  12.874  19.768  0.00  0.00    +0.000 A 
ATOM      8  C   UNL     1      -5.640  12.788  20.199  0.00  0.00    +0.000 A 
ATOM      9  C   UNL     1      -5.210  13.279  21.467  0.00  0.00    +0.000 A 
ATOM     10  S   UNL     1      -6.171  14.029  22.702  0.00  0.00    +0.000 S 
ATOM     11  C   UNL     1      -4.835  14.279  23.719  0.00  0.00    +0.000 A 
ATOM     12  C   UNL     1      -3.675  13.797  23.164  0.00  0.00    +0.000 A 
ATOM     13  C   UNL     1      -3.867  13.213  21.859  0.00  0.00    +0.000 A 
ENDROOT
BRANCH   4  14
ATOM     14  C   UNL     1      -4.067  11.140  17.182  0.00  0.00    +0.000 A 
ATOM     15  N   UNL     1      -3.907  11.405  15.897  0.00  0.00    +0.000 NA
ATOM     16  N   UNL     1      -2.877  10.627  15.414  0.00  0.00    +0.000 NA
ATOM     17  C   UNL     1      -2.430   9.900  16.410  0.00  0.00    +0.000 A 
ATOM     18  N   UNL     1      -3.146  10.180  17.527  0.00  0.00    +0.000 N 
ATOM     19  H   UNL     1      -3.042   9.791  18.457  0.00  0.00    +0.000 HD
ENDBRANCH   4  14
BRANCH   1  20
ATOM     20  N   UNL     1      -1.552  12.585  21.216  0.00  0.00    +0.000 N 
ATOM     21  H   UNL     1      -1.010  13.303  20.753  0.00  0.00    +0.000 HD
BRANCH  20  26
ATOM     22  F   UNL     1       1.445   7.975  21.945  0.00  0.00    +0.000 F 
ATOM     23  C   UNL     1       0.706   9.079  21.771  0.00  0.00    +0.000 A 
ATOM     24  C   UNL     1      -0.016   9.591  22.838  0.00  0.00    +0.000 A 
ATOM     25  C   UNL     1      -0.773  10.747  22.658  0.00  0.00    +0.000 A 
ATOM     26  C   UNL     1      -0.811  11.400  21.415  0.00  0.00    +0.000 A 
ATOM     27  C   UNL     1      -0.089  10.852  20.346  0.00  0.00    +0.000 A 
ATOM     28  C   UNL     1       0.676   9.695  20.527  0.00  0.00    +0.000 A 
ENDBRANCH  20  26
ENDBRANCH   1  20
TORSDOF 3
ENDMDL
MODEL 8
REMARK VINA RESULT:      -7.1      4.949      8.654
REMARK  Name = 
REMARK  3 active torsions:
REMARK  status: ('A' for Active; 'I' for Inactive)
REMARK    1  A    between atoms: C_5  and  N_6
REMARK    2  A    between atoms: N_6  and  C_7
REMARK    3  A    between atoms: C_10  and  C_11
REMARK                            x       y       z     vdW  Elec       q    Type
REMARK                         _______ _______ _______ _____ _____    ______ ____
ROOT
ATOM      1  C   UNL     1       0.161  11.111  18.549  0.00  0.00    +0.000 A 
ATOM      2  N   UNL     1       0.440  12.117  19.419  0.00  0.00    +0.000 NA
ATOM      3  C   UNL     1      -0.504  12.872  20.004  0.00  0.00    +0.000 A 
ATOM      4  C   UNL     1      -0.152  13.858  20.946  0.00  0.00    +0.000 A 
ATOM      5  C   UNL     1      -1.150  14.622  21.579  0.00  0.00    +0.000 A 
ATOM      6  C   UNL     1      -2.494  14.427  21.282  0.00  0.00    +0.000 A 
ATOM      7  C   UNL     1      -2.856  13.464  20.348  0.00  0.00    +0.000 A 
ATOM      8  C   UNL     1      -1.864  12.682  19.714  0.00  0.00    +0.000 A 
ATOM      9  C   UNL     1      -2.182  11.662  18.769  0.00  0.00    +0.000 A 
ATOM     10  S   UNL     1      -3.751  11.184  18.202  0.00  0.00    +0.000 S 
ATOM     11  C   UNL     1      -3.122   9.954  17.216  0.00  0.00    +0.000 A 
ATOM     12  C   UNL     1      -1.752   9.896  17.285  0.00  0.00    +0.000 A 
ATOM     13  C   UNL     1      -1.184  10.876  18.179  0.00  0.00    +0.000 A 
ENDROOT
BRANCH   4  14
ATOM     14  C   UNL     1       1.249  14.111  21.312  0.00  0.00    +0.000 A 
ATOM     15  N   UNL     1       1.701  14.761  22.372  0.00  0.00    +0.000 NA
ATOM     16  N   UNL     1       3.079  14.756  22.334  0.00  0.00    +0.000 NA
ATOM     17  C   UNL     1       3.442  14.107  21.253  0.00  0.00    +0.000 A 
ATOM     18  N   UNL     1       2.337  13.696  20.583  0.00  0.00    +0.000 N 
ATOM     19  H   UNL     1       2.283  13.169  19.719  0.00  0.00    +0.000 HD
ENDBRANCH   4  14
BRANCH   1  20
ATOM     20  N   UNL     1       1.240  10.349  18.067  0.00  0.00    +0.000 N 
ATOM     21  H   UNL     1       1.376  10.413  17.066  0.00  0.00    +0.000 HD
BRANCH  20  26
ATOM     22  F   UNL     1       2.801   5.451  20.150  0.00  0.00    +0.000 F 
ATOM     23  C   UNL     1       2.441   6.639  19.645  0.00  0.00    +0.000 A 
ATOM     24  C   UNL     1       2.754   6.944  18.330  0.00  0.00    +0.000 A 
ATOM     25  C   UNL     1       2.367   8.175  17.805  0.00  0.00    +0.000 A 
ATOM     26  C   UNL     1       1.663   9.106  18.586  0.00  0.00    +0.000 A 
ATOM     27  C   UNL     1       1.376   8.783  19.919  0.00  0.00    +0.000 A 
ATOM     28  C   UNL     1       1.758   7.545  20.446  0.00  0.00    +0.000 A 
ENDBRANCH  20  26
ENDBRANCH   1  20
TORSDOF 3
ENDMDL
MODEL 9
REMARK VINA RESULT:      -7.0      5.617      9.879
REMARK  Name = 
REMARK  3 active torsions:
REMARK  status: ('A' for Active; 'I' for Inactive)
REMARK    1  A    between atoms: C_5  and  N_6
REMARK    2  A    between atoms: N_6  and  C_7
REMARK    3  A    between atoms: C_10  and  C_11
REMARK                            x       y       z     vdW  Elec       q    Type
REMARK                         _______ _______ _______ _____ _____    ______ ____
ROOT
ATOM      1  C   UNL     1      -1.143  11.594  18.709  0.00  0.00    +0.000 A 
ATOM      2  N   UNL     1      -1.506  12.344  19.781  0.00  0.00    +0.000 NA
ATOM      3  C   UNL     1      -2.782  12.638  20.080  0.00  0.00    +0.000 A 
ATOM      4  C   UNL     1      -3.097  13.368  21.243  0.00  0.00    +0.000 A 
ATOM      5  C   UNL     1      -4.439  13.643  21.566  0.00  0.00    +0.000 A 
ATOM      6  C   UNL     1      -5.474  13.211  20.744  0.00  0.00    +0.000 A 
ATOM      7  C   UNL     1      -5.178  12.498  19.589  0.00  0.00    +0.000 A 
ATOM      8  C   UNL     1      -3.836  12.205  19.259  0.00  0.00    +0.000 A 
ATOM      9  C   UNL     1      -3.478  11.452  18.102  0.00  0.00    +0.000 A 
ATOM     10  S   UNL     1      -4.534  10.781  16.898  0.00  0.00    +0.000 S 
ATOM     11  C   UNL     1      -3.252  10.083  16.032  0.00  0.00    +0.000 A 
ATOM     12  C   UNL     1      -2.037  10.353  16.612  0.00  0.00    +0.000 A 
ATOM     13  C   UNL     1      -2.142  11.145  17.813  0.00  0.00    +0.000 A 
ENDROOT
BRANCH   4  14
ATOM     14  C   UNL     1      -2.053  13.848  22.160  0.00  0.00    +0.000 A 
ATOM     15  N   UNL     1      -1.892  13.534  23.434  0.00  0.00    +0.000 NA
ATOM     16  N   UNL     1      -0.783  14.198  23.912  0.00  0.00    +0.000 NA
ATOM     17  C   UNL     1      -0.290  14.907  22.924  0.00  0.00    +0.000 A 
ATOM     18  N   UNL     1      -1.053  14.726  21.818  0.00  0.00    +0.000 N 
ATOM     19  H   UNL     1      -0.933  15.129  20.896  0.00  0.00    +0.000 HD
ENDBRANCH   4  14
BRANCH   1  20
ATOM     20  N   UNL     1       0.223  11.297  18.554  0.00  0.00    +0.000 N 
ATOM     21  H   UNL     1       0.650  11.730  17.745  0.00  0.00    +0.000 HD
BRANCH  20  26
ATOM     22  F   UNL     1       2.741   6.525  19.843  0.00  0.00    +0.000 F 
ATOM     23  C   UNL     1       2.116   7.670  19.535  0.00  0.00    +0.000 A 
ATOM     24  C   UNL     1       1.408   8.347  20.515  0.00  0.00    +0.000 A 
ATOM     25  C   UNL     1       0.771   9.544  20.194  0.00  0.00    +0.000 A 
ATOM     26  C   UNL     1       0.840  10.074  18.896  0.00  0.00    +0.000 A 
ATOM     27  C   UNL     1       1.545   9.362  17.916  0.00  0.00    +0.000 A 
ATOM     28  C   UNL     1       2.190   8.164  18.238  0.00  0.00    +0.000 A 
ENDBRANCH  20  26
ENDBRANCH   1  20
TORSDOF 3
ENDMDL
