MODEL 1
REMARK VINA RESULT:      -8.3      0.000      0.000
REMARK  Name = 
REMARK  8 active torsions:
REMARK  status: ('A' for Active; 'I' for Inactive)
REMARK    1  A    between atoms: C_1  and  O_2
REMARK    2  A    between atoms: O_2  and  C_3
REMARK    3  A    between atoms: C_12  and  C_13
REMARK    4  A    between atoms: C_13  and  C_14
REMARK    5  A    between atoms: C_14  and  C_15
REMARK    6  A    between atoms: C_20  and  O_21
REMARK    7  A    between atoms: O_21  and  C_22
REMARK    8  A    between atoms: C_24  and  C_26
REMARK                            x       y       z     vdW  Elec       q    Type
REMARK                         _______ _______ _______ _____ _____    ______ ____
ROOT
ATOM      1  C   UNL     1       6.349   5.599  16.554  0.00  0.00    +0.000 A 
ATOM      2  N   UNL     1       6.364   4.604  17.445  0.00  0.00    +0.000 NA
ATOM      3  C   UNL     1       5.366   4.579  18.346  0.00  0.00    +0.000 A 
ATOM      4  N   UNL     1       5.544   3.600  19.331  0.00  0.00    +0.000 N 
ATOM      5  C   UNL     1       4.322   5.518  18.380  0.00  0.00    +0.000 A 
ATOM      6  C   UNL     1       4.452   6.533  17.427  0.00  0.00    +0.000 A 
ATOM      7  N   UNL     1       5.449   6.583  16.514  0.00  0.00    +0.000 NA
ATOM      8  C   UNL     1       3.493   7.688  17.348  0.00  0.00    +0.000 C 
ATOM      9  C   UNL     1       2.219   7.458  18.149  0.00  0.00    +0.000 C 
ATOM     10  C   UNL     1       2.603   6.869  19.512  0.00  0.00    +0.000 C 
ATOM     11  N   UNL     1       3.149   5.483  19.278  0.00  0.00    +0.000 N 
ATOM     12  C   UNL     1       2.529   4.230  19.459  0.00  0.00    +0.000 C 
ATOM     13  O   UNL     1       3.066   3.171  19.109  0.00  0.00    +0.000 OA
ATOM     14  H   UNL     1       6.306   3.005  19.019  0.00  0.00    +0.000 HD
ATOM     15  H   UNL     1       4.675   3.059  19.402  0.00  0.00    +0.000 HD
ENDROOT
BRANCH   1  17
ATOM     16  C   UNL     1       7.067   4.823  14.475  0.00  0.00    +0.000 C 
ATOM     17  O   UNL     1       7.327   5.672  15.585  0.00  0.00    +0.000 OA
ENDBRANCH   1  17
BRANCH  12  18
ATOM     18  C   UNL     1       1.164   4.143  20.110  0.00  0.00    +0.000 C 
ATOM     19 CL   UNL     1       1.133   2.945  21.434  0.00  0.00    +0.000 Cl
ENDBRANCH  12  18
BRANCH  10  20
ATOM     20  C   UNL     1       1.490   7.175  20.534  0.00  0.00    +0.000 C 
BRANCH  20  21
ATOM     21  C   UNL     1       1.886   8.116  21.673  0.00  0.00    +0.000 C 
BRANCH  21  22
ATOM     22  C   UNL     1       0.914   9.277  21.780  0.00  0.00    +0.000 A 
ATOM     23  C   UNL     1       0.141   9.350  22.964  0.00  0.00    +0.000 A 
ATOM     24  C   UNL     1      -0.861  10.306  23.144  0.00  0.00    +0.000 A 
ATOM     25  C   UNL     1      -1.110  11.226  22.143  0.00  0.00    +0.000 A 
ATOM     26  C   UNL     1      -0.365  11.175  20.967  0.00  0.00    +0.000 A 
ATOM     27  C   UNL     1       0.644  10.214  20.769  0.00  0.00    +0.000 A 
BRANCH  27  28
ATOM     28  O   UNL     1       1.165  10.276  19.508  0.00  0.00    +0.000 OA
ATOM     29  C   UNL     1       1.213  11.527  18.846  0.00  0.00    +0.000 C 
ENDBRANCH  27  28
ENDBRANCH  21  22
ENDBRANCH  20  21
ENDBRANCH  10  20
TORSDOF 6
ENDMDL
MODEL 2
REMARK VINA RESULT:      -8.0      0.961      1.807
REMARK  Name = 
REMARK  8 active torsions:
REMARK  status: ('A' for Active; 'I' for Inactive)
REMARK    1  A    between atoms: C_1  and  O_2
REMARK    2  A    between atoms: O_2  and  C_3
REMARK    3  A    between atoms: C_12  and  C_13
REMARK    4  A    between atoms: C_13  and  C_14
REMARK    5  A    between atoms: C_14  and  C_15
REMARK    6  A    between atoms: C_20  and  O_21
REMARK    7  A    between atoms: O_21  and  C_22
REMARK    8  A    between atoms: C_24  and  C_26
REMARK                            x       y       z     vdW  Elec       q    Type
REMARK                         _______ _______ _______ _____ _____    ______ ____
ROOT
ATOM      1  C   UNL     1       6.387   5.399  16.511  0.00  0.00    +0.000 A 
ATOM      2  N   UNL     1       6.374   4.422  17.423  0.00  0.00    +0.000 NA
ATOM      3  C   UNL     1       5.370   4.439  18.319  0.00  0.00    +0.000 A 
ATOM      4  N   UNL     1       5.522   3.478  19.325  0.00  0.00    +0.000 N 
ATOM      5  C   UNL     1       4.348   5.403  18.327  0.00  0.00    +0.000 A 
ATOM      6  C   UNL     1       4.508   6.394  17.353  0.00  0.00    +0.000 A 
ATOM      7  N   UNL     1       5.509   6.402  16.445  0.00  0.00    +0.000 NA
ATOM      8  C   UNL     1       3.575   7.569  17.245  0.00  0.00    +0.000 C 
ATOM      9  C   UNL     1       2.293   7.386  18.043  0.00  0.00    +0.000 C 
ATOM     10  C   UNL     1       2.656   6.817  19.421  0.00  0.00    +0.000 C 
ATOM     11  N   UNL     1       3.171   5.414  19.219  0.00  0.00    +0.000 N 
ATOM     12  C   UNL     1       2.521   4.179  19.422  0.00  0.00    +0.000 C 
ATOM     13  O   UNL     1       3.035   3.101  19.098  0.00  0.00    +0.000 OA
ATOM     14  H   UNL     1       6.271   2.859  19.030  0.00  0.00    +0.000 HD
ATOM     15  H   UNL     1       4.639   2.959  19.403  0.00  0.00    +0.000 HD
ENDROOT
BRANCH   1  17
ATOM     16  C   UNL     1       6.946   4.875  14.309  0.00  0.00    +0.000 C 
ATOM     17  O   UNL     1       7.371   5.429  15.547  0.00  0.00    +0.000 OA
ENDBRANCH   1  17
BRANCH  12  18
ATOM     18  C   UNL     1       1.151   4.138  20.067  0.00  0.00    +0.000 C 
ATOM     19 CL   UNL     1       1.025   2.831  21.279  0.00  0.00    +0.000 Cl
ENDBRANCH  12  18
BRANCH  10  20
ATOM     20  C   UNL     1       1.545   7.170  20.430  0.00  0.00    +0.000 C 
BRANCH  20  21
ATOM     21  C   UNL     1       1.681   8.535  21.105  0.00  0.00    +0.000 C 
BRANCH  21  22
ATOM     22  C   UNL     1       0.659   9.515  20.560  0.00  0.00    +0.000 A 
ATOM     23  C   UNL     1       0.726   9.797  19.173  0.00  0.00    +0.000 A 
ATOM     24  C   UNL     1      -0.087  10.756  18.566  0.00  0.00    +0.000 A 
ATOM     25  C   UNL     1      -1.001  11.455  19.331  0.00  0.00    +0.000 A 
ATOM     26  C   UNL     1      -1.085  11.200  20.698  0.00  0.00    +0.000 A 
ATOM     27  C   UNL     1      -0.269  10.240  21.325  0.00  0.00    +0.000 A 
BRANCH  27  28
ATOM     28  O   UNL     1      -0.439  10.234  22.681  0.00  0.00    +0.000 OA
ATOM     29  C   UNL     1      -1.427  11.074  23.251  0.00  0.00    +0.000 C 
ENDBRANCH  27  28
ENDBRANCH  21  22
ENDBRANCH  20  21
ENDBRANCH  10  20
TORSDOF 6
ENDMDL
MODEL 3
REMARK VINA RESULT:      -7.5      1.160      1.484
REMARK  Name = 
REMARK  8 active torsions:
REMARK  status: ('A' for Active; 'I' for Inactive)
REMARK    1  A    between atoms: C_1  and  O_2
REMARK    2  A    between atoms: O_2  and  C_3
REMARK    3  A    between atoms: C_12  and  C_13
REMARK    4  A    between atoms: C_13  and  C_14
REMARK    5  A    between atoms: C_14  and  C_15
REMARK    6  A    between atoms: C_20  and  O_21
REMARK    7  A    between atoms: O_21  and  C_22
REMARK    8  A    between atoms: C_24  and  C_26
REMARK                            x       y       z     vdW  Elec       q    Type
REMARK                         _______ _______ _______ _____ _____    ______ ____
ROOT
ATOM      1  C   UNL     1       6.367   5.688  16.504  0.00  0.00    +0.000 A 
ATOM      2  N   UNL     1       6.405   4.768  17.473  0.00  0.00    +0.000 NA
ATOM      3  C   UNL     1       5.418   4.805  18.387  0.00  0.00    +0.000 A 
ATOM      4  N   UNL     1       5.621   3.910  19.444  0.00  0.00    +0.000 N 
ATOM      5  C   UNL     1       4.364   5.732  18.359  0.00  0.00    +0.000 A 
ATOM      6  C   UNL     1       4.471   6.668  17.326  0.00  0.00    +0.000 A 
ATOM      7  N   UNL     1       5.455   6.656  16.398  0.00  0.00    +0.000 NA
ATOM      8  C   UNL     1       3.497   7.803  17.168  0.00  0.00    +0.000 C 
ATOM      9  C   UNL     1       2.236   7.625  18.002  0.00  0.00    +0.000 C 
ATOM     10  C   UNL     1       2.645   7.152  19.402  0.00  0.00    +0.000 C 
ATOM     11  N   UNL     1       3.204   5.757  19.273  0.00  0.00    +0.000 N 
ATOM     12  C   UNL     1       2.601   4.516  19.562  0.00  0.00    +0.000 C 
ATOM     13  O   UNL     1       3.146   3.439  19.292  0.00  0.00    +0.000 OA
ATOM     14  H   UNL     1       6.386   3.300  19.171  0.00  0.00    +0.000 HD
ATOM     15  H   UNL     1       4.759   3.368  19.571  0.00  0.00    +0.000 HD
ENDROOT
BRANCH   1  17
ATOM     16  C   UNL     1       6.972   4.905  14.393  0.00  0.00    +0.000 C 
ATOM     17  O   UNL     1       7.331   5.693  15.520  0.00  0.00    +0.000 OA
ENDBRANCH   1  17
BRANCH  12  18
ATOM     18  C   UNL     1       1.245   4.467  20.237  0.00  0.00    +0.000 C 
ATOM     19 CL   UNL     1       1.026   2.969  21.183  0.00  0.00    +0.000 Cl
ENDBRANCH  12  18
BRANCH  10  20
ATOM     20  C   UNL     1       1.542   7.527  20.412  0.00  0.00    +0.000 C 
BRANCH  20  21
ATOM     21  C   UNL     1       1.684   8.906  21.057  0.00  0.00    +0.000 C 
BRANCH  21  22
ATOM     22  C   UNL     1       0.675   9.882  20.481  0.00  0.00    +0.000 A 
ATOM     23  C   UNL     1      -0.302   9.344  19.607  0.00  0.00    +0.000 A 
ATOM     24  C   UNL     1      -1.221  10.148  18.930  0.00  0.00    +0.000 A 
ATOM     25  C   UNL     1      -1.196  11.517  19.118  0.00  0.00    +0.000 A 
ATOM     26  C   UNL     1      -0.245  12.072  19.971  0.00  0.00    +0.000 A 
ATOM     27  C   UNL     1       0.692  11.276  20.656  0.00  0.00    +0.000 A 
BRANCH  27  28
ATOM     28  O   UNL     1       1.597  12.033  21.344  0.00  0.00    +0.000 OA
ATOM     29  C   UNL     1       2.227  13.116  20.684  0.00  0.00    +0.000 C 
ENDBRANCH  27  28
ENDBRANCH  21  22
ENDBRANCH  20  21
ENDBRANCH  10  20
TORSDOF 6
ENDMDL
MODEL 4
REMARK VINA RESULT:      -7.2      3.651      8.338
REMARK  Name = 
REMARK  8 active torsions:
REMARK  status: ('A' for Active; 'I' for Inactive)
REMARK    1  A    between atoms: C_1  and  O_2
REMARK    2  A    between atoms: O_2  and  C_3
REMARK    3  A    between atoms: C_12  and  C_13
REMARK    4  A    between atoms: C_13  and  C_14
REMARK    5  A    between atoms: C_14  and  C_15
REMARK    6  A    between atoms: C_20  and  O_21
REMARK    7  A    between atoms: O_21  and  C_22
REMARK    8  A    between atoms: C_24  and  C_26
REMARK                            x       y       z     vdW  Elec       q    Type
REMARK                         _______ _______ _______ _____ _____    ______ ____
ROOT
ATOM      1  C   UNL     1      -0.596  12.807  22.775  0.00  0.00    +0.000 A 
ATOM      2  N   UNL     1       0.190  13.251  21.789  0.00  0.00    +0.000 NA
ATOM      3  C   UNL     1       0.755  12.323  20.996  0.00  0.00    +0.000 A 
ATOM      4  N   UNL     1       1.679  12.866  20.096  0.00  0.00    +0.000 N 
ATOM      5  C   UNL     1       0.546  10.942  21.139  0.00  0.00    +0.000 A 
ATOM      6  C   UNL     1      -0.255  10.610  22.237  0.00  0.00    +0.000 A 
ATOM      7  N   UNL     1      -0.830  11.522  23.052  0.00  0.00    +0.000 NA
ATOM      8  C   UNL     1      -0.532   9.184  22.625  0.00  0.00    +0.000 C 
ATOM      9  C   UNL     1      -0.158   8.188  21.537  0.00  0.00    +0.000 C 
ATOM     10  C   UNL     1       1.215   8.578  20.974  0.00  0.00    +0.000 C 
ATOM     11  N   UNL     1       1.057   9.887  20.240  0.00  0.00    +0.000 N 
ATOM     12  C   UNL     1       0.961  10.136  18.856  0.00  0.00    +0.000 C 
ATOM     13  O   UNL     1       0.713  11.261  18.404  0.00  0.00    +0.000 OA
ATOM     14  H   UNL     1       1.565  13.875  20.129  0.00  0.00    +0.000 HD
ATOM     15  H   UNL     1       1.456  12.511  19.159  0.00  0.00    +0.000 HD
ENDROOT
BRANCH   1  17
ATOM     16  C   UNL     1      -2.038  14.635  22.906  0.00  0.00    +0.000 C 
ATOM     17  O   UNL     1      -1.228  13.702  23.610  0.00  0.00    +0.000 OA
ENDBRANCH   1  17
BRANCH  12  18
ATOM     18  C   UNL     1       1.176   9.012  17.864  0.00  0.00    +0.000 C 
ATOM     19 CL   UNL     1       2.910   8.663  17.619  0.00  0.00    +0.000 Cl
ENDBRANCH  12  18
BRANCH  10  20
ATOM     20  C   UNL     1       1.884   7.338  20.349  0.00  0.00    +0.000 C 
BRANCH  20  21
ATOM     21  C   UNL     1       1.584   6.010  21.045  0.00  0.00    +0.000 C 
BRANCH  21  22
ATOM     22  C   UNL     1       1.858   4.838  20.121  0.00  0.00    +0.000 A 
ATOM     23  C   UNL     1       0.833   3.868  20.004  0.00  0.00    +0.000 A 
ATOM     24  C   UNL     1       0.998   2.692  19.270  0.00  0.00    +0.000 A 
ATOM     25  C   UNL     1       2.195   2.458  18.621  0.00  0.00    +0.000 A 
ATOM     26  C   UNL     1       3.221   3.395  18.722  0.00  0.00    +0.000 A 
ATOM     27  C   UNL     1       3.072   4.583  19.462  0.00  0.00    +0.000 A 
BRANCH  27  28
ATOM     28  O   UNL     1       4.235   5.298  19.518  0.00  0.00    +0.000 OA
ATOM     29  C   UNL     1       5.432   4.696  19.059  0.00  0.00    +0.000 C 
ENDBRANCH  27  28
ENDBRANCH  21  22
ENDBRANCH  20  21
ENDBRANCH  10  20
TORSDOF 6
ENDMDL
MODEL 5
REMARK VINA RESULT:      -7.0      0.934      1.022
REMARK  Name = 
REMARK  8 active torsions:
REMARK  status: ('A' for Active; 'I' for Inactive)
REMARK    1  A    between atoms: C_1  and  O_2
REMARK    2  A    between atoms: O_2  and  C_3
REMARK    3  A    between atoms: C_12  and  C_13
REMARK    4  A    between atoms: C_13  and  C_14
REMARK    5  A    between atoms: C_14  and  C_15
REMARK    6  A    between atoms: C_20  and  O_21
REMARK    7  A    between atoms: O_21  and  C_22
REMARK    8  A    between atoms: C_24  and  C_26
REMARK                            x       y       z     vdW  Elec       q    Type
REMARK                         _______ _______ _______ _____ _____    ______ ____
ROOT
ATOM      1  C   UNL     1       6.346   5.820  16.319  0.00  0.00    +0.000 A 
ATOM      2  N   UNL     1       6.447   4.841  17.224  0.00  0.00    +0.000 NA
ATOM      3  C   UNL     1       5.518   4.813  18.197  0.00  0.00    +0.000 A 
ATOM      4  N   UNL     1       5.790   3.856  19.182  0.00  0.00    +0.000 N 
ATOM      5  C   UNL     1       4.460   5.731  18.292  0.00  0.00    +0.000 A 
ATOM      6  C   UNL     1       4.499   6.731  17.314  0.00  0.00    +0.000 A 
ATOM      7  N   UNL     1       5.424   6.785  16.330  0.00  0.00    +0.000 NA
ATOM      8  C   UNL     1       3.511   7.864  17.287  0.00  0.00    +0.000 C 
ATOM      9  C   UNL     1       2.305   7.624  18.183  0.00  0.00    +0.000 C 
ATOM     10  C   UNL     1       2.801   7.068  19.524  0.00  0.00    +0.000 C 
ATOM     11  N   UNL     1       3.358   5.689  19.274  0.00  0.00    +0.000 N 
ATOM     12  C   UNL     1       2.779   4.427  19.521  0.00  0.00    +0.000 C 
ATOM     13  O   UNL     1       3.312   3.374  19.151  0.00  0.00    +0.000 OA
ATOM     14  H   UNL     1       6.540   3.271  18.825  0.00  0.00    +0.000 HD
ATOM     15  H   UNL     1       4.940   3.300  19.326  0.00  0.00    +0.000 HD
ENDROOT
BRANCH   1  17
ATOM     16  C   UNL     1       6.962   4.974  14.235  0.00  0.00    +0.000 C 
ATOM     17  O   UNL     1       7.248   5.894  15.281  0.00  0.00    +0.000 OA
ENDBRANCH   1  17
BRANCH  12  18
ATOM     18  C   UNL     1       1.468   4.325  20.272  0.00  0.00    +0.000 C 
ATOM     19 CL   UNL     1       1.302   2.757  21.111  0.00  0.00    +0.000 Cl
ENDBRANCH  12  18
BRANCH  10  20
ATOM     20  C   UNL     1       1.760   7.370  20.620  0.00  0.00    +0.000 C 
BRANCH  20  21
ATOM     21  C   UNL     1       0.386   7.816  20.116  0.00  0.00    +0.000 C 
BRANCH  21  22
ATOM     22  C   UNL     1       0.097   9.249  20.522  0.00  0.00    +0.000 A 
ATOM     23  C   UNL     1       0.166   9.543  21.906  0.00  0.00    +0.000 A 
ATOM     24  C   UNL     1      -0.178  10.795  22.420  0.00  0.00    +0.000 A 
ATOM     25  C   UNL     1      -0.593  11.793  21.560  0.00  0.00    +0.000 A 
ATOM     26  C   UNL     1      -0.672  11.529  20.195  0.00  0.00    +0.000 A 
ATOM     27  C   UNL     1      -0.334  10.272  19.661  0.00  0.00    +0.000 A 
BRANCH  27  28
ATOM     28  O   UNL     1      -0.593  10.201  18.322  0.00  0.00    +0.000 OA
ATOM     29  C   UNL     1      -1.476  11.145  17.744  0.00  0.00    +0.000 C 
ENDBRANCH  27  28
ENDBRANCH  21  22
ENDBRANCH  20  21
ENDBRANCH  10  20
TORSDOF 6
ENDMDL
MODEL 6
REMARK VINA RESULT:      -7.0      4.242      8.963
REMARK  Name = 
REMARK  8 active torsions:
REMARK  status: ('A' for Active; 'I' for Inactive)
REMARK    1  A    between atoms: C_1  and  O_2
REMARK    2  A    between atoms: O_2  and  C_3
REMARK    3  A    between atoms: C_12  and  C_13
REMARK    4  A    between atoms: C_13  and  C_14
REMARK    5  A    between atoms: C_14  and  C_15
REMARK    6  A    between atoms: C_20  and  O_21
REMARK    7  A    between atoms: O_21  and  C_22
REMARK    8  A    between atoms: C_24  and  C_26
REMARK                            x       y       z     vdW  Elec       q    Type
REMARK                         _______ _______ _______ _____ _____    ______ ____
ROOT
ATOM      1  C   UNL     1      -1.174  13.499  23.241  0.00  0.00    +0.000 A 
ATOM      2  N   UNL     1      -0.680  14.052  22.129  0.00  0.00    +0.000 NA
ATOM      3  C   UNL     1      -0.172  13.215  21.206  0.00  0.00    +0.000 A 
ATOM      4  N   UNL     1       0.460  13.885  20.152  0.00  0.00    +0.000 N 
ATOM      5  C   UNL     1      -0.154  11.817  21.346  0.00  0.00    +0.000 A 
ATOM      6  C   UNL     1      -0.654  11.373  22.575  0.00  0.00    +0.000 A 
ATOM      7  N   UNL     1      -1.166  12.194  23.520  0.00  0.00    +0.000 NA
ATOM      8  C   UNL     1      -0.645   9.921  22.966  0.00  0.00    +0.000 C 
ATOM      9  C   UNL     1      -0.373   8.991  21.793  0.00  0.00    +0.000 C 
ATOM     10  C   UNL     1       0.784   9.572  20.971  0.00  0.00    +0.000 C 
ATOM     11  N   UNL     1       0.297  10.847  20.328  0.00  0.00    +0.000 N 
ATOM     12  C   UNL     1      -0.120  11.083  19.002  0.00  0.00    +0.000 C 
ATOM     13  O   UNL     1      -0.610  12.163  18.647  0.00  0.00    +0.000 OA
ATOM     14  H   UNL     1       0.217  14.867  20.240  0.00  0.00    +0.000 HD
ATOM     15  H   UNL     1       0.096  13.504  19.271  0.00  0.00    +0.000 HD
ENDROOT
BRANCH   1  17
ATOM     16  C   UNL     1      -1.300  15.645  24.142  0.00  0.00    +0.000 C 
ATOM     17  O   UNL     1      -1.734  14.294  24.216  0.00  0.00    +0.000 OA
ENDBRANCH   1  17
BRANCH  12  18
ATOM     18  C   UNL     1       0.035  10.003  17.952  0.00  0.00    +0.000 C 
ATOM     19 CL   UNL     1      -1.486   9.718  17.060  0.00  0.00    +0.000 Cl
ENDBRANCH  12  18
BRANCH  10  20
ATOM     20  C   UNL     1       1.472   8.441  20.182  0.00  0.00    +0.000 C 
BRANCH  20  21
ATOM     21  C   UNL     1       1.463   7.070  20.860  0.00  0.00    +0.000 C 
BRANCH  21  22
ATOM     22  C   UNL     1       2.083   6.016  19.962  0.00  0.00    +0.000 A 
ATOM     23  C   UNL     1       2.722   6.479  18.786  0.00  0.00    +0.000 A 
ATOM     24  C   UNL     1       3.240   5.609  17.825  0.00  0.00    +0.000 A 
ATOM     25  C   UNL     1       3.142   4.244  18.020  0.00  0.00    +0.000 A 
ATOM     26  C   UNL     1       2.516   3.762  19.167  0.00  0.00    +0.000 A 
ATOM     27  C   UNL     1       1.984   4.626  20.142  0.00  0.00    +0.000 A 
BRANCH  27  28
ATOM     28  O   UNL     1       1.319   3.943  21.120  0.00  0.00    +0.000 OA
ATOM     29  C   UNL     1       1.846   2.709  21.573  0.00  0.00    +0.000 C 
ENDBRANCH  27  28
ENDBRANCH  21  22
ENDBRANCH  20  21
ENDBRANCH  10  20
TORSDOF 6
ENDMDL
MODEL 7
REMARK VINA RESULT:      -7.0      4.358      8.761
REMARK  Name = 
REMARK  8 active torsions:
REMARK  status: ('A' for Active; 'I' for Inactive)
REMARK    1  A    between atoms: C_1  and  O_2
REMARK    2  A    between atoms: O_2  and  C_3
REMARK    3  A    between atoms: C_12  and  C_13
REMARK    4  A    between atoms: C_13  and  C_14
REMARK    5  A    between atoms: C_14  and  C_15
REMARK    6  A    between atoms: C_20  and  O_21
REMARK    7  A    between atoms: O_21  and  C_22
REMARK    8  A    between atoms: C_24  and  C_26
REMARK                            x       y       z     vdW  Elec       q    Type
REMARK                         _______ _______ _______ _____ _____    ______ ____
ROOT
ATOM      1  C   UNL     1      -0.680  13.494  22.540  0.00  0.00    +0.000 A 
ATOM      2  N   UNL     1      -0.984  14.067  21.372  0.00  0.00    +0.000 NA
ATOM      3  C   UNL     1      -0.862  13.305  20.270  0.00  0.00    +0.000 A 
ATOM      4  N   UNL     1      -1.050  14.027  19.085  0.00  0.00    +0.000 N 
ATOM      5  C   UNL     1      -0.458  11.960  20.292  0.00  0.00    +0.000 A 
ATOM      6  C   UNL     1      -0.122  11.499  21.569  0.00  0.00    +0.000 A 
ATOM      7  N   UNL     1      -0.231  12.246  22.691  0.00  0.00    +0.000 NA
ATOM      8  C   UNL     1       0.420  10.117  21.805  0.00  0.00    +0.000 C 
ATOM      9  C   UNL     1       0.237   9.194  20.609  0.00  0.00    +0.000 C 
ATOM     10  C   UNL     1       0.622   9.964  19.340  0.00  0.00    +0.000 C 
ATOM     11  N   UNL     1      -0.403  11.050  19.130  0.00  0.00    +0.000 N 
ATOM     12  C   UNL     1      -1.495  11.096  18.240  0.00  0.00    +0.000 C 
ATOM     13  O   UNL     1      -2.328  12.011  18.264  0.00  0.00    +0.000 OA
ATOM     14  H   UNL     1      -1.425  14.933  19.349  0.00  0.00    +0.000 HD
ATOM     15  H   UNL     1      -1.725  13.515  18.506  0.00  0.00    +0.000 HD
ENDROOT
BRANCH   1  17
ATOM     16  C   UNL     1      -2.161  14.387  24.104  0.00  0.00    +0.000 C 
ATOM     17  O   UNL     1      -0.806  14.207  23.712  0.00  0.00    +0.000 OA
ENDBRANCH   1  17
BRANCH  12  18
ATOM     18  C   UNL     1      -1.675  10.009  17.199  0.00  0.00    +0.000 C 
ATOM     19 CL   UNL     1      -3.400   9.653  16.901  0.00  0.00    +0.000 Cl
ENDBRANCH  12  18
BRANCH  10  20
ATOM     20  C   UNL     1       1.029   8.965  18.238  0.00  0.00    +0.000 C 
BRANCH  20  21
ATOM     21  C   UNL     1       2.534   8.772  18.050  0.00  0.00    +0.000 C 
BRANCH  21  22
ATOM     22  C   UNL     1       2.939   7.339  18.342  0.00  0.00    +0.000 A 
ATOM     23  C   UNL     1       2.384   6.746  19.502  0.00  0.00    +0.000 A 
ATOM     24  C   UNL     1       2.754   5.473  19.940  0.00  0.00    +0.000 A 
ATOM     25  C   UNL     1       3.687   4.751  19.220  0.00  0.00    +0.000 A 
ATOM     26  C   UNL     1       4.250   5.312  18.076  0.00  0.00    +0.000 A 
ATOM     27  C   UNL     1       3.891   6.596  17.625  0.00  0.00    +0.000 A 
BRANCH  27  28
ATOM     28  O   UNL     1       4.646   6.990  16.556  0.00  0.00    +0.000 OA
ATOM     29  C   UNL     1       5.309   6.004  15.786  0.00  0.00    +0.000 C 
ENDBRANCH  27  28
ENDBRANCH  21  22
ENDBRANCH  20  21
ENDBRANCH  10  20
TORSDOF 6
ENDMDL
MODEL 8
REMARK VINA RESULT:      -6.9      4.238      8.764
REMARK  Name = 
REMARK  8 active torsions:
REMARK  status: ('A' for Active; 'I' for Inactive)
REMARK    1  A    between atoms: C_1  and  O_2
REMARK    2  A    between atoms: O_2  and  C_3
REMARK    3  A    between atoms: C_12  and  C_13
REMARK    4  A    between atoms: C_13  and  C_14
REMARK    5  A    between atoms: C_14  and  C_15
REMARK    6  A    between atoms: C_20  and  O_21
REMARK    7  A    between atoms: O_21  and  C_22
REMARK    8  A    between atoms: C_24  and  C_26
REMARK                            x       y       z     vdW  Elec       q    Type
REMARK                         _______ _______ _______ _____ _____    ______ ____
ROOT
ATOM      1  C   UNL     1      -1.198  13.436  23.178  0.00  0.00    +0.000 A 
ATOM      2  N   UNL     1      -0.787  13.990  22.033  0.00  0.00    +0.000 NA
ATOM      3  C   UNL     1      -0.308  13.158  21.092  0.00  0.00    +0.000 A 
ATOM      4  N   UNL     1       0.240  13.834  19.995  0.00  0.00    +0.000 N 
ATOM      5  C   UNL     1      -0.238  11.763  21.245  0.00  0.00    +0.000 A 
ATOM      6  C   UNL     1      -0.652  11.319  22.505  0.00  0.00    +0.000 A 
ATOM      7  N   UNL     1      -1.133  12.135  23.470  0.00  0.00    +0.000 NA
ATOM      8  C   UNL     1      -0.575   9.873  22.911  0.00  0.00    +0.000 C 
ATOM      9  C   UNL     1      -0.343   8.937  21.734  0.00  0.00    +0.000 C 
ATOM     10  C   UNL     1       0.746   9.543  20.839  0.00  0.00    +0.000 C 
ATOM     11  N   UNL     1       0.183  10.795  20.212  0.00  0.00    +0.000 N 
ATOM     12  C   UNL     1      -0.318  11.002  18.911  0.00  0.00    +0.000 C 
ATOM     13  O   UNL     1      -0.861  12.062  18.574  0.00  0.00    +0.000 OA
ATOM     14  H   UNL     1      -0.028  14.809  20.087  0.00  0.00    +0.000 HD
ATOM     15  H   UNL     1      -0.162  13.431  19.141  0.00  0.00    +0.000 HD
ENDROOT
BRANCH   1  17
ATOM     16  C   UNL     1      -2.871  14.954  23.756  0.00  0.00    +0.000 C 
ATOM     17  O   UNL     1      -1.725  14.226  24.177  0.00  0.00    +0.000 OA
ENDBRANCH   1  17
BRANCH  12  18
ATOM     18  C   UNL     1      -0.190   9.914  17.864  0.00  0.00    +0.000 C 
ATOM     19 CL   UNL     1      -1.702   9.702  16.937  0.00  0.00    +0.000 Cl
ENDBRANCH  12  18
BRANCH  10  20
ATOM     20  C   UNL     1       1.421   8.424  20.023  0.00  0.00    +0.000 C 
BRANCH  20  21
ATOM     21  C   UNL     1       1.845   7.192  20.825  0.00  0.00    +0.000 C 
BRANCH  21  22
ATOM     22  C   UNL     1       1.824   5.946  19.960  0.00  0.00    +0.000 A 
ATOM     23  C   UNL     1       1.166   4.812  20.495  0.00  0.00    +0.000 A 
ATOM     24  C   UNL     1       1.165   3.576  19.847  0.00  0.00    +0.000 A 
ATOM     25  C   UNL     1       1.816   3.442  18.635  0.00  0.00    +0.000 A 
ATOM     26  C   UNL     1       2.473   4.541  18.088  0.00  0.00    +0.000 A 
ATOM     27  C   UNL     1       2.488   5.792  18.731  0.00  0.00    +0.000 A 
BRANCH  27  28
ATOM     28  O   UNL     1       3.282   6.692  18.077  0.00  0.00    +0.000 OA
ATOM     29  C   UNL     1       4.316   6.210  17.238  0.00  0.00    +0.000 C 
ENDBRANCH  27  28
ENDBRANCH  21  22
ENDBRANCH  20  21
ENDBRANCH  10  20
TORSDOF 6
ENDMDL
MODEL 9
REMARK VINA RESULT:      -6.7      1.303      1.473
REMARK  Name = 
REMARK  8 active torsions:
REMARK  status: ('A' for Active; 'I' for Inactive)
REMARK    1  A    between atoms: C_1  and  O_2
REMARK    2  A    between atoms: O_2  and  C_3
REMARK    3  A    between atoms: C_12  and  C_13
REMARK    4  A    between atoms: C_13  and  C_14
REMARK    5  A    between atoms: C_14  and  C_15
REMARK    6  A    between atoms: C_20  and  O_21
REMARK    7  A    between atoms: O_21  and  C_22
REMARK    8  A    between atoms: C_24  and  C_26
REMARK                            x       y       z     vdW  Elec       q    Type
REMARK                         _______ _______ _______ _____ _____    ______ ____
ROOT
ATOM      1  C   UNL     1       6.201   4.667  15.221  0.00  0.00    +0.000 A 
ATOM      2  N   UNL     1       5.895   3.630  16.007  0.00  0.00    +0.000 NA
ATOM      3  C   UNL     1       4.988   3.848  16.977  0.00  0.00    +0.000 A 
ATOM      4  N   UNL     1       4.845   2.758  17.844  0.00  0.00    +0.000 N 
ATOM      5  C   UNL     1       4.348   5.081  17.184  0.00  0.00    +0.000 A 
ATOM      6  C   UNL     1       4.795   6.093  16.328  0.00  0.00    +0.000 A 
ATOM      7  N   UNL     1       5.708   5.901  15.349  0.00  0.00    +0.000 NA
ATOM      8  C   UNL     1       4.307   7.510  16.438  0.00  0.00    +0.000 C 
ATOM      9  C   UNL     1       3.067   7.646  17.309  0.00  0.00    +0.000 C 
ATOM     10  C   UNL     1       3.268   6.802  18.574  0.00  0.00    +0.000 C 
ATOM     11  N   UNL     1       3.276   5.350  18.163  0.00  0.00    +0.000 N 
ATOM     12  C   UNL     1       2.258   4.381  18.268  0.00  0.00    +0.000 C 
ATOM     13  O   UNL     1       2.370   3.251  17.776  0.00  0.00    +0.000 OA
ATOM     14  H   UNL     1       5.333   1.977  17.416  0.00  0.00    +0.000 HD
ATOM     15  H   UNL     1       3.843   2.551  17.929  0.00  0.00    +0.000 HD
ENDROOT
BRANCH   1  17
ATOM     16  C   UNL     1       6.537   3.862  13.059  0.00  0.00    +0.000 C 
ATOM     17  O   UNL     1       7.102   4.509  14.191  0.00  0.00    +0.000 OA
ENDBRANCH   1  17
BRANCH  12  18
ATOM     18  C   UNL     1       0.978   4.699  19.012  0.00  0.00    +0.000 C 
ATOM     19 CL   UNL     1       1.025   4.114  20.699  0.00  0.00    +0.000 Cl
ENDBRANCH  12  18
BRANCH  10  20
ATOM     20  C   UNL     1       2.377   7.352  19.705  0.00  0.00    +0.000 C 
BRANCH  20  21
ATOM     21  C   UNL     1       1.568   8.602  19.354  0.00  0.00    +0.000 C 
BRANCH  21  22
ATOM     22  C   UNL     1       0.906   9.185  20.588  0.00  0.00    +0.000 A 
ATOM     23  C   UNL     1       0.285   8.267  21.470  0.00  0.00    +0.000 A 
ATOM     24  C   UNL     1      -0.446   8.681  22.585  0.00  0.00    +0.000 A 
ATOM     25  C   UNL     1      -0.569  10.030  22.855  0.00  0.00    +0.000 A 
ATOM     26  C   UNL     1       0.029  10.955  22.002  0.00  0.00    +0.000 A 
ATOM     27  C   UNL     1       0.766  10.554  20.872  0.00  0.00    +0.000 A 
BRANCH  27  28
ATOM     28  O   UNL     1       1.166  11.622  20.120  0.00  0.00    +0.000 OA
ATOM     29  C   UNL     1       0.303  12.108  19.107  0.00  0.00    +0.000 C 
ENDBRANCH  27  28
ENDBRANCH  21  22
ENDBRANCH  20  21
ENDBRANCH  10  20
TORSDOF 6
ENDMDL
