MODEL 1
REMARK VINA RESULT:      -6.6      0.000      0.000
REMARK  Name = 
REMARK  5 active torsions:
REMARK  status: ('A' for Active; 'I' for Inactive)
REMARK    1  A    between atoms: O_1  and  C_2
REMARK    2  A    between atoms: C_2  and  C_3
REMARK    3  A    between atoms: C_3  and  C_4
REMARK    4  A    between atoms: N_6  and  C_7
REMARK    5  A    between atoms: N_13  and  C_14
REMARK                            x       y       z     vdW  Elec       q    Type
REMARK                         _______ _______ _______ _____ _____    ______ ____
ROOT
ATOM      1  C   UNL     1       5.203   5.227  18.503  0.00  0.00    +0.000 C 
ATOM      2  C   UNL     1       5.196   3.832  19.205  0.00  0.00    +0.000 C 
ATOM      3  N   UNL     1       3.892   3.122  19.167  0.00  0.00    +0.000 NA
ATOM      4  C   UNL     1       3.344   3.173  17.794  0.00  0.00    +0.000 C 
ATOM      5  C   UNL     1       3.436   4.537  17.067  0.00  0.00    +0.000 C 
ATOM      6  N   UNL     1       4.791   5.156  17.068  0.00  0.00    +0.000 NA
ENDROOT
BRANCH   6   7
ATOM      7  C   UNL     1       5.691   4.477  16.105  0.00  0.00    +0.000 C 
ATOM      8  C   UNL     1       4.999   4.236  14.744  0.00  0.00    +0.000 C 
ATOM      9  C   UNL     1       6.141   3.873  13.810  0.00  0.00    +0.000 C 
ATOM     10  C   UNL     1       7.254   4.822  14.209  0.00  0.00    +0.000 C 
ATOM     11  C   UNL     1       6.963   5.225  15.659  0.00  0.00    +0.000 C 
ENDBRANCH   6   7
BRANCH   3  12
ATOM     12  C   UNL     1       2.962   3.691  20.161  0.00  0.00    +0.000 C 
ATOM     13  C   UNL     1       1.491   3.344  19.806  0.00  0.00    +0.000 C 
ATOM     14  C   UNL     1       1.296   2.868  21.255  0.00  0.00    +0.000 C 
ATOM     15  C   UNL     1       2.821   2.684  21.341  0.00  0.00    +0.000 C 
ENDBRANCH   3  12
BRANCH   1  16
ATOM     16  C   UNL     1       6.477   6.045  18.786  0.00  0.00    +0.000 C 
BRANCH  16  17
ATOM     17  C   UNL     1       7.664   5.182  19.207  0.00  0.00    +0.000 C 
BRANCH  17  18
ATOM     18  O   UNL     1       7.984   5.472  20.563  0.00  0.00    +0.000 OA
ATOM     19  H   UNL     1       8.939   5.324  20.670  0.00  0.00    +0.000 HD
ENDBRANCH  17  18
ENDBRANCH  16  17
ENDBRANCH   1  16
TORSDOF 5
ENDMDL
MODEL 2
REMARK VINA RESULT:      -6.5      0.920      1.344
REMARK  Name = 
REMARK  5 active torsions:
REMARK  status: ('A' for Active; 'I' for Inactive)
REMARK    1  A    between atoms: O_1  and  C_2
REMARK    2  A    between atoms: C_2  and  C_3
REMARK    3  A    between atoms: C_3  and  C_4
REMARK    4  A    between atoms: N_6  and  C_7
REMARK    5  A    between atoms: N_13  and  C_14
REMARK                            x       y       z     vdW  Elec       q    Type
REMARK                         _______ _______ _______ _____ _____    ______ ____
ROOT
ATOM      1  C   UNL     1       5.263   4.871  18.730  0.00  0.00    +0.000 C 
ATOM      2  C   UNL     1       4.402   3.568  18.679  0.00  0.00    +0.000 C 
ATOM      3  N   UNL     1       2.938   3.784  18.798  0.00  0.00    +0.000 NA
ATOM      4  C   UNL     1       2.527   4.881  17.896  0.00  0.00    +0.000 C 
ATOM      5  C   UNL     1       3.435   6.136  17.881  0.00  0.00    +0.000 C 
ATOM      6  N   UNL     1       4.884   5.858  17.674  0.00  0.00    +0.000 NA
ENDROOT
BRANCH   6   7
ATOM      7  C   UNL     1       5.167   5.523  16.257  0.00  0.00    +0.000 C 
ATOM      8  C   UNL     1       6.633   5.828  15.877  0.00  0.00    +0.000 C 
ATOM      9  C   UNL     1       6.825   5.114  14.549  0.00  0.00    +0.000 C 
ATOM     10  C   UNL     1       6.095   3.798  14.734  0.00  0.00    +0.000 C 
ATOM     11  C   UNL     1       5.054   4.045  15.831  0.00  0.00    +0.000 C 
ENDBRANCH   6   7
BRANCH   3  12
ATOM     12  C   UNL     1       2.563   4.044  20.201  0.00  0.00    +0.000 C 
ATOM     13  C   UNL     1       1.053   3.769  20.432  0.00  0.00    +0.000 C 
ATOM     14  C   UNL     1       1.436   2.919  21.654  0.00  0.00    +0.000 C 
ATOM     15  C   UNL     1       2.834   2.757  21.034  0.00  0.00    +0.000 C 
ENDBRANCH   3  12
BRANCH   1  16
ATOM     16  C   UNL     1       6.772   4.599  18.872  0.00  0.00    +0.000 C 
BRANCH  16  17
ATOM     17  C   UNL     1       7.545   5.788  19.440  0.00  0.00    +0.000 C 
BRANCH  17  18
ATOM     18  O   UNL     1       8.128   5.405  20.680  0.00  0.00    +0.000 OA
ATOM     19  H   UNL     1       8.426   6.219  21.121  0.00  0.00    +0.000 HD
ENDBRANCH  17  18
ENDBRANCH  16  17
ENDBRANCH   1  16
TORSDOF 5
ENDMDL
MODEL 3
REMARK VINA RESULT:      -6.2      1.966      3.579
REMARK  Name = 
REMARK  5 active torsions:
REMARK  status: ('A' for Active; 'I' for Inactive)
REMARK    1  A    between atoms: O_1  and  C_2
REMARK    2  A    between atoms: C_2  and  C_3
REMARK    3  A    between atoms: C_3  and  C_4
REMARK    4  A    between atoms: N_6  and  C_7
REMARK    5  A    between atoms: N_13  and  C_14
REMARK                            x       y       z     vdW  Elec       q    Type
REMARK                         _______ _______ _______ _____ _____    ______ ____
ROOT
ATOM      1  C   UNL     1       4.940   4.722  17.009  0.00  0.00    +0.000 C 
ATOM      2  C   UNL     1       3.571   5.274  17.523  0.00  0.00    +0.000 C 
ATOM      3  N   UNL     1       3.089   4.664  18.788  0.00  0.00    +0.000 NA
ATOM      4  C   UNL     1       4.195   4.625  19.769  0.00  0.00    +0.000 C 
ATOM      5  C   UNL     1       5.573   4.165  19.234  0.00  0.00    +0.000 C 
ATOM      6  N   UNL     1       6.039   4.875  18.010  0.00  0.00    +0.000 NA
ENDROOT
BRANCH   6   7
ATOM      7  C   UNL     1       6.518   6.241  18.334  0.00  0.00    +0.000 C 
ATOM      8  C   UNL     1       8.002   6.242  18.762  0.00  0.00    +0.000 C 
ATOM      9  C   UNL     1       8.400   7.708  18.708  0.00  0.00    +0.000 C 
ATOM     10  C   UNL     1       7.722   8.222  17.452  0.00  0.00    +0.000 C 
ATOM     11  C   UNL     1       6.538   7.283  17.198  0.00  0.00    +0.000 C 
ENDBRANCH   6   7
BRANCH   3  12
ATOM     12  C   UNL     1       2.519   3.326  18.536  0.00  0.00    +0.000 C 
ATOM     13  C   UNL     1       1.745   2.810  19.778  0.00  0.00    +0.000 C 
ATOM     14  C   UNL     1       0.563   2.478  18.853  0.00  0.00    +0.000 C 
ATOM     15  C   UNL     1       1.131   3.500  17.852  0.00  0.00    +0.000 C 
ENDBRANCH   3  12
BRANCH   1  16
ATOM     16  C   UNL     1       5.281   5.174  15.578  0.00  0.00    +0.000 C 
BRANCH  16  17
ATOM     17  C   UNL     1       6.332   4.295  14.904  0.00  0.00    +0.000 C 
BRANCH  17  18
ATOM     18  O   UNL     1       7.625   4.774  15.257  0.00  0.00    +0.000 OA
ATOM     19  H   UNL     1       7.617   5.738  15.131  0.00  0.00    +0.000 HD
ENDBRANCH  17  18
ENDBRANCH  16  17
ENDBRANCH   1  16
TORSDOF 5
ENDMDL
MODEL 4
REMARK VINA RESULT:      -6.2      0.885      5.351
REMARK  Name = 
REMARK  5 active torsions:
REMARK  status: ('A' for Active; 'I' for Inactive)
REMARK    1  A    between atoms: O_1  and  C_2
REMARK    2  A    between atoms: C_2  and  C_3
REMARK    3  A    between atoms: C_3  and  C_4
REMARK    4  A    between atoms: N_6  and  C_7
REMARK    5  A    between atoms: N_13  and  C_14
REMARK                            x       y       z     vdW  Elec       q    Type
REMARK                         _______ _______ _______ _____ _____    ______ ____
ROOT
ATOM      1  C   UNL     1       5.408   4.405  18.484  0.00  0.00    +0.000 C 
ATOM      2  C   UNL     1       4.958   5.200  17.217  0.00  0.00    +0.000 C 
ATOM      3  N   UNL     1       4.627   4.359  16.038  0.00  0.00    +0.000 NA
ATOM      4  C   UNL     1       3.755   3.241  16.460  0.00  0.00    +0.000 C 
ATOM      5  C   UNL     1       4.154   2.514  17.768  0.00  0.00    +0.000 C 
ATOM      6  N   UNL     1       4.390   3.408  18.935  0.00  0.00    +0.000 NA
ENDROOT
BRANCH   6   7
ATOM      7  C   UNL     1       3.109   3.907  19.494  0.00  0.00    +0.000 C 
ATOM      8  C   UNL     1       1.895   3.146  18.916  0.00  0.00    +0.000 C 
ATOM      9  C   UNL     1       0.747   3.531  19.834  0.00  0.00    +0.000 C 
ATOM     10  C   UNL     1       1.368   3.516  21.218  0.00  0.00    +0.000 C 
ATOM     11  C   UNL     1       2.871   3.734  21.008  0.00  0.00    +0.000 C 
ENDBRANCH   6   7
BRANCH   3  12
ATOM     12  C   UNL     1       5.858   3.888  15.375  0.00  0.00    +0.000 C 
ATOM     13  C   UNL     1       5.746   4.030  13.833  0.00  0.00    +0.000 C 
ATOM     14  C   UNL     1       7.115   4.731  13.839  0.00  0.00    +0.000 C 
ATOM     15  C   UNL     1       6.874   5.067  15.321  0.00  0.00    +0.000 C 
ENDBRANCH   3  12
BRANCH   1  16
ATOM     16  C   UNL     1       5.992   5.301  19.591  0.00  0.00    +0.000 C 
BRANCH  16  17
ATOM     17  C   UNL     1       7.471   5.624  19.384  0.00  0.00    +0.000 C 
BRANCH  17  18
ATOM     18  O   UNL     1       8.157   5.442  20.617  0.00  0.00    +0.000 OA
ATOM     19  H   UNL     1       7.482   5.303  21.303  0.00  0.00    +0.000 HD
ENDBRANCH  17  18
ENDBRANCH  16  17
ENDBRANCH   1  16
TORSDOF 5
ENDMDL
MODEL 5
REMARK VINA RESULT:      -6.0      2.498      2.957
REMARK  Name = 
REMARK  5 active torsions:
REMARK  status: ('A' for Active; 'I' for Inactive)
REMARK    1  A    between atoms: O_1  and  C_2
REMARK    2  A    between atoms: C_2  and  C_3
REMARK    3  A    between atoms: C_3  and  C_4
REMARK    4  A    between atoms: N_6  and  C_7
REMARK    5  A    between atoms: N_13  and  C_14
REMARK                            x       y       z     vdW  Elec       q    Type
REMARK                         _______ _______ _______ _____ _____    ______ ____
ROOT
ATOM      1  C   UNL     1       3.283   6.155  18.056  0.00  0.00    +0.000 C 
ATOM      2  C   UNL     1       3.859   5.712  19.439  0.00  0.00    +0.000 C 
ATOM      3  N   UNL     1       3.623   4.287  19.784  0.00  0.00    +0.000 NA
ATOM      4  C   UNL     1       3.965   3.436  18.624  0.00  0.00    +0.000 C 
ATOM      5  C   UNL     1       3.469   3.927  17.241  0.00  0.00    +0.000 C 
ATOM      6  N   UNL     1       3.811   5.341  16.920  0.00  0.00    +0.000 NA
ENDROOT
BRANCH   6   7
ATOM      7  C   UNL     1       5.244   5.475  16.558  0.00  0.00    +0.000 C 
ATOM      8  C   UNL     1       6.063   4.237  16.985  0.00  0.00    +0.000 C 
ATOM      9  C   UNL     1       7.379   4.391  16.241  0.00  0.00    +0.000 C 
ATOM     10  C   UNL     1       6.965   4.890  14.870  0.00  0.00    +0.000 C 
ATOM     11  C   UNL     1       5.601   5.562  15.060  0.00  0.00    +0.000 C 
ENDBRANCH   6   7
BRANCH   3  12
ATOM     12  C   UNL     1       2.232   4.085  20.235  0.00  0.00    +0.000 C 
ATOM     13  C   UNL     1       1.798   2.607  20.047  0.00  0.00    +0.000 C 
ATOM     14  C   UNL     1       1.297   2.611  21.500  0.00  0.00    +0.000 C 
ATOM     15  C   UNL     1       2.245   3.794  21.765  0.00  0.00    +0.000 C 
ENDBRANCH   3  12
BRANCH   1  16
ATOM     16  C   UNL     1       3.308   7.680  17.846  0.00  0.00    +0.000 C 
BRANCH  16  17
ATOM     17  C   UNL     1       1.955   8.344  18.099  0.00  0.00    +0.000 C 
BRANCH  17  18
ATOM     18  O   UNL     1       1.892   9.554  17.353  0.00  0.00    +0.000 OA
ATOM     19  H   UNL     1       1.342  10.175  17.861  0.00  0.00    +0.000 HD
ENDBRANCH  17  18
ENDBRANCH  16  17
ENDBRANCH   1  16
TORSDOF 5
ENDMDL
MODEL 6
REMARK VINA RESULT:      -5.9      2.959      3.831
REMARK  Name = 
REMARK  5 active torsions:
REMARK  status: ('A' for Active; 'I' for Inactive)
REMARK    1  A    between atoms: O_1  and  C_2
REMARK    2  A    between atoms: C_2  and  C_3
REMARK    3  A    between atoms: C_3  and  C_4
REMARK    4  A    between atoms: N_6  and  C_7
REMARK    5  A    between atoms: N_13  and  C_14
REMARK                            x       y       z     vdW  Elec       q    Type
REMARK                         _______ _______ _______ _____ _____    ______ ____
ROOT
ATOM      1  C   UNL     1       3.026   6.351  17.999  0.00  0.00    +0.000 C 
ATOM      2  C   UNL     1       2.589   6.274  19.497  0.00  0.00    +0.000 C 
ATOM      3  N   UNL     1       2.467   4.897  20.040  0.00  0.00    +0.000 NA
ATOM      4  C   UNL     1       3.660   4.110  19.659  0.00  0.00    +0.000 C 
ATOM      5  C   UNL     1       4.145   4.260  18.196  0.00  0.00    +0.000 C 
ATOM      6  N   UNL     1       4.329   5.666  17.739  0.00  0.00    +0.000 NA
ENDROOT
BRANCH   6   7
ATOM      7  C   UNL     1       5.565   6.256  18.307  0.00  0.00    +0.000 C 
ATOM      8  C   UNL     1       6.632   5.178  18.605  0.00  0.00    +0.000 C 
ATOM      9  C   UNL     1       7.906   5.974  18.833  0.00  0.00    +0.000 C 
ATOM     10  C   UNL     1       7.852   7.059  17.774  0.00  0.00    +0.000 C 
ATOM     11  C   UNL     1       6.370   7.229  17.422  0.00  0.00    +0.000 C 
ENDBRANCH   6   7
BRANCH   3  12
ATOM     12  C   UNL     1       1.213   4.267  19.582  0.00  0.00    +0.000 C 
ATOM     13  C   UNL     1       1.453   3.418  18.305  0.00  0.00    +0.000 C 
ATOM     14  C   UNL     1       0.711   2.257  18.986  0.00  0.00    +0.000 C 
ATOM     15  C   UNL     1       1.033   2.917  20.338  0.00  0.00    +0.000 C 
ENDBRANCH   3  12
BRANCH   1  16
ATOM     16  C   UNL     1       2.887   7.760  17.395  0.00  0.00    +0.000 C 
BRANCH  16  17
ATOM     17  C   UNL     1       1.988   8.681  18.219  0.00  0.00    +0.000 C 
BRANCH  17  18
ATOM     18  O   UNL     1       1.749   9.871  17.478  0.00  0.00    +0.000 OA
ATOM     19  H   UNL     1       2.434  10.512  17.735  0.00  0.00    +0.000 HD
ENDBRANCH  17  18
ENDBRANCH  16  17
ENDBRANCH   1  16
TORSDOF 5
ENDMDL
MODEL 7
REMARK VINA RESULT:      -5.8      2.543      3.476
REMARK  Name = 
REMARK  5 active torsions:
REMARK  status: ('A' for Active; 'I' for Inactive)
REMARK    1  A    between atoms: O_1  and  C_2
REMARK    2  A    between atoms: C_2  and  C_3
REMARK    3  A    between atoms: C_3  and  C_4
REMARK    4  A    between atoms: N_6  and  C_7
REMARK    5  A    between atoms: N_13  and  C_14
REMARK                            x       y       z     vdW  Elec       q    Type
REMARK                         _______ _______ _______ _____ _____    ______ ____
ROOT
ATOM      1  C   UNL     1       3.672   6.121  17.788  0.00  0.00    +0.000 C 
ATOM      2  C   UNL     1       3.800   5.714  19.291  0.00  0.00    +0.000 C 
ATOM      3  N   UNL     1       3.680   4.257  19.554  0.00  0.00    +0.000 NA
ATOM      4  C   UNL     1       4.524   3.513  18.595  0.00  0.00    +0.000 C 
ATOM      5  C   UNL     1       4.463   3.979  17.119  0.00  0.00    +0.000 C 
ATOM      6  N   UNL     1       4.675   5.439  16.915  0.00  0.00    +0.000 NA
ENDROOT
BRANCH   6   7
ATOM      7  C   UNL     1       6.106   5.799  17.067  0.00  0.00    +0.000 C 
ATOM      8  C   UNL     1       6.310   7.329  17.140  0.00  0.00    +0.000 C 
ATOM      9  C   UNL     1       7.737   7.487  17.637  0.00  0.00    +0.000 C 
ATOM     10  C   UNL     1       7.876   6.409  18.695  0.00  0.00    +0.000 C 
ATOM     11  C   UNL     1       6.830   5.344  18.351  0.00  0.00    +0.000 C 
ENDBRANCH   6   7
BRANCH   3  12
ATOM     12  C   UNL     1       2.267   3.834  19.501  0.00  0.00    +0.000 C 
ATOM     13  C   UNL     1       2.097   2.399  20.067  0.00  0.00    +0.000 C 
ATOM     14  C   UNL     1       0.950   2.925  20.946  0.00  0.00    +0.000 C 
ATOM     15  C   UNL     1       1.552   4.332  20.792  0.00  0.00    +0.000 C 
ENDBRANCH   3  12
BRANCH   1  16
ATOM     16  C   UNL     1       3.535   7.640  17.578  0.00  0.00    +0.000 C 
BRANCH  16  17
ATOM     17  C   UNL     1       2.157   8.178  17.961  0.00  0.00    +0.000 C 
BRANCH  17  18
ATOM     18  O   UNL     1       1.980   9.455  17.360  0.00  0.00    +0.000 OA
ATOM     19  H   UNL     1       1.162   9.834  17.726  0.00  0.00    +0.000 HD
ENDBRANCH  17  18
ENDBRANCH  16  17
ENDBRANCH   1  16
TORSDOF 5
ENDMDL
MODEL 8
REMARK VINA RESULT:      -5.8      2.180      2.570
REMARK  Name = 
REMARK  5 active torsions:
REMARK  status: ('A' for Active; 'I' for Inactive)
REMARK    1  A    between atoms: O_1  and  C_2
REMARK    2  A    between atoms: C_2  and  C_3
REMARK    3  A    between atoms: C_3  and  C_4
REMARK    4  A    between atoms: N_6  and  C_7
REMARK    5  A    between atoms: N_13  and  C_14
REMARK                            x       y       z     vdW  Elec       q    Type
REMARK                         _______ _______ _______ _____ _____    ______ ____
ROOT
ATOM      1  C   UNL     1       3.501   5.401  17.837  0.00  0.00    +0.000 C 
ATOM      2  C   UNL     1       4.089   4.969  19.218  0.00  0.00    +0.000 C 
ATOM      3  N   UNL     1       3.623   3.647  19.708  0.00  0.00    +0.000 NA
ATOM      4  C   UNL     1       3.714   2.656  18.613  0.00  0.00    +0.000 C 
ATOM      5  C   UNL     1       3.214   3.120  17.223  0.00  0.00    +0.000 C 
ATOM      6  N   UNL     1       3.784   4.413  16.752  0.00  0.00    +0.000 NA
ENDROOT
BRANCH   6   7
ATOM      7  C   UNL     1       5.185   4.245  16.294  0.00  0.00    +0.000 C 
ATOM      8  C   UNL     1       5.390   4.788  14.863  0.00  0.00    +0.000 C 
ATOM      9  C   UNL     1       6.900   4.857  14.708  0.00  0.00    +0.000 C 
ATOM     10  C   UNL     1       7.380   5.375  16.050  0.00  0.00    +0.000 C 
ATOM     11  C   UNL     1       6.286   5.007  17.058  0.00  0.00    +0.000 C 
ENDBRANCH   6   7
BRANCH   3  12
ATOM     12  C   UNL     1       2.257   3.748  20.257  0.00  0.00    +0.000 C 
ATOM     13  C   UNL     1       1.562   2.360  20.273  0.00  0.00    +0.000 C 
ATOM     14  C   UNL     1       1.182   2.612  21.741  0.00  0.00    +0.000 C 
ATOM     15  C   UNL     1       2.337   3.627  21.808  0.00  0.00    +0.000 C 
ENDBRANCH   3  12
BRANCH   1  16
ATOM     16  C   UNL     1       3.788   6.872  17.485  0.00  0.00    +0.000 C 
BRANCH  16  17
ATOM     17  C   UNL     1       2.861   7.853  18.200  0.00  0.00    +0.000 C 
BRANCH  17  18
ATOM     18  O   UNL     1       2.308   8.745  17.239  0.00  0.00    +0.000 OA
ATOM     19  H   UNL     1       1.775   8.210  16.625  0.00  0.00    +0.000 HD
ENDBRANCH  17  18
ENDBRANCH  16  17
ENDBRANCH   1  16
TORSDOF 5
ENDMDL
MODEL 9
REMARK VINA RESULT:      -5.8      1.859      5.573
REMARK  Name = 
REMARK  5 active torsions:
REMARK  status: ('A' for Active; 'I' for Inactive)
REMARK    1  A    between atoms: O_1  and  C_2
REMARK    2  A    between atoms: C_2  and  C_3
REMARK    3  A    between atoms: C_3  and  C_4
REMARK    4  A    between atoms: N_6  and  C_7
REMARK    5  A    between atoms: N_13  and  C_14
REMARK                            x       y       z     vdW  Elec       q    Type
REMARK                         _______ _______ _______ _____ _____    ______ ____
ROOT
ATOM      1  C   UNL     1       6.960   4.513  17.166  0.00  0.00    +0.000 C 
ATOM      2  C   UNL     1       7.177   5.623  16.088  0.00  0.00    +0.000 C 
ATOM      3  N   UNL     1       6.427   5.418  14.823  0.00  0.00    +0.000 NA
ATOM      4  C   UNL     1       5.025   5.064  15.133  0.00  0.00    +0.000 C 
ATOM      5  C   UNL     1       4.811   4.031  16.267  0.00  0.00    +0.000 C 
ATOM      6  N   UNL     1       5.523   4.339  17.538  0.00  0.00    +0.000 NA
ENDROOT
BRANCH   6   7
ATOM      7  C   UNL     1       4.845   5.430  18.279  0.00  0.00    +0.000 C 
ATOM      8  C   UNL     1       3.651   6.007  17.488  0.00  0.00    +0.000 C 
ATOM      9  C   UNL     1       2.891   6.831  18.514  0.00  0.00    +0.000 C 
ATOM     10  C   UNL     1       2.940   5.982  19.770  0.00  0.00    +0.000 C 
ATOM     11  C   UNL     1       4.167   5.076  19.618  0.00  0.00    +0.000 C 
ENDBRANCH   6   7
BRANCH   3  12
ATOM     12  C   UNL     1       7.088   4.397  13.987  0.00  0.00    +0.000 C 
ATOM     13  C   UNL     1       6.073   3.728  13.022  0.00  0.00    +0.000 C 
ATOM     14  C   UNL     1       7.059   3.986  11.871  0.00  0.00    +0.000 C 
ATOM     15  C   UNL     1       7.687   5.097  12.731  0.00  0.00    +0.000 C 
ENDBRANCH   3  12
BRANCH   1  16
ATOM     16  C   UNL     1       7.942   4.611  18.348  0.00  0.00    +0.000 C 
BRANCH  16  17
ATOM     17  C   UNL     1       7.774   5.891  19.164  0.00  0.00    +0.000 C 
BRANCH  17  18
ATOM     18  O   UNL     1       7.931   5.579  20.543  0.00  0.00    +0.000 OA
ATOM     19  H   UNL     1       8.426   4.743  20.594  0.00  0.00    +0.000 HD
ENDBRANCH  17  18
ENDBRANCH  16  17
ENDBRANCH   1  16
TORSDOF 5
ENDMDL
