MODEL 1
REMARK VINA RESULT:      -7.9      0.000      0.000
REMARK  Name = 
REMARK  6 active torsions:
REMARK  status: ('A' for Active; 'I' for Inactive)
REMARK    1  A    between atoms: N_2  and  C_3
REMARK    2  A    between atoms: C_8  and  C_9
REMARK    3  A    between atoms: C_15  and  C_17
REMARK    4  A    between atoms: C_17  and  C_18
REMARK    5  A    between atoms: C_21  and  N_22
REMARK    6  A    between atoms: C_33  and  C_34
REMARK                            x       y       z     vdW  Elec       q    Type
REMARK                         _______ _______ _______ _____ _____    ______ ____
ROOT
ATOM      1  C   UNL     1       0.802   9.248  19.155  0.00  0.00    +0.000 C 
ATOM      2  C   UNL     1       1.521   8.376  20.213  0.00  0.00    +0.000 C 
ATOM      3  N   UNL     1       2.046   7.212  19.474  0.00  0.00    +0.000 NA
ATOM      4  C   UNL     1       2.313   6.021  20.262  0.00  0.00    +0.000 C 
ATOM      5  C   UNL     1       3.249   4.950  19.654  0.00  0.00    +0.000 C 
ATOM      6  N   UNL     1       4.167   5.436  18.625  0.00  0.00    +0.000 N 
ATOM      7  C   UNL     1       5.334   4.719  18.407  0.00  0.00    +0.000 C 
ATOM      8  O   UNL     1       5.617   3.717  19.073  0.00  0.00    +0.000 OA
ATOM      9  C   UNL     1       3.579   6.407  17.694  0.00  0.00    +0.000 C 
ATOM     10  C   UNL     1       3.041   7.623  18.468  0.00  0.00    +0.000 C 
ATOM     11  C   UNL     1       2.364   8.622  17.499  0.00  0.00    +0.000 C 
ATOM     12  O   UNL     1       1.769   9.730  18.200  0.00  0.00    +0.000 OA
ENDROOT
BRANCH   1  18
ATOM     13  C   UNL     1      -2.089  11.746  19.459  0.00  0.00    +0.000 A 
ATOM     14  C   UNL     1      -1.607  12.628  20.418  0.00  0.00    +0.000 A 
ATOM     15  F   UNL     1      -2.332  13.679  20.814  0.00  0.00    +0.000 F 
ATOM     16  C   UNL     1      -0.345  12.425  20.974  0.00  0.00    +0.000 A 
ATOM     17  C   UNL     1       0.427  11.333  20.571  0.00  0.00    +0.000 A 
ATOM     18  C   UNL     1      -0.045  10.427  19.600  0.00  0.00    +0.000 A 
ATOM     19  C   UNL     1      -1.329  10.659  19.013  0.00  0.00    +0.000 A 
ATOM     20  C   UNL     1      -1.900   9.783  17.921  0.00  0.00    +0.000 C 
BRANCH  13  22
ATOM     21  C   UNL     1      -4.474  12.146  18.590  0.00  0.00    +0.000 C 
ATOM     22  N   UNL     1      -3.375  11.963  18.971  0.00  0.00    +0.000 NA
ENDBRANCH  13  22
ENDBRANCH   1  18
BRANCH   7  23
ATOM     23  C   UNL     1       6.295   5.177  17.330  0.00  0.00    +0.000 C 
BRANCH  23  24
ATOM     24  C   UNL     1       7.004   6.442  17.717  0.00  0.00    +0.000 A 
ATOM     25  C   UNL     1       7.932   6.463  18.756  0.00  0.00    +0.000 A 
ATOM     26  N   UNL     1       8.611   7.581  19.114  0.00  0.00    +0.000 NA
ATOM     27  C   UNL     1       8.327   8.700  18.393  0.00  0.00    +0.000 A 
ATOM     28  C   UNL     1       7.393   8.688  17.365  0.00  0.00    +0.000 A 
ATOM     29  N   UNL     1       6.720   7.564  17.007  0.00  0.00    +0.000 NA
BRANCH  27  30
ATOM     30  N   UNL     1       8.998   9.898  18.704  0.00  0.00    +0.000 N 
ATOM     31  C   UNL     1       9.206  10.977  17.888  0.00  0.00    +0.000 A 
ATOM     32  N   UNL     1       9.905  11.879  18.539  0.00  0.00    +0.000 NA
ATOM     33  N   UNL     1      10.118  11.356  19.789  0.00  0.00    +0.000 NA
ATOM     34  N   UNL     1       9.561  10.157  19.907  0.00  0.00    +0.000 NA
ENDBRANCH  27  30
ENDBRANCH  23  24
ENDBRANCH   7  23
TORSDOF 5
ENDMDL
MODEL 2
REMARK VINA RESULT:      -7.9      0.690      1.116
REMARK  Name = 
REMARK  6 active torsions:
REMARK  status: ('A' for Active; 'I' for Inactive)
REMARK    1  A    between atoms: N_2  and  C_3
REMARK    2  A    between atoms: C_8  and  C_9
REMARK    3  A    between atoms: C_15  and  C_17
REMARK    4  A    between atoms: C_17  and  C_18
REMARK    5  A    between atoms: C_21  and  N_22
REMARK    6  A    between atoms: C_33  and  C_34
REMARK                            x       y       z     vdW  Elec       q    Type
REMARK                         _______ _______ _______ _____ _____    ______ ____
ROOT
ATOM      1  C   UNL     1       0.882   9.044  19.283  0.00  0.00    +0.000 C 
ATOM      2  C   UNL     1       1.617   8.210  20.362  0.00  0.00    +0.000 C 
ATOM      3  N   UNL     1       2.067   6.985  19.674  0.00  0.00    +0.000 NA
ATOM      4  C   UNL     1       2.327   5.834  20.522  0.00  0.00    +0.000 C 
ATOM      5  C   UNL     1       3.197   4.694  19.942  0.00  0.00    +0.000 C 
ATOM      6  N   UNL     1       4.084   5.082  18.846  0.00  0.00    +0.000 N 
ATOM      7  C   UNL     1       5.214   4.309  18.624  0.00  0.00    +0.000 C 
ATOM      8  O   UNL     1       5.491   3.340  19.338  0.00  0.00    +0.000 OA
ATOM      9  C   UNL     1       3.490   6.017  17.883  0.00  0.00    +0.000 C 
ATOM     10  C   UNL     1       3.031   7.297  18.603  0.00  0.00    +0.000 C 
ATOM     11  C   UNL     1       2.346   8.261  17.604  0.00  0.00    +0.000 C 
ATOM     12  O   UNL     1       1.823   9.431  18.260  0.00  0.00    +0.000 OA
ENDROOT
BRANCH   1  18
ATOM     13  C   UNL     1      -1.868  11.704  19.497  0.00  0.00    +0.000 A 
ATOM     14  C   UNL     1      -1.346  12.583  20.438  0.00  0.00    +0.000 A 
ATOM     15  F   UNL     1      -2.015  13.682  20.800  0.00  0.00    +0.000 F 
ATOM     16  C   UNL     1      -0.102  12.325  21.009  0.00  0.00    +0.000 A 
ATOM     17  C   UNL     1       0.613  11.183  20.641  0.00  0.00    +0.000 A 
ATOM     18  C   UNL     1       0.099  10.279  19.690  0.00  0.00    +0.000 A 
ATOM     19  C   UNL     1      -1.166  10.565  19.085  0.00  0.00    +0.000 A 
ATOM     20  C   UNL     1      -1.776   9.694  18.012  0.00  0.00    +0.000 C 
BRANCH  13  22
ATOM     21  C   UNL     1      -4.222  12.207  18.596  0.00  0.00    +0.000 C 
ATOM     22  N   UNL     1      -3.137  11.978  18.992  0.00  0.00    +0.000 NA
ENDBRANCH  13  22
ENDBRANCH   1  18
BRANCH   7  23
ATOM     23  C   UNL     1       6.142   4.665  17.481  0.00  0.00    +0.000 C 
BRANCH  23  24
ATOM     24  C   UNL     1       6.817   5.987  17.702  0.00  0.00    +0.000 A 
ATOM     25  C   UNL     1       6.500   7.102  16.928  0.00  0.00    +0.000 A 
ATOM     26  N   UNL     1       7.070   8.317  17.119  0.00  0.00    +0.000 NA
ATOM     27  C   UNL     1       7.988   8.388  18.121  0.00  0.00    +0.000 A 
ATOM     28  C   UNL     1       8.319   7.277  18.887  0.00  0.00    +0.000 A 
ATOM     29  N   UNL     1       7.740   6.063  18.695  0.00  0.00    +0.000 NA
BRANCH  27  30
ATOM     30  N   UNL     1       8.617   9.620  18.381  0.00  0.00    +0.000 N 
ATOM     31  C   UNL     1       9.434   9.937  19.434  0.00  0.00    +0.000 A 
ATOM     32  N   UNL     1       9.790  11.198  19.336  0.00  0.00    +0.000 NA
ATOM     33  N   UNL     1       9.198  11.665  18.190  0.00  0.00    +0.000 NA
ATOM     34  N   UNL     1       8.492  10.712  17.594  0.00  0.00    +0.000 NA
ENDBRANCH  27  30
ENDBRANCH  23  24
ENDBRANCH   7  23
TORSDOF 5
ENDMDL
MODEL 3
REMARK VINA RESULT:      -7.7      2.955      4.858
REMARK  Name = 
REMARK  6 active torsions:
REMARK  status: ('A' for Active; 'I' for Inactive)
REMARK    1  A    between atoms: N_2  and  C_3
REMARK    2  A    between atoms: C_8  and  C_9
REMARK    3  A    between atoms: C_15  and  C_17
REMARK    4  A    between atoms: C_17  and  C_18
REMARK    5  A    between atoms: C_21  and  N_22
REMARK    6  A    between atoms: C_33  and  C_34
REMARK                            x       y       z     vdW  Elec       q    Type
REMARK                         _______ _______ _______ _____ _____    ______ ____
ROOT
ATOM      1  C   UNL     1       0.404   9.371  19.019  0.00  0.00    +0.000 C 
ATOM      2  C   UNL     1       1.129   8.638  20.174  0.00  0.00    +0.000 C 
ATOM      3  N   UNL     1       1.854   7.522  19.538  0.00  0.00    +0.000 NA
ATOM      4  C   UNL     1       2.195   6.405  20.403  0.00  0.00    +0.000 C 
ATOM      5  C   UNL     1       3.304   5.438  19.927  0.00  0.00    +0.000 C 
ATOM      6  N   UNL     1       4.243   5.995  18.953  0.00  0.00    +0.000 N 
ATOM      7  C   UNL     1       5.502   5.422  18.868  0.00  0.00    +0.000 C 
ATOM      8  O   UNL     1       5.846   4.491  19.603  0.00  0.00    +0.000 OA
ATOM      9  C   UNL     1       3.624   6.848  17.931  0.00  0.00    +0.000 C 
ATOM     10  C   UNL     1       2.877   8.016  18.598  0.00  0.00    +0.000 C 
ATOM     11  C   UNL     1       2.170   8.883  17.529  0.00  0.00    +0.000 C 
ATOM     12  O   UNL     1       1.385   9.934  18.123  0.00  0.00    +0.000 OA
ENDROOT
BRANCH   1  18
ATOM     13  C   UNL     1      -2.709  11.600  18.851  0.00  0.00    +0.000 A 
ATOM     14  C   UNL     1      -2.500  12.469  19.915  0.00  0.00    +0.000 A 
ATOM     15  F   UNL     1      -3.379  13.433  20.201  0.00  0.00    +0.000 F 
ATOM     16  C   UNL     1      -1.351  12.343  20.694  0.00  0.00    +0.000 A 
ATOM     17  C   UNL     1      -0.419  11.342  20.408  0.00  0.00    +0.000 A 
ATOM     18  C   UNL     1      -0.616  10.451  19.334  0.00  0.00    +0.000 A 
ATOM     19  C   UNL     1      -1.782  10.605  18.520  0.00  0.00    +0.000 A 
ATOM     20  C   UNL     1      -2.056   9.742  17.310  0.00  0.00    +0.000 C 
BRANCH  13  22
ATOM     21  C   UNL     1      -4.888  11.876  17.516  0.00  0.00    +0.000 C 
ATOM     22  N   UNL     1      -3.896  11.734  18.134  0.00  0.00    +0.000 NA
ENDBRANCH  13  22
ENDBRANCH   1  18
BRANCH   7  23
ATOM     23  C   UNL     1       6.491   5.956  17.851  0.00  0.00    +0.000 C 
BRANCH  23  24
ATOM     24  C   UNL     1       6.368   5.251  16.532  0.00  0.00    +0.000 A 
ATOM     25  C   UNL     1       5.367   4.310  16.303  0.00  0.00    +0.000 A 
ATOM     26  N   UNL     1       5.210   3.676  15.115  0.00  0.00    +0.000 NA
ATOM     27  C   UNL     1       6.104   4.010  14.144  0.00  0.00    +0.000 A 
ATOM     28  C   UNL     1       7.113   4.937  14.371  0.00  0.00    +0.000 A 
ATOM     29  N   UNL     1       7.262   5.574  15.561  0.00  0.00    +0.000 NA
BRANCH  27  30
ATOM     30  N   UNL     1       5.999   3.396  12.883  0.00  0.00    +0.000 N 
ATOM     31  C   UNL     1       4.857   3.115  12.181  0.00  0.00    +0.000 A 
ATOM     32  N   UNL     1       5.180   2.507  11.062  0.00  0.00    +0.000 NA
ATOM     33  N   UNL     1       6.550   2.427  11.062  0.00  0.00    +0.000 NA
ATOM     34  N   UNL     1       7.060   2.976  12.157  0.00  0.00    +0.000 NA
ENDBRANCH  27  30
ENDBRANCH  23  24
ENDBRANCH   7  23
TORSDOF 5
ENDMDL
MODEL 4
REMARK VINA RESULT:      -7.5      4.693     11.086
REMARK  Name = 
REMARK  6 active torsions:
REMARK  status: ('A' for Active; 'I' for Inactive)
REMARK    1  A    between atoms: N_2  and  C_3
REMARK    2  A    between atoms: C_8  and  C_9
REMARK    3  A    between atoms: C_15  and  C_17
REMARK    4  A    between atoms: C_17  and  C_18
REMARK    5  A    between atoms: C_21  and  N_22
REMARK    6  A    between atoms: C_33  and  C_34
REMARK                            x       y       z     vdW  Elec       q    Type
REMARK                         _______ _______ _______ _____ _____    ______ ____
ROOT
ATOM      1  C   UNL     1       1.653   6.946  19.744  0.00  0.00    +0.000 C 
ATOM      2  C   UNL     1       2.143   8.258  19.085  0.00  0.00    +0.000 C 
ATOM      3  N   UNL     1       1.059   9.235  19.299  0.00  0.00    +0.000 NA
ATOM      4  C   UNL     1       1.021  10.361  18.381  0.00  0.00    +0.000 C 
ATOM      5  C   UNL     1       0.214  11.610  18.806  0.00  0.00    +0.000 C 
ATOM      6  N   UNL     1       0.009  11.760  20.246  0.00  0.00    +0.000 N 
ATOM      7  C   UNL     1      -0.228  13.036  20.736  0.00  0.00    +0.000 C 
ATOM      8  O   UNL     1      -0.239  14.026  19.998  0.00  0.00    +0.000 OA
ATOM      9  C   UNL     1      -0.287  10.508  20.953  0.00  0.00    +0.000 C 
ATOM     10  C   UNL     1       0.850   9.496  20.735  0.00  0.00    +0.000 C 
ATOM     11  C   UNL     1       0.515   8.152  21.425  0.00  0.00    +0.000 C 
ATOM     12  O   UNL     1       1.517   7.151  21.166  0.00  0.00    +0.000 OA
ENDROOT
BRANCH   1  18
ATOM     13  C   UNL     1       4.076   4.354  18.296  0.00  0.00    +0.000 A 
ATOM     14  C   UNL     1       3.860   3.261  19.126  0.00  0.00    +0.000 A 
ATOM     15  F   UNL     1       4.524   2.116  18.946  0.00  0.00    +0.000 F 
ATOM     16  C   UNL     1       2.928   3.351  20.159  0.00  0.00    +0.000 A 
ATOM     17  C   UNL     1       2.222   4.539  20.361  0.00  0.00    +0.000 A 
ATOM     18  C   UNL     1       2.430   5.659  19.530  0.00  0.00    +0.000 A 
ATOM     19  C   UNL     1       3.366   5.549  18.453  0.00  0.00    +0.000 A 
ATOM     20  C   UNL     1       3.617   6.669  17.469  0.00  0.00    +0.000 C 
BRANCH  13  22
ATOM     21  C   UNL     1       5.883   4.097  16.486  0.00  0.00    +0.000 C 
ATOM     22  N   UNL     1       5.053   4.231  17.310  0.00  0.00    +0.000 NA
ENDBRANCH  13  22
ENDBRANCH   1  18
BRANCH   7  23
ATOM     23  C   UNL     1      -0.472  13.226  22.219  0.00  0.00    +0.000 C 
BRANCH  23  24
ATOM     24  C   UNL     1      -1.933  13.161  22.556  0.00  0.00    +0.000 A 
ATOM     25  C   UNL     1      -2.459  12.105  23.297  0.00  0.00    +0.000 A 
ATOM     26  N   UNL     1      -3.768  12.030  23.644  0.00  0.00    +0.000 NA
ATOM     27  C   UNL     1      -4.553  13.055  23.215  0.00  0.00    +0.000 A 
ATOM     28  C   UNL     1      -4.037  14.103  22.463  0.00  0.00    +0.000 A 
ATOM     29  N   UNL     1      -2.723  14.177  22.124  0.00  0.00    +0.000 NA
BRANCH  27  30
ATOM     30  N   UNL     1      -5.922  13.047  23.541  0.00  0.00    +0.000 N 
ATOM     31  C   UNL     1      -6.676  14.088  24.014  0.00  0.00    +0.000 A 
ATOM     32  N   UNL     1      -7.902  13.667  24.229  0.00  0.00    +0.000 NA
ATOM     33  N   UNL     1      -7.912  12.344  23.865  0.00  0.00    +0.000 NA
ATOM     34  N   UNL     1      -6.717  11.959  23.433  0.00  0.00    +0.000 NA
ENDBRANCH  27  30
ENDBRANCH  23  24
ENDBRANCH   7  23
TORSDOF 5
ENDMDL
MODEL 5
REMARK VINA RESULT:      -7.4      4.815     10.907
REMARK  Name = 
REMARK  6 active torsions:
REMARK  status: ('A' for Active; 'I' for Inactive)
REMARK    1  A    between atoms: N_2  and  C_3
REMARK    2  A    between atoms: C_8  and  C_9
REMARK    3  A    between atoms: C_15  and  C_17
REMARK    4  A    between atoms: C_17  and  C_18
REMARK    5  A    between atoms: C_21  and  N_22
REMARK    6  A    between atoms: C_33  and  C_34
REMARK                            x       y       z     vdW  Elec       q    Type
REMARK                         _______ _______ _______ _____ _____    ______ ____
ROOT
ATOM      1  C   UNL     1       2.168   7.285  18.607  0.00  0.00    +0.000 C 
ATOM      2  C   UNL     1       2.097   8.730  18.055  0.00  0.00    +0.000 C 
ATOM      3  N   UNL     1       0.901   9.331  18.674  0.00  0.00    +0.000 NA
ATOM      4  C   UNL     1       0.320  10.465  17.976  0.00  0.00    +0.000 C 
ATOM      5  C   UNL     1      -0.632  11.389  18.771  0.00  0.00    +0.000 C 
ATOM      6  N   UNL     1      -0.460  11.362  20.223  0.00  0.00    +0.000 N 
ATOM      7  C   UNL     1      -0.873  12.472  20.945  0.00  0.00    +0.000 C 
ATOM      8  O   UNL     1      -1.345  13.470  20.391  0.00  0.00    +0.000 OA
ATOM      9  C   UNL     1      -0.213  10.027  20.782  0.00  0.00    +0.000 C 
ATOM     10  C   UNL     1       1.040   9.408  20.140  0.00  0.00    +0.000 C 
ATOM     11  C   UNL     1       1.270   7.976  20.679  0.00  0.00    +0.000 C 
ATOM     12  O   UNL     1       2.384   7.331  20.033  0.00  0.00    +0.000 OA
ENDROOT
BRANCH   1  18
ATOM     13  C   UNL     1       3.934   4.016  17.669  0.00  0.00    +0.000 A 
ATOM     14  C   UNL     1       5.014   4.475  16.926  0.00  0.00    +0.000 A 
ATOM     15  F   UNL     1       5.905   3.624  16.407  0.00  0.00    +0.000 F 
ATOM     16  C   UNL     1       5.182   5.843  16.723  0.00  0.00    +0.000 A 
ATOM     17  C   UNL     1       4.263   6.747  17.260  0.00  0.00    +0.000 A 
ATOM     18  C   UNL     1       3.160   6.300  18.015  0.00  0.00    +0.000 A 
ATOM     19  C   UNL     1       3.010   4.896  18.245  0.00  0.00    +0.000 A 
ATOM     20  C   UNL     1       1.898   4.319  19.091  0.00  0.00    +0.000 C 
BRANCH  13  22
ATOM     21  C   UNL     1       3.683   1.470  17.922  0.00  0.00    +0.000 C 
ATOM     22  N   UNL     1       3.781   2.638  17.802  0.00  0.00    +0.000 NA
ENDBRANCH  13  22
ENDBRANCH   1  18
BRANCH   7  23
ATOM     23  C   UNL     1      -0.735  12.468  22.453  0.00  0.00    +0.000 C 
BRANCH  23  24
ATOM     24  C   UNL     1      -1.459  13.623  23.082  0.00  0.00    +0.000 A 
ATOM     25  C   UNL     1      -2.846  13.625  23.213  0.00  0.00    +0.000 A 
ATOM     26  N   UNL     1      -3.528  14.639  23.801  0.00  0.00    +0.000 NA
ATOM     27  C   UNL     1      -2.771  15.674  24.257  0.00  0.00    +0.000 A 
ATOM     28  C   UNL     1      -1.389  15.685  24.116  0.00  0.00    +0.000 A 
ATOM     29  N   UNL     1      -0.710  14.663  23.531  0.00  0.00    +0.000 NA
BRANCH  27  30
ATOM     30  N   UNL     1      -3.411  16.760  24.884  0.00  0.00    +0.000 N 
ATOM     31  C   UNL     1      -4.757  16.964  25.037  0.00  0.00    +0.000 A 
ATOM     32  N   UNL     1      -4.950  18.112  25.645  0.00  0.00    +0.000 NA
ATOM     33  N   UNL     1      -3.699  18.620  25.890  0.00  0.00    +0.000 NA
ATOM     34  N   UNL     1      -2.755  17.801  25.444  0.00  0.00    +0.000 NA
ENDBRANCH  27  30
ENDBRANCH  23  24
ENDBRANCH   7  23
TORSDOF 5
ENDMDL
MODEL 6
REMARK VINA RESULT:      -7.3      1.318      1.772
REMARK  Name = 
REMARK  6 active torsions:
REMARK  status: ('A' for Active; 'I' for Inactive)
REMARK    1  A    between atoms: N_2  and  C_3
REMARK    2  A    between atoms: C_8  and  C_9
REMARK    3  A    between atoms: C_15  and  C_17
REMARK    4  A    between atoms: C_17  and  C_18
REMARK    5  A    between atoms: C_21  and  N_22
REMARK    6  A    between atoms: C_33  and  C_34
REMARK                            x       y       z     vdW  Elec       q    Type
REMARK                         _______ _______ _______ _____ _____    ______ ____
ROOT
ATOM      1  C   UNL     1       1.020   9.116  19.202  0.00  0.00    +0.000 C 
ATOM      2  C   UNL     1       1.686   8.255  20.303  0.00  0.00    +0.000 C 
ATOM      3  N   UNL     1       2.090   7.003  19.634  0.00  0.00    +0.000 NA
ATOM      4  C   UNL     1       2.272   5.848  20.496  0.00  0.00    +0.000 C 
ATOM      5  C   UNL     1       3.097   4.661  19.944  0.00  0.00    +0.000 C 
ATOM      6  N   UNL     1       4.029   4.996  18.868  0.00  0.00    +0.000 N 
ATOM      7  C   UNL     1       5.123   4.166  18.678  0.00  0.00    +0.000 C 
ATOM      8  O   UNL     1       5.335   3.190  19.404  0.00  0.00    +0.000 OA
ATOM      9  C   UNL     1       3.505   5.952  17.885  0.00  0.00    +0.000 C 
ATOM     10  C   UNL     1       3.093   7.259  18.585  0.00  0.00    +0.000 C 
ATOM     11  C   UNL     1       2.482   8.248  17.563  0.00  0.00    +0.000 C 
ATOM     12  O   UNL     1       2.002   9.447  18.199  0.00  0.00    +0.000 OA
ENDROOT
BRANCH   1  18
ATOM     13  C   UNL     1      -1.081  11.670  21.138  0.00  0.00    +0.000 A 
ATOM     14  C   UNL     1      -1.079  12.759  20.275  0.00  0.00    +0.000 A 
ATOM     15  F   UNL     1      -1.725  13.886  20.586  0.00  0.00    +0.000 F 
ATOM     16  C   UNL     1      -0.400  12.676  19.060  0.00  0.00    +0.000 A 
ATOM     17  C   UNL     1       0.279  11.505  18.718  0.00  0.00    +0.000 A 
ATOM     18  C   UNL     1       0.289  10.392  19.581  0.00  0.00    +0.000 A 
ATOM     19  C   UNL     1      -0.434  10.472  20.813  0.00  0.00    +0.000 A 
ATOM     20  C   UNL     1      -0.536   9.315  21.780  0.00  0.00    +0.000 C 
BRANCH  13  22
ATOM     21  C   UNL     1      -2.280  11.977  23.391  0.00  0.00    +0.000 C 
ATOM     22  N   UNL     1      -1.729  11.819  22.362  0.00  0.00    +0.000 NA
ENDBRANCH  13  22
ENDBRANCH   1  18
BRANCH   7  23
ATOM     23  C   UNL     1       6.094   4.467  17.555  0.00  0.00    +0.000 C 
BRANCH  23  24
ATOM     24  C   UNL     1       6.775   5.791  17.746  0.00  0.00    +0.000 A 
ATOM     25  C   UNL     1       6.489   6.879  16.924  0.00  0.00    +0.000 A 
ATOM     26  N   UNL     1       7.064   8.096  17.087  0.00  0.00    +0.000 NA
ATOM     27  C   UNL     1       7.956   8.196  18.110  0.00  0.00    +0.000 A 
ATOM     28  C   UNL     1       8.257   7.111  18.923  0.00  0.00    +0.000 A 
ATOM     29  N   UNL     1       7.673   5.895  18.760  0.00  0.00    +0.000 NA
BRANCH  27  30
ATOM     30  N   UNL     1       8.589   9.431  18.342  0.00  0.00    +0.000 N 
ATOM     31  C   UNL     1       8.529  10.561  17.570  0.00  0.00    +0.000 A 
ATOM     32  N   UNL     1       9.286  11.489  18.109  0.00  0.00    +0.000 NA
ATOM     33  N   UNL     1       9.810  10.931  19.247  0.00  0.00    +0.000 NA
ATOM     34  N   UNL     1       9.383   9.684  19.407  0.00  0.00    +0.000 NA
ENDBRANCH  27  30
ENDBRANCH  23  24
ENDBRANCH   7  23
TORSDOF 5
ENDMDL
MODEL 7
REMARK VINA RESULT:      -7.2      4.708     11.072
REMARK  Name = 
REMARK  6 active torsions:
REMARK  status: ('A' for Active; 'I' for Inactive)
REMARK    1  A    between atoms: N_2  and  C_3
REMARK    2  A    between atoms: C_8  and  C_9
REMARK    3  A    between atoms: C_15  and  C_17
REMARK    4  A    between atoms: C_17  and  C_18
REMARK    5  A    between atoms: C_21  and  N_22
REMARK    6  A    between atoms: C_33  and  C_34
REMARK                            x       y       z     vdW  Elec       q    Type
REMARK                         _______ _______ _______ _____ _____    ______ ____
ROOT
ATOM      1  C   UNL     1       2.247   7.658  18.549  0.00  0.00    +0.000 C 
ATOM      2  C   UNL     1       2.514   9.112  18.089  0.00  0.00    +0.000 C 
ATOM      3  N   UNL     1       1.330   9.884  18.512  0.00  0.00    +0.000 NA
ATOM      4  C   UNL     1       1.083  11.121  17.793  0.00  0.00    +0.000 C 
ATOM      5  C   UNL     1       0.152  12.165  18.455  0.00  0.00    +0.000 C 
ATOM      6  N   UNL     1       0.031  12.060  19.908  0.00  0.00    +0.000 N 
ATOM      7  C   UNL     1      -0.334  13.199  20.611  0.00  0.00    +0.000 C 
ATOM      8  O   UNL     1      -0.526  14.280  20.045  0.00  0.00    +0.000 OA
ATOM      9  C   UNL     1      -0.050  10.685  20.415  0.00  0.00    +0.000 C 
ATOM     10  C   UNL     1       1.191   9.887  19.980  0.00  0.00    +0.000 C 
ATOM     11  C   UNL     1       1.083   8.419  20.457  0.00  0.00    +0.000 C 
ATOM     12  O   UNL     1       2.185   7.619  19.990  0.00  0.00    +0.000 OA
ENDROOT
BRANCH   1  18
ATOM     13  C   UNL     1       3.759   4.179  18.003  0.00  0.00    +0.000 A 
ATOM     14  C   UNL     1       4.889   4.471  17.248  0.00  0.00    +0.000 A 
ATOM     15  F   UNL     1       5.717   3.504  16.844  0.00  0.00    +0.000 F 
ATOM     16  C   UNL     1       5.172   5.793  16.911  0.00  0.00    +0.000 A 
ATOM     17  C   UNL     1       4.318   6.818  17.325  0.00  0.00    +0.000 A 
ATOM     18  C   UNL     1       3.167   6.541  18.090  0.00  0.00    +0.000 A 
ATOM     19  C   UNL     1       2.899   5.185  18.458  0.00  0.00    +0.000 A 
ATOM     20  C   UNL     1       1.726   4.788  19.326  0.00  0.00    +0.000 C 
BRANCH  13  22
ATOM     21  C   UNL     1       3.294   1.698  18.483  0.00  0.00    +0.000 C 
ATOM     22  N   UNL     1       3.492   2.839  18.271  0.00  0.00    +0.000 NA
ENDBRANCH  13  22
ENDBRANCH   1  18
BRANCH   7  23
ATOM     23  C   UNL     1      -0.496  13.121  22.115  0.00  0.00    +0.000 C 
BRANCH  23  24
ATOM     24  C   UNL     1      -1.941  13.069  22.518  0.00  0.00    +0.000 A 
ATOM     25  C   UNL     1      -2.318  12.831  23.838  0.00  0.00    +0.000 A 
ATOM     26  N   UNL     1      -3.612  12.806  24.242  0.00  0.00    +0.000 NA
ATOM     27  C   UNL     1      -4.538  13.022  23.268  0.00  0.00    +0.000 A 
ATOM     28  C   UNL     1      -4.170  13.246  21.948  0.00  0.00    +0.000 A 
ATOM     29  N   UNL     1      -2.871  13.276  21.550  0.00  0.00    +0.000 NA
BRANCH  27  30
ATOM     30  N   UNL     1      -5.902  13.016  23.615  0.00  0.00    +0.000 N 
ATOM     31  C   UNL     1      -6.711  14.096  23.853  0.00  0.00    +0.000 A 
ATOM     32  N   UNL     1      -7.909  13.670  24.181  0.00  0.00    +0.000 NA
ATOM     33  N   UNL     1      -7.848  12.301  24.128  0.00  0.00    +0.000 NA
ATOM     34  N   UNL     1      -6.636  11.891  23.772  0.00  0.00    +0.000 NA
ENDBRANCH  27  30
ENDBRANCH  23  24
ENDBRANCH   7  23
TORSDOF 5
ENDMDL
MODEL 8
REMARK VINA RESULT:      -7.2      1.251      1.410
REMARK  Name = 
REMARK  6 active torsions:
REMARK  status: ('A' for Active; 'I' for Inactive)
REMARK    1  A    between atoms: N_2  and  C_3
REMARK    2  A    between atoms: C_8  and  C_9
REMARK    3  A    between atoms: C_15  and  C_17
REMARK    4  A    between atoms: C_17  and  C_18
REMARK    5  A    between atoms: C_21  and  N_22
REMARK    6  A    between atoms: C_33  and  C_34
REMARK                            x       y       z     vdW  Elec       q    Type
REMARK                         _______ _______ _______ _____ _____    ______ ____
ROOT
ATOM      1  C   UNL     1       0.746   8.643  20.288  0.00  0.00    +0.000 C 
ATOM      2  C   UNL     1       1.676   7.665  21.047  0.00  0.00    +0.000 C 
ATOM      3  N   UNL     1       2.126   6.686  20.039  0.00  0.00    +0.000 NA
ATOM      4  C   UNL     1       2.581   5.404  20.550  0.00  0.00    +0.000 C 
ATOM      5  C   UNL     1       3.454   4.528  19.621  0.00  0.00    +0.000 C 
ATOM      6  N   UNL     1       4.160   5.250  18.564  0.00  0.00    +0.000 N 
ATOM      7  C   UNL     1       5.308   4.674  18.041  0.00  0.00    +0.000 C 
ATOM      8  O   UNL     1       5.748   3.600  18.465  0.00  0.00    +0.000 OA
ATOM      9  C   UNL     1       3.376   6.315  17.926  0.00  0.00    +0.000 C 
ATOM     10  C   UNL     1       2.916   7.337  18.979  0.00  0.00    +0.000 C 
ATOM     11  C   UNL     1       2.036   8.429  18.322  0.00  0.00    +0.000 C 
ATOM     12  O   UNL     1       1.513   9.353  19.294  0.00  0.00    +0.000 OA
ENDROOT
BRANCH   1  18
ATOM     13  C   UNL     1      -1.621  11.540  21.120  0.00  0.00    +0.000 A 
ATOM     14  C   UNL     1      -1.576  11.559  22.508  0.00  0.00    +0.000 A 
ATOM     15  F   UNL     1      -2.279  12.455  23.208  0.00  0.00    +0.000 F 
ATOM     16  C   UNL     1      -0.780  10.639  23.187  0.00  0.00    +0.000 A 
ATOM     17  C   UNL     1      -0.037   9.697  22.472  0.00  0.00    +0.000 A 
ATOM     18  C   UNL     1      -0.071   9.661  21.063  0.00  0.00    +0.000 A 
ATOM     19  C   UNL     1      -0.868  10.628  20.372  0.00  0.00    +0.000 A 
ATOM     20  C   UNL     1      -0.926  10.713  18.864  0.00  0.00    +0.000 C 
BRANCH  13  22
ATOM     21  C   UNL     1      -3.212  13.204  19.977  0.00  0.00    +0.000 C 
ATOM     22  N   UNL     1      -2.470  12.446  20.489  0.00  0.00    +0.000 NA
ENDBRANCH  13  22
ENDBRANCH   1  18
BRANCH   7  23
ATOM     23  C   UNL     1       6.050   5.380  16.926  0.00  0.00    +0.000 C 
BRANCH  23  24
ATOM     24  C   UNL     1       6.821   6.564  17.432  0.00  0.00    +0.000 A 
ATOM     25  C   UNL     1       7.766   6.433  18.447  0.00  0.00    +0.000 A 
ATOM     26  N   UNL     1       8.501   7.476  18.908  0.00  0.00    +0.000 NA
ATOM     27  C   UNL     1       8.254   8.678  18.320  0.00  0.00    +0.000 A 
ATOM     28  C   UNL     1       7.302   8.818  17.317  0.00  0.00    +0.000 A 
ATOM     29  N   UNL     1       6.574   7.768  16.855  0.00  0.00    +0.000 NA
BRANCH  27  30
ATOM     30  N   UNL     1       8.983   9.805  18.743  0.00  0.00    +0.000 N 
ATOM     31  C   UNL     1       9.262  10.186  20.029  0.00  0.00    +0.000 A 
ATOM     32  N   UNL     1       9.936  11.314  20.005  0.00  0.00    +0.000 NA
ATOM     33  N   UNL     1      10.094  11.627  18.679  0.00  0.00    +0.000 NA
ATOM     34  N   UNL     1       9.530  10.711  17.901  0.00  0.00    +0.000 NA
ENDBRANCH  27  30
ENDBRANCH  23  24
ENDBRANCH   7  23
TORSDOF 5
ENDMDL
MODEL 9
REMARK VINA RESULT:      -7.1      4.624      8.597
REMARK  Name = 
REMARK  6 active torsions:
REMARK  status: ('A' for Active; 'I' for Inactive)
REMARK    1  A    between atoms: N_2  and  C_3
REMARK    2  A    between atoms: C_8  and  C_9
REMARK    3  A    between atoms: C_15  and  C_17
REMARK    4  A    between atoms: C_17  and  C_18
REMARK    5  A    between atoms: C_21  and  N_22
REMARK    6  A    between atoms: C_33  and  C_34
REMARK                            x       y       z     vdW  Elec       q    Type
REMARK                         _______ _______ _______ _____ _____    ______ ____
ROOT
ATOM      1  C   UNL     1       2.294   7.032  19.349  0.00  0.00    +0.000 C 
ATOM      2  C   UNL     1       1.181   7.177  20.415  0.00  0.00    +0.000 C 
ATOM      3  N   UNL     1       1.273   8.569  20.896  0.00  0.00    +0.000 NA
ATOM      4  C   UNL     1       0.711   8.831  22.209  0.00  0.00    +0.000 C 
ATOM      5  C   UNL     1       0.384  10.299  22.572  0.00  0.00    +0.000 C 
ATOM      6  N   UNL     1       0.175  11.192  21.434  0.00  0.00    +0.000 N 
ATOM      7  C   UNL     1      -0.594  12.328  21.635  0.00  0.00    +0.000 C 
ATOM      8  O   UNL     1      -1.116  12.577  22.726  0.00  0.00    +0.000 OA
ATOM      9  C   UNL     1       1.100  10.977  20.314  0.00  0.00    +0.000 C 
ATOM     10  C   UNL     1       0.994   9.528  19.811  0.00  0.00    +0.000 C 
ATOM     11  C   UNL     1       2.011   9.277  18.672  0.00  0.00    +0.000 C 
ATOM     12  O   UNL     1       2.003   7.904  18.237  0.00  0.00    +0.000 OA
ENDROOT
BRANCH   1  18
ATOM     13  C   UNL     1       3.979   4.224  17.359  0.00  0.00    +0.000 A 
ATOM     14  C   UNL     1       3.243   3.112  17.750  0.00  0.00    +0.000 A 
ATOM     15  F   UNL     1       3.517   1.898  17.263  0.00  0.00    +0.000 F 
ATOM     16  C   UNL     1       2.197   3.260  18.658  0.00  0.00    +0.000 A 
ATOM     17  C   UNL     1       1.895   4.522  19.176  0.00  0.00    +0.000 A 
ATOM     18  C   UNL     1       2.631   5.661  18.792  0.00  0.00    +0.000 A 
ATOM     19  C   UNL     1       3.685   5.506  17.837  0.00  0.00    +0.000 A 
ATOM     20  C   UNL     1       4.494   6.671  17.314  0.00  0.00    +0.000 C 
BRANCH  13  22
ATOM     21  C   UNL     1       5.931   3.820  15.737  0.00  0.00    +0.000 C 
ATOM     22  N   UNL     1       5.047   4.017  16.489  0.00  0.00    +0.000 NA
ENDBRANCH  13  22
ENDBRANCH   1  18
BRANCH   7  23
ATOM     23  C   UNL     1      -0.808  13.291  20.485  0.00  0.00    +0.000 C 
BRANCH  23  24
ATOM     24  C   UNL     1       0.385  14.176  20.269  0.00  0.00    +0.000 A 
ATOM     25  C   UNL     1       0.737  14.620  18.996  0.00  0.00    +0.000 A 
ATOM     26  N   UNL     1       1.791  15.443  18.769  0.00  0.00    +0.000 NA
ATOM     27  C   UNL     1       2.501  15.811  19.870  0.00  0.00    +0.000 A 
ATOM     28  C   UNL     1       2.163  15.360  21.140  0.00  0.00    +0.000 A 
ATOM     29  N   UNL     1       1.103  14.541  21.363  0.00  0.00    +0.000 NA
BRANCH  27  30
ATOM     30  N   UNL     1       3.605  16.669  19.712  0.00  0.00    +0.000 N 
ATOM     31  C   UNL     1       4.653  16.532  18.841  0.00  0.00    +0.000 A 
ATOM     32  N   UNL     1       5.497  17.522  19.026  0.00  0.00    +0.000 NA
ATOM     33  N   UNL     1       4.951  18.298  20.017  0.00  0.00    +0.000 NA
ATOM     34  N   UNL     1       3.794  17.797  20.433  0.00  0.00    +0.000 NA
ENDBRANCH  27  30
ENDBRANCH  23  24
ENDBRANCH   7  23
TORSDOF 5
ENDMDL
