MODEL 1
REMARK VINA RESULT:      -6.5      0.000      0.000
REMARK  Name = 
REMARK  8 active torsions:
REMARK  status: ('A' for Active; 'I' for Inactive)
REMARK    1  A    between atoms: C_1  and  N_2
REMARK    2  A    between atoms: N_2  and  C_3
REMARK    3  A    between atoms: N_2  and  C_4
REMARK    4  A    between atoms: C_4  and  C_5
REMARK    5  A    between atoms: C_5  and  O_6
REMARK    6  A    between atoms: O_6  and  C_7
REMARK    7  A    between atoms: C_9  and  C_10
REMARK    8  A    between atoms: N_20  and  C_21
REMARK                            x       y       z     vdW  Elec       q    Type
REMARK                         _______ _______ _______ _____ _____    ______ ____
ROOT
ATOM      1  C   UNL     1      -2.319  11.954  19.418  0.00  0.00    +0.000 A 
ATOM      2  N   UNL     1      -1.484  10.918  19.286  0.00  0.00    +0.000 NA
ATOM      3  C   UNL     1      -0.194  11.089  19.619  0.00  0.00    +0.000 A 
ATOM      4  C   UNL     1       0.245  12.293  20.176  0.00  0.00    +0.000 A 
ATOM      5  C   UNL     1      -0.712  13.290  20.335  0.00  0.00    +0.000 A 
ATOM      6  N   UNL     1      -1.983  13.146  19.903  0.00  0.00    +0.000 NA
ATOM      7  N   UNL     1      -0.345  14.494  21.001  0.00  0.00    +0.000 N 
ATOM      8  C   UNL     1       0.934  14.753  21.445  0.00  0.00    +0.000 C 
ATOM      9  O   UNL     1       1.266  15.714  22.140  0.00  0.00    +0.000 OA
ATOM     10  N   UNL     1       1.901  13.878  21.070  0.00  0.00    +0.000 N 
ATOM     11  C   UNL     1       1.641  12.543  20.630  0.00  0.00    +0.000 C 
ATOM     12  H   UNL     1       2.804  14.097  21.471  0.00  0.00    +0.000 HD
ENDROOT
BRANCH   7  13
ATOM     13  C   UNL     1      -1.334  15.512  21.157  0.00  0.00    +0.000 A 
ATOM     14  C   UNL     1      -1.457  16.530  20.184  0.00  0.00    +0.000 A 
ATOM     15 CL   UNL     1      -0.580  16.494  18.687  0.00  0.00    +0.000 Cl
ATOM     16  C   UNL     1      -2.347  17.594  20.363  0.00  0.00    +0.000 A 
ATOM     17  C   UNL     1      -3.141  17.655  21.503  0.00  0.00    +0.000 A 
ATOM     18  C   UNL     1      -3.037  16.657  22.470  0.00  0.00    +0.000 A 
ATOM     19  C   UNL     1      -2.133  15.599  22.312  0.00  0.00    +0.000 A 
ATOM     20 CL   UNL     1      -1.974  14.501  23.645  0.00  0.00    +0.000 Cl
ENDBRANCH   7  13
BRANCH   3  21
ATOM     21  C   UNL     1       0.654   9.872  19.385  0.00  0.00    +0.000 A 
ATOM     22  C   UNL     1       1.220   9.611  18.116  0.00  0.00    +0.000 A 
ATOM     23  C   UNL     1       2.001   8.480  17.848  0.00  0.00    +0.000 A 
ATOM     24  C   UNL     1       2.318   7.600  18.869  0.00  0.00    +0.000 A 
ATOM     25  C   UNL     1       1.830   7.843  20.147  0.00  0.00    +0.000 A 
ATOM     26  C   UNL     1       0.989   8.944  20.402  0.00  0.00    +0.000 A 
ATOM     27 CL   UNL     1       0.387   9.041  22.027  0.00  0.00    +0.000 Cl
ENDBRANCH   3  21
BRANCH   1  28
ATOM     28  O   UNL     1      -3.633  11.826  19.008  0.00  0.00    +0.000 OA
BRANCH  28  29
ATOM     29  C   UNL     1      -3.773  10.809  18.007  0.00  0.00    +0.000 C 
BRANCH  29  30
ATOM     30  C   UNL     1      -3.814  11.448  16.605  0.00  0.00    +0.000 C 
BRANCH  30  32
ATOM     31  C   UNL     1      -2.110   9.765  16.271  0.00  0.00    +0.000 C 
ATOM     32  N   UNL     1      -2.909  10.809  15.623  0.00  0.00    +0.000 NA
ATOM     33  C   UNL     1      -3.634  10.234  14.487  0.00  0.00    +0.000 C 
ENDBRANCH  30  32
ENDBRANCH  29  30
ENDBRANCH  28  29
ENDBRANCH   1  28
TORSDOF 6
ENDMDL
MODEL 2
REMARK VINA RESULT:      -6.3      1.369      1.850
REMARK  Name = 
REMARK  8 active torsions:
REMARK  status: ('A' for Active; 'I' for Inactive)
REMARK    1  A    between atoms: C_1  and  N_2
REMARK    2  A    between atoms: N_2  and  C_3
REMARK    3  A    between atoms: N_2  and  C_4
REMARK    4  A    between atoms: C_4  and  C_5
REMARK    5  A    between atoms: C_5  and  O_6
REMARK    6  A    between atoms: O_6  and  C_7
REMARK    7  A    between atoms: C_9  and  C_10
REMARK    8  A    between atoms: N_20  and  C_21
REMARK                            x       y       z     vdW  Elec       q    Type
REMARK                         _______ _______ _______ _____ _____    ______ ____
ROOT
ATOM      1  C   UNL     1      -1.794  11.728  18.175  0.00  0.00    +0.000 A 
ATOM      2  N   UNL     1      -0.972  10.677  18.264  0.00  0.00    +0.000 NA
ATOM      3  C   UNL     1       0.148  10.801  18.995  0.00  0.00    +0.000 A 
ATOM      4  C   UNL     1       0.402  11.968  19.720  0.00  0.00    +0.000 A 
ATOM      5  C   UNL     1      -0.545  12.982  19.616  0.00  0.00    +0.000 A 
ATOM      6  N   UNL     1      -1.615  12.890  18.798  0.00  0.00    +0.000 NA
ATOM      7  N   UNL     1      -0.394  14.148  20.420  0.00  0.00    +0.000 N 
ATOM      8  C   UNL     1       0.682  14.354  21.258  0.00  0.00    +0.000 C 
ATOM      9  O   UNL     1       0.788  15.276  22.067  0.00  0.00    +0.000 OA
ATOM     10  N   UNL     1       1.708  13.470  21.165  0.00  0.00    +0.000 N 
ATOM     11  C   UNL     1       1.586  12.163  20.602  0.00  0.00    +0.000 C 
ATOM     12  H   UNL     1       2.440  13.649  21.841  0.00  0.00    +0.000 HD
ENDROOT
BRANCH   7  13
ATOM     13  C   UNL     1      -1.369  15.183  20.305  0.00  0.00    +0.000 A 
ATOM     14  C   UNL     1      -1.113  16.304  19.482  0.00  0.00    +0.000 A 
ATOM     15 CL   UNL     1       0.270  16.392  18.438  0.00  0.00    +0.000 Cl
ATOM     16  C   UNL     1      -2.006  17.380  19.432  0.00  0.00    +0.000 A 
ATOM     17  C   UNL     1      -3.176  17.351  20.183  0.00  0.00    +0.000 A 
ATOM     18  C   UNL     1      -3.448  16.251  20.995  0.00  0.00    +0.000 A 
ATOM     19  C   UNL     1      -2.549  15.179  21.072  0.00  0.00    +0.000 A 
ATOM     20 CL   UNL     1      -2.910  13.939  22.228  0.00  0.00    +0.000 Cl
ENDBRANCH   7  13
BRANCH   3  21
ATOM     21  C   UNL     1       1.013   9.573  18.982  0.00  0.00    +0.000 A 
ATOM     22  C   UNL     1       1.835   9.271  17.872  0.00  0.00    +0.000 A 
ATOM     23  C   UNL     1       2.642   8.129  17.809  0.00  0.00    +0.000 A 
ATOM     24  C   UNL     1       2.723   7.278  18.899  0.00  0.00    +0.000 A 
ATOM     25  C   UNL     1       1.975   7.561  20.036  0.00  0.00    +0.000 A 
ATOM     26  C   UNL     1       1.112   8.674  20.074  0.00  0.00    +0.000 A 
ATOM     27 CL   UNL     1       0.177   8.823  21.528  0.00  0.00    +0.000 Cl
ENDBRANCH   3  21
BRANCH   1  28
ATOM     28  O   UNL     1      -2.912  11.652  17.366  0.00  0.00    +0.000 OA
BRANCH  28  29
ATOM     29  C   UNL     1      -3.693  10.487  17.661  0.00  0.00    +0.000 C 
BRANCH  29  30
ATOM     30  C   UNL     1      -5.103  10.899  18.126  0.00  0.00    +0.000 C 
BRANCH  30  32
ATOM     31  C   UNL     1      -6.441  12.717  17.258  0.00  0.00    +0.000 C 
ATOM     32  N   UNL     1      -5.330  12.362  18.145  0.00  0.00    +0.000 NA
ATOM     33  C   UNL     1      -5.601  12.868  19.492  0.00  0.00    +0.000 C 
ENDBRANCH  30  32
ENDBRANCH  29  30
ENDBRANCH  28  29
ENDBRANCH   1  28
TORSDOF 6
ENDMDL
MODEL 3
REMARK VINA RESULT:      -6.2      1.516      1.904
REMARK  Name = 
REMARK  8 active torsions:
REMARK  status: ('A' for Active; 'I' for Inactive)
REMARK    1  A    between atoms: C_1  and  N_2
REMARK    2  A    between atoms: N_2  and  C_3
REMARK    3  A    between atoms: N_2  and  C_4
REMARK    4  A    between atoms: C_4  and  C_5
REMARK    5  A    between atoms: C_5  and  O_6
REMARK    6  A    between atoms: O_6  and  C_7
REMARK    7  A    between atoms: C_9  and  C_10
REMARK    8  A    between atoms: N_20  and  C_21
REMARK                            x       y       z     vdW  Elec       q    Type
REMARK                         _______ _______ _______ _____ _____    ______ ____
ROOT
ATOM      1  C   UNL     1      -2.210  11.647  18.661  0.00  0.00    +0.000 A 
ATOM      2  N   UNL     1      -1.316  10.654  18.608  0.00  0.00    +0.000 NA
ATOM      3  C   UNL     1      -0.147  10.810  19.250  0.00  0.00    +0.000 A 
ATOM      4  C   UNL     1       0.093  11.945  20.030  0.00  0.00    +0.000 A 
ATOM      5  C   UNL     1      -0.924  12.893  20.077  0.00  0.00    +0.000 A 
ATOM      6  N   UNL     1      -2.054  12.776  19.346  0.00  0.00    +0.000 NA
ATOM      7  N   UNL     1      -0.780  14.013  20.944  0.00  0.00    +0.000 N 
ATOM      8  C   UNL     1       0.349  14.242  21.701  0.00  0.00    +0.000 C 
ATOM      9  O   UNL     1       0.465  15.116  22.561  0.00  0.00    +0.000 OA
ATOM     10  N   UNL     1       1.419  13.442  21.462  0.00  0.00    +0.000 N 
ATOM     11  C   UNL     1       1.334  12.167  20.822  0.00  0.00    +0.000 C 
ATOM     12  H   UNL     1       2.194  13.629  22.086  0.00  0.00    +0.000 HD
ENDROOT
BRANCH   7  13
ATOM     13  C   UNL     1      -1.828  14.981  20.983  0.00  0.00    +0.000 A 
ATOM     14  C   UNL     1      -1.770  16.117  20.143  0.00  0.00    +0.000 A 
ATOM     15 CL   UNL     1      -0.563  16.297  18.909  0.00  0.00    +0.000 Cl
ATOM     16  C   UNL     1      -2.729  17.130  20.234  0.00  0.00    +0.000 A 
ATOM     17  C   UNL     1      -3.773  17.023  21.147  0.00  0.00    +0.000 A 
ATOM     18  C   UNL     1      -3.850  15.907  21.979  0.00  0.00    +0.000 A 
ATOM     19  C   UNL     1      -2.881  14.898  21.913  0.00  0.00    +0.000 A 
ATOM     20 CL   UNL     1      -2.986  13.636  23.098  0.00  0.00    +0.000 Cl
ENDBRANCH   7  13
BRANCH   3  21
ATOM     21  C   UNL     1       0.792   9.650  19.080  0.00  0.00    +0.000 A 
ATOM     22  C   UNL     1       1.510   9.464  17.876  0.00  0.00    +0.000 A 
ATOM     23  C   UNL     1       2.381   8.388  17.667  0.00  0.00    +0.000 A 
ATOM     24  C   UNL     1       2.635   7.494  18.694  0.00  0.00    +0.000 A 
ATOM     25  C   UNL     1       1.994   7.665  19.914  0.00  0.00    +0.000 A 
ATOM     26  C   UNL     1       1.067   8.709  20.103  0.00  0.00    +0.000 A 
ATOM     27 CL   UNL     1       0.283   8.719  21.652  0.00  0.00    +0.000 Cl
ENDBRANCH   3  21
BRANCH   1  28
ATOM     28  O   UNL     1      -3.387  11.541  17.945  0.00  0.00    +0.000 OA
BRANCH  28  29
ATOM     29  C   UNL     1      -4.531  11.782  18.776  0.00  0.00    +0.000 C 
BRANCH  29  30
ATOM     30  C   UNL     1      -5.742  10.987  18.252  0.00  0.00    +0.000 C 
BRANCH  30  32
ATOM     31  C   UNL     1      -7.362  12.346  19.425  0.00  0.00    +0.000 C 
ATOM     32  N   UNL     1      -6.981  11.786  18.125  0.00  0.00    +0.000 NA
ATOM     33  C   UNL     1      -6.850  12.869  17.147  0.00  0.00    +0.000 C 
ENDBRANCH  30  32
ENDBRANCH  29  30
ENDBRANCH  28  29
ENDBRANCH   1  28
TORSDOF 6
ENDMDL
MODEL 4
REMARK VINA RESULT:      -6.2      1.410      2.406
REMARK  Name = 
REMARK  8 active torsions:
REMARK  status: ('A' for Active; 'I' for Inactive)
REMARK    1  A    between atoms: C_1  and  N_2
REMARK    2  A    between atoms: N_2  and  C_3
REMARK    3  A    between atoms: N_2  and  C_4
REMARK    4  A    between atoms: C_4  and  C_5
REMARK    5  A    between atoms: C_5  and  O_6
REMARK    6  A    between atoms: O_6  and  C_7
REMARK    7  A    between atoms: C_9  and  C_10
REMARK    8  A    between atoms: N_20  and  C_21
REMARK                            x       y       z     vdW  Elec       q    Type
REMARK                         _______ _______ _______ _____ _____    ______ ____
ROOT
ATOM      1  C   UNL     1      -1.937  11.850  18.489  0.00  0.00    +0.000 A 
ATOM      2  N   UNL     1      -1.113  10.797  18.512  0.00  0.00    +0.000 NA
ATOM      3  C   UNL     1       0.072  10.925  19.131  0.00  0.00    +0.000 A 
ATOM      4  C   UNL     1       0.397  12.101  19.813  0.00  0.00    +0.000 A 
ATOM      5  C   UNL     1      -0.553  13.117  19.788  0.00  0.00    +0.000 A 
ATOM      6  N   UNL     1      -1.696  13.018  19.077  0.00  0.00    +0.000 NA
ATOM      7  N   UNL     1      -0.323  14.291  20.560  0.00  0.00    +0.000 N 
ATOM      8  C   UNL     1       0.829  14.504  21.288  0.00  0.00    +0.000 C 
ATOM      9  O   UNL     1       1.013  15.435  22.071  0.00  0.00    +0.000 OA
ATOM     10  N   UNL     1       1.839  13.615  21.108  0.00  0.00    +0.000 N 
ATOM     11  C   UNL     1       1.660  12.301  20.576  0.00  0.00    +0.000 C 
ATOM     12  H   UNL     1       2.633  13.800  21.709  0.00  0.00    +0.000 HD
ENDROOT
BRANCH   7  13
ATOM     13  C   UNL     1      -1.302  15.329  20.525  0.00  0.00    +0.000 A 
ATOM     14  C   UNL     1      -2.432  15.260  21.371  0.00  0.00    +0.000 A 
ATOM     15 CL   UNL     1      -2.593  14.053  22.608  0.00  0.00    +0.000 Cl
ATOM     16  C   UNL     1      -3.456  16.209  21.285  0.00  0.00    +0.000 A 
ATOM     17  C   UNL     1      -3.366  17.252  20.370  0.00  0.00    +0.000 A 
ATOM     18  C   UNL     1      -2.255  17.339  19.532  0.00  0.00    +0.000 A 
ATOM     19  C   UNL     1      -1.235  16.381  19.593  0.00  0.00    +0.000 A 
ATOM     20 CL   UNL     1       0.019  16.497  18.401  0.00  0.00    +0.000 Cl
ENDBRANCH   7  13
BRANCH   3  21
ATOM     21  C   UNL     1       0.928   9.694  19.051  0.00  0.00    +0.000 A 
ATOM     22  C   UNL     1       1.698   9.415  17.898  0.00  0.00    +0.000 A 
ATOM     23  C   UNL     1       2.495   8.271  17.773  0.00  0.00    +0.000 A 
ATOM     24  C   UNL     1       2.621   7.394  18.838  0.00  0.00    +0.000 A 
ATOM     25  C   UNL     1       1.926   7.654  20.013  0.00  0.00    +0.000 A 
ATOM     26  C   UNL     1       1.072   8.769  20.116  0.00  0.00    +0.000 A 
ATOM     27 CL   UNL     1       0.203   8.888  21.613  0.00  0.00    +0.000 Cl
ENDBRANCH   3  21
BRANCH   1  28
ATOM     28  O   UNL     1      -3.127  11.767  17.791  0.00  0.00    +0.000 OA
BRANCH  28  29
ATOM     29  C   UNL     1      -4.255  11.765  18.676  0.00  0.00    +0.000 C 
BRANCH  29  30
ATOM     30  C   UNL     1      -5.371  10.865  18.109  0.00  0.00    +0.000 C 
BRANCH  30  32
ATOM     31  C   UNL     1      -7.268  11.839  19.248  0.00  0.00    +0.000 C 
ATOM     32  N   UNL     1      -6.672  11.549  17.941  0.00  0.00    +0.000 NA
ATOM     33  C   UNL     1      -6.555  12.792  17.173  0.00  0.00    +0.000 C 
ENDBRANCH  30  32
ENDBRANCH  29  30
ENDBRANCH  28  29
ENDBRANCH   1  28
TORSDOF 6
ENDMDL
MODEL 5
REMARK VINA RESULT:      -6.1      3.302      6.251
REMARK  Name = 
REMARK  8 active torsions:
REMARK  status: ('A' for Active; 'I' for Inactive)
REMARK    1  A    between atoms: C_1  and  N_2
REMARK    2  A    between atoms: N_2  and  C_3
REMARK    3  A    between atoms: N_2  and  C_4
REMARK    4  A    between atoms: C_4  and  C_5
REMARK    5  A    between atoms: C_5  and  O_6
REMARK    6  A    between atoms: O_6  and  C_7
REMARK    7  A    between atoms: C_9  and  C_10
REMARK    8  A    between atoms: N_20  and  C_21
REMARK                            x       y       z     vdW  Elec       q    Type
REMARK                         _______ _______ _______ _____ _____    ______ ____
ROOT
ATOM      1  C   UNL     1      -1.058  11.944  22.779  0.00  0.00    +0.000 A 
ATOM      2  N   UNL     1      -2.392  11.906  22.867  0.00  0.00    +0.000 NA
ATOM      3  C   UNL     1      -3.097  12.916  22.330  0.00  0.00    +0.000 A 
ATOM      4  C   UNL     1      -2.457  13.933  21.617  0.00  0.00    +0.000 A 
ATOM      5  C   UNL     1      -1.072  13.850  21.523  0.00  0.00    +0.000 A 
ATOM      6  N   UNL     1      -0.362  12.889  22.153  0.00  0.00    +0.000 NA
ATOM      7  N   UNL     1      -0.380  14.796  20.715  0.00  0.00    +0.000 N 
ATOM      8  C   UNL     1      -1.008  15.835  20.062  0.00  0.00    +0.000 C 
ATOM      9  O   UNL     1      -0.475  16.592  19.250  0.00  0.00    +0.000 OA
ATOM     10  N   UNL     1      -2.316  16.041  20.358  0.00  0.00    +0.000 N 
ATOM     11  C   UNL     1      -3.168  15.052  20.938  0.00  0.00    +0.000 C 
ATOM     12  H   UNL     1      -2.728  16.785  19.808  0.00  0.00    +0.000 HD
ENDROOT
BRANCH   7  13
ATOM     13  C   UNL     1       1.042  14.703  20.627  0.00  0.00    +0.000 A 
ATOM     14  C   UNL     1       1.852  15.435  21.525  0.00  0.00    +0.000 A 
ATOM     15 CL   UNL     1       1.191  16.305  22.874  0.00  0.00    +0.000 Cl
ATOM     16  C   UNL     1       3.245  15.443  21.397  0.00  0.00    +0.000 A 
ATOM     17  C   UNL     1       3.857  14.709  20.386  0.00  0.00    +0.000 A 
ATOM     18  C   UNL     1       3.074  13.976  19.495  0.00  0.00    +0.000 A 
ATOM     19  C   UNL     1       1.676  13.980  19.600  0.00  0.00    +0.000 A 
ATOM     20 CL   UNL     1       0.797  13.164  18.349  0.00  0.00    +0.000 Cl
ENDBRANCH   7  13
BRANCH   3  21
ATOM     21  C   UNL     1      -4.580  12.787  22.531  0.00  0.00    +0.000 A 
ATOM     22  C   UNL     1      -5.162  12.980  23.805  0.00  0.00    +0.000 A 
ATOM     23  C   UNL     1      -6.536  12.852  24.043  0.00  0.00    +0.000 A 
ATOM     24  C   UNL     1      -7.400  12.605  22.989  0.00  0.00    +0.000 A 
ATOM     25  C   UNL     1      -6.882  12.461  21.708  0.00  0.00    +0.000 A 
ATOM     26  C   UNL     1      -5.493  12.524  21.480  0.00  0.00    +0.000 A 
ATOM     27 CL   UNL     1      -5.008  12.222  19.841  0.00  0.00    +0.000 Cl
ENDBRANCH   3  21
BRANCH   1  28
ATOM     28  O   UNL     1      -0.308  10.957  23.391  0.00  0.00    +0.000 OA
BRANCH  28  29
ATOM     29  C   UNL     1      -0.594   9.664  22.843  0.00  0.00    +0.000 C 
BRANCH  29  30
ATOM     30  C   UNL     1       0.696   9.026  22.293  0.00  0.00    +0.000 C 
BRANCH  30  32
ATOM     31  C   UNL     1       0.771  10.036  20.097  0.00  0.00    +0.000 C 
ATOM     32  N   UNL     1       0.671   8.773  20.834  0.00  0.00    +0.000 NA
ATOM     33  C   UNL     1       1.744   7.872  20.405  0.00  0.00    +0.000 C 
ENDBRANCH  30  32
ENDBRANCH  29  30
ENDBRANCH  28  29
ENDBRANCH   1  28
TORSDOF 6
ENDMDL
MODEL 6
REMARK VINA RESULT:      -6.0      2.735      7.868
REMARK  Name = 
REMARK  8 active torsions:
REMARK  status: ('A' for Active; 'I' for Inactive)
REMARK    1  A    between atoms: C_1  and  N_2
REMARK    2  A    between atoms: N_2  and  C_3
REMARK    3  A    between atoms: N_2  and  C_4
REMARK    4  A    between atoms: C_4  and  C_5
REMARK    5  A    between atoms: C_5  and  O_6
REMARK    6  A    between atoms: O_6  and  C_7
REMARK    7  A    between atoms: C_9  and  C_10
REMARK    8  A    between atoms: N_20  and  C_21
REMARK                            x       y       z     vdW  Elec       q    Type
REMARK                         _______ _______ _______ _____ _____    ______ ____
ROOT
ATOM      1  C   UNL     1       2.332  13.623  20.696  0.00  0.00    +0.000 A 
ATOM      2  N   UNL     1       1.871  14.774  20.195  0.00  0.00    +0.000 NA
ATOM      3  C   UNL     1       0.881  14.727  19.289  0.00  0.00    +0.000 A 
ATOM      4  C   UNL     1       0.284  13.510  18.947  0.00  0.00    +0.000 A 
ATOM      5  C   UNL     1       0.788  12.374  19.571  0.00  0.00    +0.000 A 
ATOM      6  N   UNL     1       1.851  12.418  20.402  0.00  0.00    +0.000 NA
ATOM      7  N   UNL     1       0.144  11.124  19.346  0.00  0.00    +0.000 N 
ATOM      8  C   UNL     1      -0.924  10.968  18.488  0.00  0.00    +0.000 C 
ATOM      9  O   UNL     1      -1.594   9.942  18.364  0.00  0.00    +0.000 OA
ATOM     10  N   UNL     1      -1.246  12.033  17.711  0.00  0.00    +0.000 N 
ATOM     11  C   UNL     1      -0.859  13.377  18.001  0.00  0.00    +0.000 C 
ATOM     12  H   UNL     1      -2.068  11.868  17.143  0.00  0.00    +0.000 HD
ENDROOT
BRANCH   7  13
ATOM     13  C   UNL     1       0.670   9.963  19.989  0.00  0.00    +0.000 A 
ATOM     14  C   UNL     1       1.465   9.052  19.257  0.00  0.00    +0.000 A 
ATOM     15 CL   UNL     1       2.002   9.379  17.640  0.00  0.00    +0.000 Cl
ATOM     16  C   UNL     1       1.908   7.857  19.834  0.00  0.00    +0.000 A 
ATOM     17  C   UNL     1       1.583   7.557  21.153  0.00  0.00    +0.000 A 
ATOM     18  C   UNL     1       0.804   8.446  21.891  0.00  0.00    +0.000 A 
ATOM     19  C   UNL     1       0.336   9.635  21.316  0.00  0.00    +0.000 A 
ATOM     20 CL   UNL     1      -0.751  10.590  22.271  0.00  0.00    +0.000 Cl
ENDBRANCH   7  13
BRANCH   3  21
ATOM     21  C   UNL     1       0.480  16.076  18.765  0.00  0.00    +0.000 A 
ATOM     22  C   UNL     1       1.284  16.761  17.825  0.00  0.00    +0.000 A 
ATOM     23  C   UNL     1       0.959  18.028  17.324  0.00  0.00    +0.000 A 
ATOM     24  C   UNL     1      -0.236  18.629  17.684  0.00  0.00    +0.000 A 
ATOM     25  C   UNL     1      -1.086  17.971  18.565  0.00  0.00    +0.000 A 
ATOM     26  C   UNL     1      -0.728  16.727  19.120  0.00  0.00    +0.000 A 
ATOM     27 CL   UNL     1      -1.855  16.092  20.277  0.00  0.00    +0.000 Cl
ENDBRANCH   3  21
BRANCH   1  28
ATOM     28  O   UNL     1       3.402  13.641  21.570  0.00  0.00    +0.000 OA
BRANCH  28  29
ATOM     29  C   UNL     1       3.705  14.974  22.001  0.00  0.00    +0.000 C 
BRANCH  29  30
ATOM     30  C   UNL     1       5.197  15.280  21.769  0.00  0.00    +0.000 C 
BRANCH  30  32
ATOM     31  C   UNL     1       5.150  16.509  19.688  0.00  0.00    +0.000 C 
ATOM     32  N   UNL     1       5.601  15.279  20.345  0.00  0.00    +0.000 NA
ATOM     33  C   UNL     1       7.049  15.137  20.174  0.00  0.00    +0.000 C 
ENDBRANCH  30  32
ENDBRANCH  29  30
ENDBRANCH  28  29
ENDBRANCH   1  28
TORSDOF 6
ENDMDL
MODEL 7
REMARK VINA RESULT:      -6.0      3.138      7.895
REMARK  Name = 
REMARK  8 active torsions:
REMARK  status: ('A' for Active; 'I' for Inactive)
REMARK    1  A    between atoms: C_1  and  N_2
REMARK    2  A    between atoms: N_2  and  C_3
REMARK    3  A    between atoms: N_2  and  C_4
REMARK    4  A    between atoms: C_4  and  C_5
REMARK    5  A    between atoms: C_5  and  O_6
REMARK    6  A    between atoms: O_6  and  C_7
REMARK    7  A    between atoms: C_9  and  C_10
REMARK    8  A    between atoms: N_20  and  C_21
REMARK                            x       y       z     vdW  Elec       q    Type
REMARK                         _______ _______ _______ _____ _____    ______ ____
ROOT
ATOM      1  C   UNL     1       2.154  14.142  21.078  0.00  0.00    +0.000 A 
ATOM      2  N   UNL     1       2.021  15.179  20.245  0.00  0.00    +0.000 NA
ATOM      3  C   UNL     1       1.194  15.054  19.194  0.00  0.00    +0.000 A 
ATOM      4  C   UNL     1       0.421  13.902  19.027  0.00  0.00    +0.000 A 
ATOM      5  C   UNL     1       0.580  12.904  19.983  0.00  0.00    +0.000 A 
ATOM      6  N   UNL     1       1.489  12.994  20.978  0.00  0.00    +0.000 NA
ATOM      7  N   UNL     1      -0.263  11.757  19.926  0.00  0.00    +0.000 N 
ATOM      8  C   UNL     1      -1.195  11.553  18.930  0.00  0.00    +0.000 C 
ATOM      9  O   UNL     1      -2.033  10.651  18.913  0.00  0.00    +0.000 OA
ATOM     10  N   UNL     1      -1.168  12.414  17.882  0.00  0.00    +0.000 N 
ATOM     11  C   UNL     1      -0.564  13.709  17.928  0.00  0.00    +0.000 C 
ATOM     12  H   UNL     1      -1.909  12.239  17.214  0.00  0.00    +0.000 HD
ENDROOT
BRANCH   7  13
ATOM     13  C   UNL     1      -0.091  10.738  20.910  0.00  0.00    +0.000 A 
ATOM     14  C   UNL     1       0.577   9.539  20.573  0.00  0.00    +0.000 A 
ATOM     15 CL   UNL     1       1.380   9.320  19.050  0.00  0.00    +0.000 Cl
ATOM     16  C   UNL     1       0.669   8.484  21.487  0.00  0.00    +0.000 A 
ATOM     17  C   UNL     1       0.116   8.610  22.757  0.00  0.00    +0.000 A 
ATOM     18  C   UNL     1      -0.541   9.788  23.109  0.00  0.00    +0.000 A 
ATOM     19  C   UNL     1      -0.660  10.842  22.193  0.00  0.00    +0.000 A 
ATOM     20 CL   UNL     1      -1.630  12.194  22.680  0.00  0.00    +0.000 Cl
ENDBRANCH   7  13
BRANCH   3  21
ATOM     21  C   UNL     1       1.163  16.265  18.305  0.00  0.00    +0.000 A 
ATOM     22  C   UNL     1       0.054  17.141  18.306  0.00  0.00    +0.000 A 
ATOM     23  C   UNL     1      -0.026  18.270  17.481  0.00  0.00    +0.000 A 
ATOM     24  C   UNL     1       1.047  18.617  16.677  0.00  0.00    +0.000 A 
ATOM     25  C   UNL     1       2.183  17.816  16.682  0.00  0.00    +0.000 A 
ATOM     26  C   UNL     1       2.237  16.644  17.462  0.00  0.00    +0.000 A 
ATOM     27 CL   UNL     1       3.687  15.708  17.274  0.00  0.00    +0.000 Cl
ENDBRANCH   3  21
BRANCH   1  28
ATOM     28  O   UNL     1       3.057  14.219  22.122  0.00  0.00    +0.000 OA
BRANCH  28  29
ATOM     29  C   UNL     1       4.410  14.176  21.648  0.00  0.00    +0.000 C 
BRANCH  29  30
ATOM     30  C   UNL     1       5.376  13.946  22.826  0.00  0.00    +0.000 C 
BRANCH  30  32
ATOM     31  C   UNL     1       5.612  16.339  22.569  0.00  0.00    +0.000 C 
ATOM     32  N   UNL     1       5.890  15.192  23.439  0.00  0.00    +0.000 NA
ATOM     33  C   UNL     1       5.322  15.437  24.766  0.00  0.00    +0.000 C 
ENDBRANCH  30  32
ENDBRANCH  29  30
ENDBRANCH  28  29
ENDBRANCH   1  28
TORSDOF 6
ENDMDL
MODEL 8
REMARK VINA RESULT:      -6.0      2.712      8.025
REMARK  Name = 
REMARK  8 active torsions:
REMARK  status: ('A' for Active; 'I' for Inactive)
REMARK    1  A    between atoms: C_1  and  N_2
REMARK    2  A    between atoms: N_2  and  C_3
REMARK    3  A    between atoms: N_2  and  C_4
REMARK    4  A    between atoms: C_4  and  C_5
REMARK    5  A    between atoms: C_5  and  O_6
REMARK    6  A    between atoms: O_6  and  C_7
REMARK    7  A    between atoms: C_9  and  C_10
REMARK    8  A    between atoms: N_20  and  C_21
REMARK                            x       y       z     vdW  Elec       q    Type
REMARK                         _______ _______ _______ _____ _____    ______ ____
ROOT
ATOM      1  C   UNL     1       2.284  13.608  20.672  0.00  0.00    +0.000 A 
ATOM      2  N   UNL     1       1.929  14.755  20.083  0.00  0.00    +0.000 NA
ATOM      3  C   UNL     1       0.990  14.718  19.124  0.00  0.00    +0.000 A 
ATOM      4  C   UNL     1       0.335  13.524  18.812  0.00  0.00    +0.000 A 
ATOM      5  C   UNL     1       0.727  12.396  19.525  0.00  0.00    +0.000 A 
ATOM      6  N   UNL     1       1.743  12.421  20.414  0.00  0.00    +0.000 NA
ATOM      7  N   UNL     1       0.016  11.178  19.329  0.00  0.00    +0.000 N 
ATOM      8  C   UNL     1      -1.009  11.040  18.418  0.00  0.00    +0.000 C 
ATOM      9  O   UNL     1      -1.737  10.052  18.309  0.00  0.00    +0.000 OA
ATOM     10  N   UNL     1      -1.216  12.077  17.567  0.00  0.00    +0.000 N 
ATOM     11  C   UNL     1      -0.759  13.409  17.808  0.00  0.00    +0.000 C 
ATOM     12  H   UNL     1      -2.014  11.932  16.961  0.00  0.00    +0.000 HD
ENDROOT
BRANCH   7  13
ATOM     13  C   UNL     1       0.428  10.025  20.063  0.00  0.00    +0.000 A 
ATOM     14  C   UNL     1       0.046   9.877  21.416  0.00  0.00    +0.000 A 
ATOM     15 CL   UNL     1      -1.079  10.952  22.185  0.00  0.00    +0.000 Cl
ATOM     16  C   UNL     1       0.520   8.810  22.186  0.00  0.00    +0.000 A 
ATOM     17  C   UNL     1       1.367   7.863  21.620  0.00  0.00    +0.000 A 
ATOM     18  C   UNL     1       1.749   7.990  20.286  0.00  0.00    +0.000 A 
ATOM     19  C   UNL     1       1.299   9.067  19.511  0.00  0.00    +0.000 A 
ATOM     20 CL   UNL     1       1.960   9.212  17.915  0.00  0.00    +0.000 Cl
ENDBRANCH   7  13
BRANCH   3  21
ATOM     21  C   UNL     1       0.709  16.058  18.506  0.00  0.00    +0.000 A 
ATOM     22  C   UNL     1      -0.557  16.673  18.643  0.00  0.00    +0.000 A 
ATOM     23  C   UNL     1      -0.869  17.911  18.069  0.00  0.00    +0.000 A 
ATOM     24  C   UNL     1       0.108  18.629  17.399  0.00  0.00    +0.000 A 
ATOM     25  C   UNL     1       1.384  18.091  17.284  0.00  0.00    +0.000 A 
ATOM     26  C   UNL     1       1.680  16.816  17.804  0.00  0.00    +0.000 A 
ATOM     27 CL   UNL     1       3.290  16.253  17.485  0.00  0.00    +0.000 Cl
ENDBRANCH   3  21
BRANCH   1  28
ATOM     28  O   UNL     1       3.303  13.609  21.606  0.00  0.00    +0.000 OA
BRANCH  28  29
ATOM     29  C   UNL     1       4.328  14.550  21.263  0.00  0.00    +0.000 C 
BRANCH  29  30
ATOM     30  C   UNL     1       4.719  15.382  22.500  0.00  0.00    +0.000 C 
BRANCH  30  32
ATOM     31  C   UNL     1       4.182  17.319  21.156  0.00  0.00    +0.000 C 
ATOM     32  N   UNL     1       4.161  16.753  22.508  0.00  0.00    +0.000 NA
ATOM     33  C   UNL     1       2.794  16.797  23.033  0.00  0.00    +0.000 C 
ENDBRANCH  30  32
ENDBRANCH  29  30
ENDBRANCH  28  29
ENDBRANCH   1  28
TORSDOF 6
ENDMDL
MODEL 9
REMARK VINA RESULT:      -6.0      2.112      2.565
REMARK  Name = 
REMARK  8 active torsions:
REMARK  status: ('A' for Active; 'I' for Inactive)
REMARK    1  A    between atoms: C_1  and  N_2
REMARK    2  A    between atoms: N_2  and  C_3
REMARK    3  A    between atoms: N_2  and  C_4
REMARK    4  A    between atoms: C_4  and  C_5
REMARK    5  A    between atoms: C_5  and  O_6
REMARK    6  A    between atoms: O_6  and  C_7
REMARK    7  A    between atoms: C_9  and  C_10
REMARK    8  A    between atoms: N_20  and  C_21
REMARK                            x       y       z     vdW  Elec       q    Type
REMARK                         _______ _______ _______ _____ _____    ______ ____
ROOT
ATOM      1  C   UNL     1      -2.929  11.647  18.651  0.00  0.00    +0.000 A 
ATOM      2  N   UNL     1      -1.918  10.774  18.592  0.00  0.00    +0.000 NA
ATOM      3  C   UNL     1      -0.875  10.945  19.422  0.00  0.00    +0.000 A 
ATOM      4  C   UNL     1      -0.889  11.957  20.385  0.00  0.00    +0.000 A 
ATOM      5  C   UNL     1      -2.014  12.774  20.412  0.00  0.00    +0.000 A 
ATOM      6  N   UNL     1      -3.011  12.661  19.508  0.00  0.00    +0.000 NA
ATOM      7  N   UNL     1      -2.132  13.748  21.445  0.00  0.00    +0.000 N 
ATOM      8  C   UNL     1      -1.153  13.967  22.391  0.00  0.00    +0.000 C 
ATOM      9  O   UNL     1      -1.267  14.698  23.376  0.00  0.00    +0.000 OA
ATOM     10  N   UNL     1       0.031  13.332  22.205  0.00  0.00    +0.000 N 
ATOM     11  C   UNL     1       0.196  12.175  21.382  0.00  0.00    +0.000 C 
ATOM     12  H   UNL     1       0.685  13.496  22.961  0.00  0.00    +0.000 HD
ENDROOT
BRANCH   7  13
ATOM     13  C   UNL     1      -3.289  14.583  21.462  0.00  0.00    +0.000 A 
ATOM     14  C   UNL     1      -3.253  15.850  20.836  0.00  0.00    +0.000 A 
ATOM     15 CL   UNL     1      -1.911  16.368  19.865  0.00  0.00    +0.000 Cl
ATOM     16  C   UNL     1      -4.338  16.729  20.926  0.00  0.00    +0.000 A 
ATOM     17  C   UNL     1      -5.482  16.357  21.624  0.00  0.00    +0.000 A 
ATOM     18  C   UNL     1      -5.537  15.109  22.242  0.00  0.00    +0.000 A 
ATOM     19  C   UNL     1      -4.448  14.230  22.179  0.00  0.00    +0.000 A 
ATOM     20 CL   UNL     1      -4.563  12.774  23.112  0.00  0.00    +0.000 Cl
ENDBRANCH   7  13
BRANCH   3  21
ATOM     21  C   UNL     1       0.217   9.932  19.231  0.00  0.00    +0.000 A 
ATOM     22  C   UNL     1       1.021   9.936  18.068  0.00  0.00    +0.000 A 
ATOM     23  C   UNL     1       2.037   9.000  17.841  0.00  0.00    +0.000 A 
ATOM     24  C   UNL     1       2.348   8.065  18.814  0.00  0.00    +0.000 A 
ATOM     25  C   UNL     1       1.621   8.055  19.999  0.00  0.00    +0.000 A 
ATOM     26  C   UNL     1       0.555   8.953  20.200  0.00  0.00    +0.000 A 
ATOM     27 CL   UNL     1      -0.310   8.738  21.689  0.00  0.00    +0.000 Cl
ENDBRANCH   3  21
BRANCH   1  28
ATOM     28  O   UNL     1      -3.975  11.537  17.755  0.00  0.00    +0.000 OA
BRANCH  28  29
ATOM     29  C   UNL     1      -5.080  10.822  18.324  0.00  0.00    +0.000 C 
BRANCH  29  30
ATOM     30  C   UNL     1      -6.406  11.512  17.947  0.00  0.00    +0.000 C 
BRANCH  30  32
ATOM     31  C   UNL     1      -6.656  11.765  20.339  0.00  0.00    +0.000 C 
ATOM     32  N   UNL     1      -6.989  12.335  19.030  0.00  0.00    +0.000 NA
ATOM     33  C   UNL     1      -6.538  13.728  18.977  0.00  0.00    +0.000 C 
ENDBRANCH  30  32
ENDBRANCH  29  30
ENDBRANCH  28  29
ENDBRANCH   1  28
TORSDOF 6
ENDMDL
