MODEL 1
REMARK VINA RESULT:      -8.2      0.000      0.000
REMARK  Name = 
REMARK  10 active torsions:
REMARK  status: ('A' for Active; 'I' for Inactive)
REMARK    1  A    between atoms: C_1  and  O_2
REMARK    2  A    between atoms: O_2  and  C_3
REMARK    3  A    between atoms: C_6  and  O_7
REMARK    4  A    between atoms: O_7  and  C_8
REMARK    5  A    between atoms: C_9  and  S_10
REMARK    6  A    between atoms: S_10  and  N_13
REMARK    7  A    between atoms: N_13  and  N_14
REMARK    8  A    between atoms: C_15  and  C_16
REMARK    9  A    between atoms: N_18  and  C_19
REMARK   10  A    between atoms: C_19  and  C_20
REMARK                            x       y       z     vdW  Elec       q    Type
REMARK                         _______ _______ _______ _____ _____    ______ ____
ROOT
ATOM      1  N   UNL     1       2.080   8.346  18.824  0.00  0.00    +0.000 NA
ATOM      2  C   UNL     1       2.708   7.478  18.063  0.00  0.00    +0.000 C 
ENDROOT
BRANCH   2   3
ATOM      3  C   UNL     1       3.289   6.173  18.385  0.00  0.00    +0.000 A 
ATOM      4  C   UNL     1       4.582   5.911  18.812  0.00  0.00    +0.000 A 
ATOM      5  N   UNL     1       4.872   4.660  18.304  0.00  0.00    +0.000 N 
ATOM      6  C   UNL     1       3.750   3.910  18.561  0.00  0.00    +0.000 A 
ATOM      7  C   UNL     1       3.629   2.525  18.717  0.00  0.00    +0.000 A 
ATOM      8  C   UNL     1       2.340   2.004  18.681  0.00  0.00    +0.000 A 
ATOM      9  C   UNL     1       1.251   2.841  18.442  0.00  0.00    +0.000 A 
ATOM     10  C   UNL     1       1.402   4.239  18.272  0.00  0.00    +0.000 A 
ATOM     11  C   UNL     1       2.693   4.818  18.387  0.00  0.00    +0.000 A 
BRANCH   5  12
ATOM     12  C   UNL     1       5.546   4.475  17.013  0.00  0.00    +0.000 C 
BRANCH  12  13
ATOM     13  C   UNL     1       6.969   4.942  17.017  0.00  0.00    +0.000 C 
ATOM     14  N   UNL     1       7.783   4.354  17.929  0.00  0.00    +0.000 N 
ATOM     15  O   UNL     1       7.387   5.819  16.264  0.00  0.00    +0.000 OA
ATOM     16  H   UNL     1       7.560   3.463  18.358  0.00  0.00    +0.000 HD
ATOM     17  H   UNL     1       8.755   4.632  17.913  0.00  0.00    +0.000 HD
ENDBRANCH  12  13
ENDBRANCH   5  12
ENDBRANCH   2   3
BRANCH   1  18
ATOM     18  N   UNL     1       1.726   8.049  20.197  0.00  0.00    +0.000 N 
ATOM     19  H   UNL     1       1.625   7.076  20.484  0.00  0.00    +0.000 HD
BRANCH  18  20
ATOM     20  S   UNL     1       0.710   9.031  21.184  0.00  0.00    +0.000 S 
ATOM     21  O   UNL     1       1.548   9.507  22.268  0.00  0.00    +0.000 OA
ATOM     22  O   UNL     1      -0.439   8.230  21.482  0.00  0.00    +0.000 OA
BRANCH  20  27
ATOM     23  C   UNL     1      -1.303  11.186  18.408  0.00  0.00    +0.000 A 
ATOM     24  C   UNL     1      -0.854  12.485  18.589  0.00  0.00    +0.000 A 
ATOM     25  C   UNL     1       0.159  12.743  19.511  0.00  0.00    +0.000 A 
ATOM     26  C   UNL     1       0.713  11.731  20.320  0.00  0.00    +0.000 A 
ATOM     27  C   UNL     1       0.161  10.446  20.249  0.00  0.00    +0.000 A 
ATOM     28  C   UNL     1      -0.814  10.178  19.244  0.00  0.00    +0.000 A 
BRANCH  23  30
ATOM     29  C   UNL     1      -3.590  11.206  17.785  0.00  0.00    +0.000 C 
ATOM     30  O   UNL     1      -2.227  11.033  17.413  0.00  0.00    +0.000 OA
ENDBRANCH  23  30
BRANCH  26  31
ATOM     31  O   UNL     1       1.841  12.188  20.934  0.00  0.00    +0.000 OA
ATOM     32  C   UNL     1       2.255  13.524  20.766  0.00  0.00    +0.000 C 
ENDBRANCH  26  31
ENDBRANCH  20  27
ENDBRANCH  18  20
ENDBRANCH   1  18
TORSDOF 8
ENDMDL
MODEL 2
REMARK VINA RESULT:      -7.8      1.013      2.451
REMARK  Name = 
REMARK  10 active torsions:
REMARK  status: ('A' for Active; 'I' for Inactive)
REMARK    1  A    between atoms: C_1  and  O_2
REMARK    2  A    between atoms: O_2  and  C_3
REMARK    3  A    between atoms: C_6  and  O_7
REMARK    4  A    between atoms: O_7  and  C_8
REMARK    5  A    between atoms: C_9  and  S_10
REMARK    6  A    between atoms: S_10  and  N_13
REMARK    7  A    between atoms: N_13  and  N_14
REMARK    8  A    between atoms: C_15  and  C_16
REMARK    9  A    between atoms: N_18  and  C_19
REMARK   10  A    between atoms: C_19  and  C_20
REMARK                            x       y       z     vdW  Elec       q    Type
REMARK                         _______ _______ _______ _____ _____    ______ ____
ROOT
ATOM      1  N   UNL     1       2.202   8.225  18.792  0.00  0.00    +0.000 NA
ATOM      2  C   UNL     1       2.841   7.360  18.037  0.00  0.00    +0.000 C 
ENDROOT
BRANCH   2   3
ATOM      3  C   UNL     1       3.412   6.051  18.361  0.00  0.00    +0.000 A 
ATOM      4  C   UNL     1       4.710   5.778  18.768  0.00  0.00    +0.000 A 
ATOM      5  N   UNL     1       4.976   4.519  18.265  0.00  0.00    +0.000 N 
ATOM      6  C   UNL     1       3.850   3.785  18.548  0.00  0.00    +0.000 A 
ATOM      7  C   UNL     1       3.716   2.403  18.718  0.00  0.00    +0.000 A 
ATOM      8  C   UNL     1       2.421   1.896  18.709  0.00  0.00    +0.000 A 
ATOM      9  C   UNL     1       1.337   2.744  18.482  0.00  0.00    +0.000 A 
ATOM     10  C   UNL     1       1.501   4.139  18.296  0.00  0.00    +0.000 A 
ATOM     11  C   UNL     1       2.800   4.703  18.384  0.00  0.00    +0.000 A 
BRANCH   5  12
ATOM     12  C   UNL     1       5.626   4.315  16.965  0.00  0.00    +0.000 C 
BRANCH  12  13
ATOM     13  C   UNL     1       7.014   4.874  16.903  0.00  0.00    +0.000 C 
ATOM     14  N   UNL     1       7.206   5.889  16.025  0.00  0.00    +0.000 N 
ATOM     15  O   UNL     1       7.941   4.436  17.581  0.00  0.00    +0.000 OA
ATOM     16  H   UNL     1       6.438   6.447  15.667  0.00  0.00    +0.000 HD
ATOM     17  H   UNL     1       8.129   6.300  16.004  0.00  0.00    +0.000 HD
ENDBRANCH  12  13
ENDBRANCH   5  12
ENDBRANCH   2   3
BRANCH   1  18
ATOM     18  N   UNL     1       1.823   7.919  20.157  0.00  0.00    +0.000 N 
ATOM     19  H   UNL     1       1.647   6.950  20.418  0.00  0.00    +0.000 HD
BRANCH  18  20
ATOM     20  S   UNL     1       0.883   8.950  21.169  0.00  0.00    +0.000 S 
ATOM     21  O   UNL     1       1.727   9.270  22.305  0.00  0.00    +0.000 OA
ATOM     22  O   UNL     1      -0.355   8.265  21.384  0.00  0.00    +0.000 OA
BRANCH  20  27
ATOM     23  C   UNL     1       0.898  12.904  20.292  0.00  0.00    +0.000 A 
ATOM     24  C   UNL     1       0.094  13.010  19.168  0.00  0.00    +0.000 A 
ATOM     25  C   UNL     1      -0.567  11.883  18.683  0.00  0.00    +0.000 A 
ATOM     26  C   UNL     1      -0.402  10.608  19.264  0.00  0.00    +0.000 A 
ATOM     27  C   UNL     1       0.524  10.467  20.304  0.00  0.00    +0.000 A 
ATOM     28  C   UNL     1       1.128  11.640  20.845  0.00  0.00    +0.000 A 
BRANCH  23  30
ATOM     29  C   UNL     1       0.574  15.228  20.634  0.00  0.00    +0.000 C 
ATOM     30  O   UNL     1       1.419  14.086  20.738  0.00  0.00    +0.000 OA
ENDBRANCH  23  30
BRANCH  26  31
ATOM     31  O   UNL     1      -1.340   9.748  18.776  0.00  0.00    +0.000 OA
ATOM     32  C   UNL     1      -2.268  10.177  17.807  0.00  0.00    +0.000 C 
ENDBRANCH  26  31
ENDBRANCH  20  27
ENDBRANCH  18  20
ENDBRANCH   1  18
TORSDOF 8
ENDMDL
MODEL 3
REMARK VINA RESULT:      -7.8      1.427      1.826
REMARK  Name = 
REMARK  10 active torsions:
REMARK  status: ('A' for Active; 'I' for Inactive)
REMARK    1  A    between atoms: C_1  and  O_2
REMARK    2  A    between atoms: O_2  and  C_3
REMARK    3  A    between atoms: C_6  and  O_7
REMARK    4  A    between atoms: O_7  and  C_8
REMARK    5  A    between atoms: C_9  and  S_10
REMARK    6  A    between atoms: S_10  and  N_13
REMARK    7  A    between atoms: N_13  and  N_14
REMARK    8  A    between atoms: C_15  and  C_16
REMARK    9  A    between atoms: N_18  and  C_19
REMARK   10  A    between atoms: C_19  and  C_20
REMARK                            x       y       z     vdW  Elec       q    Type
REMARK                         _______ _______ _______ _____ _____    ______ ____
ROOT
ATOM      1  N   UNL     1       2.314   8.713  17.605  0.00  0.00    +0.000 NA
ATOM      2  C   UNL     1       3.181   7.818  17.188  0.00  0.00    +0.000 C 
ENDROOT
BRANCH   2   3
ATOM      3  C   UNL     1       3.590   6.541  17.778  0.00  0.00    +0.000 A 
ATOM      4  C   UNL     1       4.820   6.229  18.337  0.00  0.00    +0.000 A 
ATOM      5  N   UNL     1       4.991   4.883  18.081  0.00  0.00    +0.000 N 
ATOM      6  C   UNL     1       3.778   4.314  18.385  0.00  0.00    +0.000 A 
ATOM      7  C   UNL     1       3.491   3.001  18.773  0.00  0.00    +0.000 A 
ATOM      8  C   UNL     1       2.154   2.618  18.737  0.00  0.00    +0.000 A 
ATOM      9  C   UNL     1       1.182   3.505  18.275  0.00  0.00    +0.000 A 
ATOM     10  C   UNL     1       1.502   4.825  17.871  0.00  0.00    +0.000 A 
ATOM     11  C   UNL     1       2.843   5.279  17.976  0.00  0.00    +0.000 A 
BRANCH   5  12
ATOM     12  C   UNL     1       5.707   4.395  16.896  0.00  0.00    +0.000 C 
BRANCH  12  13
ATOM     13  C   UNL     1       7.128   4.863  16.829  0.00  0.00    +0.000 C 
ATOM     14  N   UNL     1       7.975   4.313  17.733  0.00  0.00    +0.000 N 
ATOM     15  O   UNL     1       7.516   5.710  16.027  0.00  0.00    +0.000 OA
ATOM     16  H   UNL     1       7.770   3.439  18.205  0.00  0.00    +0.000 HD
ATOM     17  H   UNL     1       8.945   4.591  17.670  0.00  0.00    +0.000 HD
ENDBRANCH  12  13
ENDBRANCH   5  12
ENDBRANCH   2   3
BRANCH   1  18
ATOM     18  N   UNL     1       1.463   8.482  18.754  0.00  0.00    +0.000 N 
ATOM     19  H   UNL     1       0.852   7.665  18.763  0.00  0.00    +0.000 HD
BRANCH  18  20
ATOM     20  S   UNL     1       0.751   9.723  19.715  0.00  0.00    +0.000 S 
ATOM     21  O   UNL     1       1.712  10.810  19.736  0.00  0.00    +0.000 OA
ATOM     22  O   UNL     1       0.370   9.096  20.945  0.00  0.00    +0.000 OA
BRANCH  20  27
ATOM     23  C   UNL     1      -2.128  10.135  16.897  0.00  0.00    +0.000 A 
ATOM     24  C   UNL     1      -2.987  11.090  17.419  0.00  0.00    +0.000 A 
ATOM     25  C   UNL     1      -2.669  11.720  18.621  0.00  0.00    +0.000 A 
ATOM     26  C   UNL     1      -1.522  11.380  19.367  0.00  0.00    +0.000 A 
ATOM     27  C   UNL     1      -0.732  10.313  18.921  0.00  0.00    +0.000 A 
ATOM     28  C   UNL     1      -1.020   9.736  17.650  0.00  0.00    +0.000 A 
BRANCH  23  30
ATOM     29  C   UNL     1      -3.433  10.425  14.939  0.00  0.00    +0.000 C 
ATOM     30  O   UNL     1      -2.486   9.653  15.669  0.00  0.00    +0.000 OA
ENDBRANCH  23  30
BRANCH  26  31
ATOM     31  O   UNL     1      -1.309  12.304  20.345  0.00  0.00    +0.000 OA
ATOM     32  C   UNL     1      -1.647  12.020  21.683  0.00  0.00    +0.000 C 
ENDBRANCH  26  31
ENDBRANCH  20  27
ENDBRANCH  18  20
ENDBRANCH   1  18
TORSDOF 8
ENDMDL
MODEL 4
REMARK VINA RESULT:      -7.8      5.713      9.169
REMARK  Name = 
REMARK  10 active torsions:
REMARK  status: ('A' for Active; 'I' for Inactive)
REMARK    1  A    between atoms: C_1  and  O_2
REMARK    2  A    between atoms: O_2  and  C_3
REMARK    3  A    between atoms: C_6  and  O_7
REMARK    4  A    between atoms: O_7  and  C_8
REMARK    5  A    between atoms: C_9  and  S_10
REMARK    6  A    between atoms: S_10  and  N_13
REMARK    7  A    between atoms: N_13  and  N_14
REMARK    8  A    between atoms: C_15  and  C_16
REMARK    9  A    between atoms: N_18  and  C_19
REMARK   10  A    between atoms: C_19  and  C_20
REMARK                            x       y       z     vdW  Elec       q    Type
REMARK                         _______ _______ _______ _____ _____    ______ ____
ROOT
ATOM      1  N   UNL     1       7.711   8.334  17.585  0.00  0.00    +0.000 NA
ATOM      2  C   UNL     1       8.136   9.572  17.704  0.00  0.00    +0.000 C 
ENDROOT
BRANCH   2   3
ATOM      3  C   UNL     1       9.059  10.174  18.669  0.00  0.00    +0.000 A 
ATOM      4  C   UNL     1       9.145   9.911  20.028  0.00  0.00    +0.000 A 
ATOM      5  N   UNL     1       9.551  11.104  20.591  0.00  0.00    +0.000 N 
ATOM      6  C   UNL     1      10.559  11.551  19.771  0.00  0.00    +0.000 A 
ATOM      7  C   UNL     1      11.629  12.402  20.070  0.00  0.00    +0.000 A 
ATOM      8  C   UNL     1      12.333  12.922  18.989  0.00  0.00    +0.000 A 
ATOM      9  C   UNL     1      11.930  12.634  17.685  0.00  0.00    +0.000 A 
ATOM     10  C   UNL     1      10.833  11.782  17.410  0.00  0.00    +0.000 A 
ATOM     11  C   UNL     1      10.143  11.165  18.487  0.00  0.00    +0.000 A 
BRANCH   5  12
ATOM     12  C   UNL     1       8.597  12.090  21.114  0.00  0.00    +0.000 C 
BRANCH  12  13
ATOM     13  C   UNL     1       8.291  11.902  22.568  0.00  0.00    +0.000 C 
ATOM     14  N   UNL     1       9.190  12.429  23.435  0.00  0.00    +0.000 N 
ATOM     15  O   UNL     1       7.303  11.290  22.970  0.00  0.00    +0.000 OA
ATOM     16  H   UNL     1       9.843  13.157  23.163  0.00  0.00    +0.000 HD
ATOM     17  H   UNL     1       8.973  12.343  24.419  0.00  0.00    +0.000 HD
ENDBRANCH  12  13
ENDBRANCH   5  12
ENDBRANCH   2   3
BRANCH   1  18
ATOM     18  N   UNL     1       8.248   7.258  18.392  0.00  0.00    +0.000 N 
ATOM     19  H   UNL     1       9.258   7.122  18.430  0.00  0.00    +0.000 HD
BRANCH  18  20
ATOM     20  S   UNL     1       7.470   5.741  18.648  0.00  0.00    +0.000 S 
ATOM     21  O   UNL     1       7.695   5.409  20.042  0.00  0.00    +0.000 OA
ATOM     22  O   UNL     1       7.968   4.868  17.628  0.00  0.00    +0.000 OA
BRANCH  20  27
ATOM     23  C   UNL     1       3.498   5.532  19.406  0.00  0.00    +0.000 A 
ATOM     24  C   UNL     1       2.902   6.051  18.267  0.00  0.00    +0.000 A 
ATOM     25  C   UNL     1       3.692   6.403  17.174  0.00  0.00    +0.000 A 
ATOM     26  C   UNL     1       5.099   6.304  17.202  0.00  0.00    +0.000 A 
ATOM     27  C   UNL     1       5.714   5.924  18.401  0.00  0.00    +0.000 A 
ATOM     28  C   UNL     1       4.893   5.486  19.481  0.00  0.00    +0.000 A 
BRANCH  23  30
ATOM     29  C   UNL     1       1.657   4.158  19.995  0.00  0.00    +0.000 C 
ATOM     30  O   UNL     1       2.624   5.131  20.377  0.00  0.00    +0.000 OA
ENDBRANCH  23  30
BRANCH  26  31
ATOM     31  O   UNL     1       5.603   6.458  15.946  0.00  0.00    +0.000 OA
ATOM     32  C   UNL     1       5.679   5.360  15.066  0.00  0.00    +0.000 C 
ENDBRANCH  26  31
ENDBRANCH  20  27
ENDBRANCH  18  20
ENDBRANCH   1  18
TORSDOF 8
ENDMDL
MODEL 5
REMARK VINA RESULT:      -7.7      1.764      2.125
REMARK  Name = 
REMARK  10 active torsions:
REMARK  status: ('A' for Active; 'I' for Inactive)
REMARK    1  A    between atoms: C_1  and  O_2
REMARK    2  A    between atoms: O_2  and  C_3
REMARK    3  A    between atoms: C_6  and  O_7
REMARK    4  A    between atoms: O_7  and  C_8
REMARK    5  A    between atoms: C_9  and  S_10
REMARK    6  A    between atoms: S_10  and  N_13
REMARK    7  A    between atoms: N_13  and  N_14
REMARK    8  A    between atoms: C_15  and  C_16
REMARK    9  A    between atoms: N_18  and  C_19
REMARK   10  A    between atoms: C_19  and  C_20
REMARK                            x       y       z     vdW  Elec       q    Type
REMARK                         _______ _______ _______ _____ _____    ______ ____
ROOT
ATOM      1  N   UNL     1       1.997   8.162  19.204  0.00  0.00    +0.000 NA
ATOM      2  C   UNL     1       2.548   7.152  18.569  0.00  0.00    +0.000 C 
ENDROOT
BRANCH   2   3
ATOM      3  C   UNL     1       3.152   5.919  19.080  0.00  0.00    +0.000 A 
ATOM      4  C   UNL     1       4.458   5.487  18.905  0.00  0.00    +0.000 A 
ATOM      5  N   UNL     1       4.372   4.109  18.886  0.00  0.00    +0.000 N 
ATOM      6  C   UNL     1       3.532   3.799  19.929  0.00  0.00    +0.000 A 
ATOM      7  C   UNL     1       3.452   2.619  20.677  0.00  0.00    +0.000 A 
ATOM      8  C   UNL     1       2.325   2.464  21.477  0.00  0.00    +0.000 A 
ATOM      9  C   UNL     1       1.318   3.428  21.465  0.00  0.00    +0.000 A 
ATOM     10  C   UNL     1       1.416   4.607  20.685  0.00  0.00    +0.000 A 
ATOM     11  C   UNL     1       2.590   4.840  19.923  0.00  0.00    +0.000 A 
BRANCH   5  12
ATOM     12  C   UNL     1       4.235   3.349  17.638  0.00  0.00    +0.000 C 
BRANCH  12  13
ATOM     13  C   UNL     1       2.832   2.899  17.370  0.00  0.00    +0.000 C 
ATOM     14  N   UNL     1       2.551   1.612  17.692  0.00  0.00    +0.000 N 
ATOM     15  O   UNL     1       1.980   3.630  16.869  0.00  0.00    +0.000 OA
ATOM     16  H   UNL     1       3.118   1.080  18.343  0.00  0.00    +0.000 HD
ATOM     17  H   UNL     1       1.596   1.310  17.553  0.00  0.00    +0.000 HD
ENDBRANCH  12  13
ENDBRANCH   5  12
ENDBRANCH   2   3
BRANCH   1  18
ATOM     18  N   UNL     1       1.771   8.137  20.635  0.00  0.00    +0.000 N 
ATOM     19  H   UNL     1       1.878   7.257  21.139  0.00  0.00    +0.000 HD
BRANCH  18  20
ATOM     20  S   UNL     1       0.624   9.120  21.464  0.00  0.00    +0.000 S 
ATOM     21  O   UNL     1       1.337   9.705  22.585  0.00  0.00    +0.000 OA
ATOM     22  O   UNL     1      -0.508   8.278  21.712  0.00  0.00    +0.000 OA
BRANCH  20  27
ATOM     23  C   UNL     1      -1.199  10.990  18.369  0.00  0.00    +0.000 A 
ATOM     24  C   UNL     1      -0.857  12.325  18.523  0.00  0.00    +0.000 A 
ATOM     25  C   UNL     1       0.027  12.698  19.533  0.00  0.00    +0.000 A 
ATOM     26  C   UNL     1       0.552  11.768  20.454  0.00  0.00    +0.000 A 
ATOM     27  C   UNL     1       0.093  10.446  20.396  0.00  0.00    +0.000 A 
ATOM     28  C   UNL     1      -0.743  10.061  19.308  0.00  0.00    +0.000 A 
BRANCH  23  30
ATOM     29  C   UNL     1      -3.176   9.972  17.547  0.00  0.00    +0.000 C 
ATOM     30  O   UNL     1      -1.994  10.723  17.290  0.00  0.00    +0.000 OA
ENDBRANCH  23  30
BRANCH  26  31
ATOM     31  O   UNL     1       1.572  12.332  21.159  0.00  0.00    +0.000 OA
ATOM     32  C   UNL     1       2.347  13.364  20.594  0.00  0.00    +0.000 C 
ENDBRANCH  26  31
ENDBRANCH  20  27
ENDBRANCH  18  20
ENDBRANCH   1  18
TORSDOF 8
ENDMDL
MODEL 6
REMARK VINA RESULT:      -7.6      2.025      3.144
REMARK  Name = 
REMARK  10 active torsions:
REMARK  status: ('A' for Active; 'I' for Inactive)
REMARK    1  A    between atoms: C_1  and  O_2
REMARK    2  A    between atoms: O_2  and  C_3
REMARK    3  A    between atoms: C_6  and  O_7
REMARK    4  A    between atoms: O_7  and  C_8
REMARK    5  A    between atoms: C_9  and  S_10
REMARK    6  A    between atoms: S_10  and  N_13
REMARK    7  A    between atoms: N_13  and  N_14
REMARK    8  A    between atoms: C_15  and  C_16
REMARK    9  A    between atoms: N_18  and  C_19
REMARK   10  A    between atoms: C_19  and  C_20
REMARK                            x       y       z     vdW  Elec       q    Type
REMARK                         _______ _______ _______ _____ _____    ______ ____
ROOT
ATOM      1  N   UNL     1       2.592   8.581  17.276  0.00  0.00    +0.000 NA
ATOM      2  C   UNL     1       3.442   7.580  17.263  0.00  0.00    +0.000 C 
ENDROOT
BRANCH   2   3
ATOM      3  C   UNL     1       3.602   6.453  18.185  0.00  0.00    +0.000 A 
ATOM      4  C   UNL     1       4.462   6.371  19.270  0.00  0.00    +0.000 A 
ATOM      5  N   UNL     1       4.793   5.033  19.354  0.00  0.00    +0.000 N 
ATOM      6  C   UNL     1       3.602   4.369  19.193  0.00  0.00    +0.000 A 
ATOM      7  C   UNL     1       3.233   3.096  19.641  0.00  0.00    +0.000 A 
ATOM      8  C   UNL     1       2.075   2.553  19.094  0.00  0.00    +0.000 A 
ATOM      9  C   UNL     1       1.374   3.246  18.107  0.00  0.00    +0.000 A 
ATOM     10  C   UNL     1       1.779   4.527  17.658  0.00  0.00    +0.000 A 
ATOM     11  C   UNL     1       2.906   5.149  18.256  0.00  0.00    +0.000 A 
BRANCH   5  12
ATOM     12  C   UNL     1       5.988   4.479  18.705  0.00  0.00    +0.000 C 
BRANCH  12  13
ATOM     13  C   UNL     1       7.157   5.413  18.721  0.00  0.00    +0.000 C 
ATOM     14  N   UNL     1       7.875   5.444  19.871  0.00  0.00    +0.000 N 
ATOM     15  O   UNL     1       7.451   6.134  17.770  0.00  0.00    +0.000 OA
ATOM     16  H   UNL     1       7.842   4.691  20.550  0.00  0.00    +0.000 HD
ATOM     17  H   UNL     1       8.691   6.041  19.879  0.00  0.00    +0.000 HD
ENDBRANCH  12  13
ENDBRANCH   5  12
ENDBRANCH   2   3
BRANCH   1  18
ATOM     18  N   UNL     1       1.501   8.651  18.227  0.00  0.00    +0.000 N 
ATOM     19  H   UNL     1       0.839   7.877  18.281  0.00  0.00    +0.000 HD
BRANCH  18  20
ATOM     20  S   UNL     1       0.704  10.103  18.702  0.00  0.00    +0.000 S 
ATOM     21  O   UNL     1      -0.532  10.145  17.943  0.00  0.00    +0.000 OA
ATOM     22  O   UNL     1       1.667  11.150  18.538  0.00  0.00    +0.000 OA
BRANCH  20  27
ATOM     23  C   UNL     1      -0.748  11.232  22.310  0.00  0.00    +0.000 A 
ATOM     24  C   UNL     1      -0.458  10.166  23.147  0.00  0.00    +0.000 A 
ATOM     25  C   UNL     1       0.283   9.090  22.662  0.00  0.00    +0.000 A 
ATOM     26  C   UNL     1       0.705   9.013  21.319  0.00  0.00    +0.000 A 
ATOM     27  C   UNL     1       0.286  10.014  20.433  0.00  0.00    +0.000 A 
ATOM     28  C   UNL     1      -0.397  11.149  20.960  0.00  0.00    +0.000 A 
BRANCH  23  30
ATOM     29  C   UNL     1      -2.770  12.077  23.214  0.00  0.00    +0.000 C 
ATOM     30  O   UNL     1      -1.393  12.275  22.914  0.00  0.00    +0.000 OA
ENDBRANCH  23  30
BRANCH  26  31
ATOM     31  O   UNL     1       1.614   8.009  21.171  0.00  0.00    +0.000 OA
ATOM     32  C   UNL     1       1.191   6.667  21.092  0.00  0.00    +0.000 C 
ENDBRANCH  26  31
ENDBRANCH  20  27
ENDBRANCH  18  20
ENDBRANCH   1  18
TORSDOF 8
ENDMDL
MODEL 7
REMARK VINA RESULT:      -7.5      1.519      2.593
REMARK  Name = 
REMARK  10 active torsions:
REMARK  status: ('A' for Active; 'I' for Inactive)
REMARK    1  A    between atoms: C_1  and  O_2
REMARK    2  A    between atoms: O_2  and  C_3
REMARK    3  A    between atoms: C_6  and  O_7
REMARK    4  A    between atoms: O_7  and  C_8
REMARK    5  A    between atoms: C_9  and  S_10
REMARK    6  A    between atoms: S_10  and  N_13
REMARK    7  A    between atoms: N_13  and  N_14
REMARK    8  A    between atoms: C_15  and  C_16
REMARK    9  A    between atoms: N_18  and  C_19
REMARK   10  A    between atoms: C_19  and  C_20
REMARK                            x       y       z     vdW  Elec       q    Type
REMARK                         _______ _______ _______ _____ _____    ______ ____
ROOT
ATOM      1  N   UNL     1       1.978   8.785  18.708  0.00  0.00    +0.000 NA
ATOM      2  C   UNL     1       2.719   8.188  17.803  0.00  0.00    +0.000 C 
ENDROOT
BRANCH   2   3
ATOM      3  C   UNL     1       3.396   6.889  17.830  0.00  0.00    +0.000 A 
ATOM      4  C   UNL     1       4.760   6.654  17.906  0.00  0.00    +0.000 A 
ATOM      5  N   UNL     1       4.952   5.479  17.207  0.00  0.00    +0.000 N 
ATOM      6  C   UNL     1       3.946   4.648  17.638  0.00  0.00    +0.000 A 
ATOM      7  C   UNL     1       3.903   3.250  17.662  0.00  0.00    +0.000 A 
ATOM      8  C   UNL     1       2.659   2.667  17.875  0.00  0.00    +0.000 A 
ATOM      9  C   UNL     1       1.522   3.466  17.997  0.00  0.00    +0.000 A 
ATOM     10  C   UNL     1       1.590   4.880  17.953  0.00  0.00    +0.000 A 
ATOM     11  C   UNL     1       2.854   5.512  17.822  0.00  0.00    +0.000 A 
BRANCH   5  12
ATOM     12  C   UNL     1       5.299   5.462  15.780  0.00  0.00    +0.000 C 
BRANCH  12  13
ATOM     13  C   UNL     1       6.472   4.585  15.467  0.00  0.00    +0.000 C 
ATOM     14  N   UNL     1       7.544   4.715  16.287  0.00  0.00    +0.000 N 
ATOM     15  O   UNL     1       6.490   3.807  14.516  0.00  0.00    +0.000 OA
ATOM     16  H   UNL     1       7.470   5.121  17.214  0.00  0.00    +0.000 HD
ATOM     17  H   UNL     1       8.325   4.099  16.110  0.00  0.00    +0.000 HD
ENDBRANCH  12  13
ENDBRANCH   5  12
ENDBRANCH   2   3
BRANCH   1  18
ATOM     18  N   UNL     1       1.579   8.122  19.933  0.00  0.00    +0.000 N 
ATOM     19  H   UNL     1       1.346   7.130  19.907  0.00  0.00    +0.000 HD
BRANCH  18  20
ATOM     20  S   UNL     1       0.699   8.870  21.213  0.00  0.00    +0.000 S 
ATOM     21  O   UNL     1       1.659   9.099  22.276  0.00  0.00    +0.000 OA
ATOM     22  O   UNL     1      -0.431   8.025  21.456  0.00  0.00    +0.000 OA
BRANCH  20  27
ATOM     23  C   UNL     1      -0.285  12.796  21.342  0.00  0.00    +0.000 A 
ATOM     24  C   UNL     1      -0.839  13.053  20.098  0.00  0.00    +0.000 A 
ATOM     25  C   UNL     1      -1.021  12.008  19.194  0.00  0.00    +0.000 A 
ATOM     26  C   UNL     1      -0.606  10.690  19.476  0.00  0.00    +0.000 A 
ATOM     27  C   UNL     1       0.088  10.454  20.669  0.00  0.00    +0.000 A 
ATOM     28  C   UNL     1       0.192  11.512  21.619  0.00  0.00    +0.000 A 
BRANCH  23  30
ATOM     29  C   UNL     1      -1.165  13.864  23.267  0.00  0.00    +0.000 C 
ATOM     30  O   UNL     1      -0.242  13.872  22.183  0.00  0.00    +0.000 OA
ENDBRANCH  23  30
BRANCH  26  31
ATOM     31  O   UNL     1      -1.125   9.830  18.557  0.00  0.00    +0.000 OA
ATOM     32  C   UNL     1      -2.284  10.171  17.832  0.00  0.00    +0.000 C 
ENDBRANCH  26  31
ENDBRANCH  20  27
ENDBRANCH  18  20
ENDBRANCH   1  18
TORSDOF 8
ENDMDL
MODEL 8
REMARK VINA RESULT:      -7.4      1.421      2.726
REMARK  Name = 
REMARK  10 active torsions:
REMARK  status: ('A' for Active; 'I' for Inactive)
REMARK    1  A    between atoms: C_1  and  O_2
REMARK    2  A    between atoms: O_2  and  C_3
REMARK    3  A    between atoms: C_6  and  O_7
REMARK    4  A    between atoms: O_7  and  C_8
REMARK    5  A    between atoms: C_9  and  S_10
REMARK    6  A    between atoms: S_10  and  N_13
REMARK    7  A    between atoms: N_13  and  N_14
REMARK    8  A    between atoms: C_15  and  C_16
REMARK    9  A    between atoms: N_18  and  C_19
REMARK   10  A    between atoms: C_19  and  C_20
REMARK                            x       y       z     vdW  Elec       q    Type
REMARK                         _______ _______ _______ _____ _____    ______ ____
ROOT
ATOM      1  N   UNL     1       1.930   8.293  19.122  0.00  0.00    +0.000 NA
ATOM      2  C   UNL     1       2.595   7.353  18.489  0.00  0.00    +0.000 C 
ENDROOT
BRANCH   2   3
ATOM      3  C   UNL     1       3.184   6.106  18.982  0.00  0.00    +0.000 A 
ATOM      4  C   UNL     1       4.524   5.746  18.968  0.00  0.00    +0.000 A 
ATOM      5  N   UNL     1       4.516   4.373  18.825  0.00  0.00    +0.000 N 
ATOM      6  C   UNL     1       3.553   3.936  19.701  0.00  0.00    +0.000 A 
ATOM      7  C   UNL     1       3.429   2.692  20.330  0.00  0.00    +0.000 A 
ATOM      8  C   UNL     1       2.209   2.419  20.938  0.00  0.00    +0.000 A 
ATOM      9  C   UNL     1       1.162   3.338  20.855  0.00  0.00    +0.000 A 
ATOM     10  C   UNL     1       1.308   4.584  20.197  0.00  0.00    +0.000 A 
ATOM     11  C   UNL     1       2.566   4.933  19.640  0.00  0.00    +0.000 A 
BRANCH   5  12
ATOM     12  C   UNL     1       4.603   3.721  17.512  0.00  0.00    +0.000 C 
BRANCH  12  13
ATOM     13  C   UNL     1       5.671   4.299  16.635  0.00  0.00    +0.000 C 
ATOM     14  N   UNL     1       5.242   4.897  15.496  0.00  0.00    +0.000 N 
ATOM     15  O   UNL     1       6.869   4.224  16.901  0.00  0.00    +0.000 OA
ATOM     16  H   UNL     1       4.287   5.219  15.380  0.00  0.00    +0.000 HD
ATOM     17  H   UNL     1       5.951   5.326  14.917  0.00  0.00    +0.000 HD
ENDBRANCH  12  13
ENDBRANCH   5  12
ENDBRANCH   2   3
BRANCH   1  18
ATOM     18  N   UNL     1       1.537   8.154  20.509  0.00  0.00    +0.000 N 
ATOM     19  H   UNL     1       1.268   7.235  20.859  0.00  0.00    +0.000 HD
BRANCH  18  20
ATOM     20  S   UNL     1       0.714   9.363  21.422  0.00  0.00    +0.000 S 
ATOM     21  O   UNL     1       1.614   9.729  22.500  0.00  0.00    +0.000 OA
ATOM     22  O   UNL     1      -0.570   8.811  21.734  0.00  0.00    +0.000 OA
BRANCH  20  27
ATOM     23  C   UNL     1       0.932  13.213  20.187  0.00  0.00    +0.000 A 
ATOM     24  C   UNL     1       0.183  13.244  19.021  0.00  0.00    +0.000 A 
ATOM     25  C   UNL     1      -0.503  12.102  18.611  0.00  0.00    +0.000 A 
ATOM     26  C   UNL     1      -0.417  10.882  19.314  0.00  0.00    +0.000 A 
ATOM     27  C   UNL     1       0.457  10.805  20.405  0.00  0.00    +0.000 A 
ATOM     28  C   UNL     1       1.084  12.000  20.863  0.00  0.00    +0.000 A 
BRANCH  23  30
ATOM     29  C   UNL     1       2.111  15.155  19.507  0.00  0.00    +0.000 C 
ATOM     30  O   UNL     1       1.482  14.412  20.546  0.00  0.00    +0.000 OA
ENDBRANCH  23  30
BRANCH  26  31
ATOM     31  O   UNL     1      -1.367  10.016  18.863  0.00  0.00    +0.000 OA
ATOM     32  C   UNL     1      -1.800  10.062  17.523  0.00  0.00    +0.000 C 
ENDBRANCH  26  31
ENDBRANCH  20  27
ENDBRANCH  18  20
ENDBRANCH   1  18
TORSDOF 8
ENDMDL
MODEL 9
REMARK VINA RESULT:      -7.4      1.501      2.054
REMARK  Name = 
REMARK  10 active torsions:
REMARK  status: ('A' for Active; 'I' for Inactive)
REMARK    1  A    between atoms: C_1  and  O_2
REMARK    2  A    between atoms: O_2  and  C_3
REMARK    3  A    between atoms: C_6  and  O_7
REMARK    4  A    between atoms: O_7  and  C_8
REMARK    5  A    between atoms: C_9  and  S_10
REMARK    6  A    between atoms: S_10  and  N_13
REMARK    7  A    between atoms: N_13  and  N_14
REMARK    8  A    between atoms: C_15  and  C_16
REMARK    9  A    between atoms: N_18  and  C_19
REMARK   10  A    between atoms: C_19  and  C_20
REMARK                            x       y       z     vdW  Elec       q    Type
REMARK                         _______ _______ _______ _____ _____    ______ ____
ROOT
ATOM      1  N   UNL     1       2.072   8.239  18.903  0.00  0.00    +0.000 NA
ATOM      2  C   UNL     1       2.625   7.356  18.103  0.00  0.00    +0.000 C 
ENDROOT
BRANCH   2   3
ATOM      3  C   UNL     1       3.245   6.061  18.395  0.00  0.00    +0.000 A 
ATOM      4  C   UNL     1       4.563   5.822  18.755  0.00  0.00    +0.000 A 
ATOM      5  N   UNL     1       4.848   4.577  18.233  0.00  0.00    +0.000 N 
ATOM      6  C   UNL     1       3.754   3.807  18.546  0.00  0.00    +0.000 A 
ATOM      7  C   UNL     1       3.666   2.420  18.707  0.00  0.00    +0.000 A 
ATOM      8  C   UNL     1       2.387   1.876  18.737  0.00  0.00    +0.000 A 
ATOM      9  C   UNL     1       1.272   2.693  18.554  0.00  0.00    +0.000 A 
ATOM     10  C   UNL     1       1.389   4.094  18.376  0.00  0.00    +0.000 A 
ATOM     11  C   UNL     1       2.674   4.696  18.426  0.00  0.00    +0.000 A 
BRANCH   5  12
ATOM     12  C   UNL     1       5.459   4.403  16.909  0.00  0.00    +0.000 C 
BRANCH  12  13
ATOM     13  C   UNL     1       6.816   5.026  16.798  0.00  0.00    +0.000 C 
ATOM     14  N   UNL     1       7.818   4.386  17.450  0.00  0.00    +0.000 N 
ATOM     15  O   UNL     1       7.025   6.067  16.177  0.00  0.00    +0.000 OA
ATOM     16  H   UNL     1       7.749   3.412  17.726  0.00  0.00    +0.000 HD
ATOM     17  H   UNL     1       8.745   4.776  17.348  0.00  0.00    +0.000 HD
ENDBRANCH  12  13
ENDBRANCH   5  12
ENDBRANCH   2   3
BRANCH   1  18
ATOM     18  N   UNL     1       1.863   7.973  20.312  0.00  0.00    +0.000 N 
ATOM     19  H   UNL     1       1.816   7.007  20.633  0.00  0.00    +0.000 HD
BRANCH  18  20
ATOM     20  S   UNL     1       0.923   8.960  21.368  0.00  0.00    +0.000 S 
ATOM     21  O   UNL     1       1.778   9.255  22.502  0.00  0.00    +0.000 OA
ATOM     22  O   UNL     1      -0.304   8.252  21.576  0.00  0.00    +0.000 OA
BRANCH  20  27
ATOM     23  C   UNL     1       1.339  12.165  18.927  0.00  0.00    +0.000 A 
ATOM     24  C   UNL     1       0.200  12.921  19.155  0.00  0.00    +0.000 A 
ATOM     25  C   UNL     1      -0.704  12.527  20.139  0.00  0.00    +0.000 A 
ATOM     26  C   UNL     1      -0.534  11.342  20.885  0.00  0.00    +0.000 A 
ATOM     27  C   UNL     1       0.534  10.498  20.555  0.00  0.00    +0.000 A 
ATOM     28  C   UNL     1       1.496  10.953  19.607  0.00  0.00    +0.000 A 
BRANCH  23  30
ATOM     29  C   UNL     1       2.733  13.980  18.308  0.00  0.00    +0.000 C 
ATOM     30  O   UNL     1       2.203  12.692  18.009  0.00  0.00    +0.000 OA
ENDBRANCH  23  30
BRANCH  26  31
ATOM     31  O   UNL     1      -1.398  11.325  21.938  0.00  0.00    +0.000 OA
ATOM     32  C   UNL     1      -1.325  12.314  22.939  0.00  0.00    +0.000 C 
ENDBRANCH  26  31
ENDBRANCH  20  27
ENDBRANCH  18  20
ENDBRANCH   1  18
TORSDOF 8
ENDMDL
