MODEL 1
REMARK VINA RESULT:      -5.7      0.000      0.000
REMARK  Name = 
REMARK  3 active torsions:
REMARK  status: ('A' for Active; 'I' for Inactive)
REMARK    1  A    between atoms: C_2  and  O_3
REMARK    2  A    between atoms: C_2  and  C_10
REMARK    3  A    between atoms: O_3  and  C_4
REMARK                            x       y       z     vdW  Elec       q    Type
REMARK                         _______ _______ _______ _____ _____    ______ ____
ROOT
ATOM      1  O   UNL     1       5.696   4.067  19.075  0.00  0.00    +0.000 OA
ENDROOT
BRANCH   1   2
ATOM      2  C   UNL     1       4.347   4.197  18.678  0.00  0.00    +0.000 A 
ATOM      3  C   UNL     1       3.929   3.327  17.670  0.00  0.00    +0.000 A 
ATOM      4  C   UNL     1       2.596   3.341  17.254  0.00  0.00    +0.000 A 
ATOM      5  C   UNL     1       1.690   4.217  17.852  0.00  0.00    +0.000 A 
ATOM      6  C   UNL     1       2.114   5.076  18.867  0.00  0.00    +0.000 A 
ATOM      7  C   UNL     1       3.444   5.063  19.290  0.00  0.00    +0.000 A 
ENDBRANCH   1   2
BRANCH   1   9
ATOM      8  O   UNL     1       7.282   5.490  20.013  0.00  0.00    +0.000 OA
ATOM      9  C   UNL     1       6.610   5.122  19.052  0.00  0.00    +0.000 C 
BRANCH   9  10
ATOM     10  C   UNL     1       6.682   5.788  17.690  0.00  0.00    +0.000 C 
ATOM     11 CL   UNL     1       7.734   7.216  17.801  0.00  0.00    +0.000 Cl
ATOM     12 CL   UNL     1       7.247   4.721  16.385  0.00  0.00    +0.000 Cl
ENDBRANCH   9  10
ENDBRANCH   1   9
TORSDOF 3
ENDMDL
MODEL 2
REMARK VINA RESULT:      -5.7      0.117      1.400
REMARK  Name = 
REMARK  3 active torsions:
REMARK  status: ('A' for Active; 'I' for Inactive)
REMARK    1  A    between atoms: C_2  and  O_3
REMARK    2  A    between atoms: C_2  and  C_10
REMARK    3  A    between atoms: O_3  and  C_4
REMARK                            x       y       z     vdW  Elec       q    Type
REMARK                         _______ _______ _______ _____ _____    ______ ____
ROOT
ATOM      1  O   UNL     1       5.743   4.009  19.119  0.00  0.00    +0.000 OA
ENDROOT
BRANCH   1   2
ATOM      2  C   UNL     1       4.400   4.056  18.688  0.00  0.00    +0.000 A 
ATOM      3  C   UNL     1       3.600   5.014  19.311  0.00  0.00    +0.000 A 
ATOM      4  C   UNL     1       2.272   5.175  18.908  0.00  0.00    +0.000 A 
ATOM      5  C   UNL     1       1.757   4.384  17.881  0.00  0.00    +0.000 A 
ATOM      6  C   UNL     1       2.567   3.435  17.255  0.00  0.00    +0.000 A 
ATOM      7  C   UNL     1       3.896   3.274  17.651  0.00  0.00    +0.000 A 
ENDBRANCH   1   2
BRANCH   1   9
ATOM      8  O   UNL     1       7.252   5.537  20.020  0.00  0.00    +0.000 OA
ATOM      9  C   UNL     1       6.607   5.105  19.067  0.00  0.00    +0.000 C 
BRANCH   9  10
ATOM     10  C   UNL     1       6.659   5.727  17.683  0.00  0.00    +0.000 C 
ATOM     11 CL   UNL     1       7.683   7.180  17.743  0.00  0.00    +0.000 Cl
ATOM     12 CL   UNL     1       7.241   4.630  16.411  0.00  0.00    +0.000 Cl
ENDBRANCH   9  10
ENDBRANCH   1   9
TORSDOF 3
ENDMDL
MODEL 3
REMARK VINA RESULT:      -5.6      0.926      1.545
REMARK  Name = 
REMARK  3 active torsions:
REMARK  status: ('A' for Active; 'I' for Inactive)
REMARK    1  A    between atoms: C_2  and  O_3
REMARK    2  A    between atoms: C_2  and  C_10
REMARK    3  A    between atoms: O_3  and  C_4
REMARK                            x       y       z     vdW  Elec       q    Type
REMARK                         _______ _______ _______ _____ _____    ______ ____
ROOT
ATOM      1  O   UNL     1       4.792   5.307  19.474  0.00  0.00    +0.000 OA
ENDROOT
BRANCH   1   2
ATOM      2  C   UNL     1       3.974   4.279  18.957  0.00  0.00    +0.000 A 
ATOM      3  C   UNL     1       2.808   4.701  18.318  0.00  0.00    +0.000 A 
ATOM      4  C   UNL     1       1.967   3.760  17.721  0.00  0.00    +0.000 A 
ATOM      5  C   UNL     1       2.300   2.406  17.761  0.00  0.00    +0.000 A 
ATOM      6  C   UNL     1       3.474   1.993  18.393  0.00  0.00    +0.000 A 
ATOM      7  C   UNL     1       4.321   2.930  18.986  0.00  0.00    +0.000 A 
ENDBRANCH   1   2
BRANCH   1   9
ATOM      8  O   UNL     1       7.066   5.288  19.976  0.00  0.00    +0.000 OA
ATOM      9  C   UNL     1       6.149   5.437  19.171  0.00  0.00    +0.000 C 
BRANCH   9  10
ATOM     10  C   UNL     1       6.377   5.802  17.715  0.00  0.00    +0.000 C 
ATOM     11 CL   UNL     1       7.605   7.085  17.627  0.00  0.00    +0.000 Cl
ATOM     12 CL   UNL     1       6.859   4.433  16.688  0.00  0.00    +0.000 Cl
ENDBRANCH   9  10
ENDBRANCH   1   9
TORSDOF 3
ENDMDL
MODEL 4
REMARK VINA RESULT:      -5.5      1.657      1.911
REMARK  Name = 
REMARK  3 active torsions:
REMARK  status: ('A' for Active; 'I' for Inactive)
REMARK    1  A    between atoms: C_2  and  O_3
REMARK    2  A    between atoms: C_2  and  C_10
REMARK    3  A    between atoms: O_3  and  C_4
REMARK                            x       y       z     vdW  Elec       q    Type
REMARK                         _______ _______ _______ _____ _____    ______ ____
ROOT
ATOM      1  O   UNL     1       3.971   5.793  19.340  0.00  0.00    +0.000 OA
ENDROOT
BRANCH   1   2
ATOM      2  C   UNL     1       2.880   4.911  19.502  0.00  0.00    +0.000 A 
ATOM      3  C   UNL     1       2.402   4.323  18.331  0.00  0.00    +0.000 A 
ATOM      4  C   UNL     1       1.364   3.391  18.399  0.00  0.00    +0.000 A 
ATOM      5  C   UNL     1       0.818   3.048  19.636  0.00  0.00    +0.000 A 
ATOM      6  C   UNL     1       1.309   3.633  20.804  0.00  0.00    +0.000 A 
ATOM      7  C   UNL     1       2.350   4.561  20.742  0.00  0.00    +0.000 A 
ENDBRANCH   1   2
BRANCH   1   9
ATOM      8  O   UNL     1       5.888   4.471  19.330  0.00  0.00    +0.000 OA
ATOM      9  C   UNL     1       5.221   5.392  18.864  0.00  0.00    +0.000 C 
BRANCH   9  10
ATOM     10  C   UNL     1       5.684   6.237  17.691  0.00  0.00    +0.000 C 
ATOM     11 CL   UNL     1       7.453   6.396  17.757  0.00  0.00    +0.000 Cl
ATOM     12 CL   UNL     1       5.192   5.612  16.101  0.00  0.00    +0.000 Cl
ENDBRANCH   9  10
ENDBRANCH   1   9
TORSDOF 3
ENDMDL
MODEL 5
REMARK VINA RESULT:      -5.5      0.570      1.219
REMARK  Name = 
REMARK  3 active torsions:
REMARK  status: ('A' for Active; 'I' for Inactive)
REMARK    1  A    between atoms: C_2  and  O_3
REMARK    2  A    between atoms: C_2  and  C_10
REMARK    3  A    between atoms: O_3  and  C_4
REMARK                            x       y       z     vdW  Elec       q    Type
REMARK                         _______ _______ _______ _____ _____    ______ ____
ROOT
ATOM      1  O   UNL     1       5.894   4.081  18.818  0.00  0.00    +0.000 OA
ENDROOT
BRANCH   1   2
ATOM      2  C   UNL     1       4.528   4.299  18.533  0.00  0.00    +0.000 A 
ATOM      3  C   UNL     1       3.961   3.432  17.598  0.00  0.00    +0.000 A 
ATOM      4  C   UNL     1       2.601   3.532  17.298  0.00  0.00    +0.000 A 
ATOM      5  C   UNL     1       1.817   4.492  17.938  0.00  0.00    +0.000 A 
ATOM      6  C   UNL     1       2.389   5.348  18.881  0.00  0.00    +0.000 A 
ATOM      7  C   UNL     1       3.747   5.248  19.189  0.00  0.00    +0.000 A 
ENDBRANCH   1   2
BRANCH   1   9
ATOM      8  O   UNL     1       7.258   5.485  20.078  0.00  0.00    +0.000 OA
ATOM      9  C   UNL     1       6.818   5.113  18.992  0.00  0.00    +0.000 C 
BRANCH   9  10
ATOM     10  C   UNL     1       7.223   5.747  17.675  0.00  0.00    +0.000 C 
ATOM     11 CL   UNL     1       7.273   4.488  16.420  0.00  0.00    +0.000 Cl
ATOM     12 CL   UNL     1       6.170   7.080  17.151  0.00  0.00    +0.000 Cl
ENDBRANCH   9  10
ENDBRANCH   1   9
TORSDOF 3
ENDMDL
MODEL 6
REMARK VINA RESULT:      -5.5      1.621      2.015
REMARK  Name = 
REMARK  3 active torsions:
REMARK  status: ('A' for Active; 'I' for Inactive)
REMARK    1  A    between atoms: C_2  and  O_3
REMARK    2  A    between atoms: C_2  and  C_10
REMARK    3  A    between atoms: O_3  and  C_4
REMARK                            x       y       z     vdW  Elec       q    Type
REMARK                         _______ _______ _______ _____ _____    ______ ____
ROOT
ATOM      1  O   UNL     1       4.173   5.789  18.941  0.00  0.00    +0.000 OA
ENDROOT
BRANCH   1   2
ATOM      2  C   UNL     1       3.030   5.015  19.237  0.00  0.00    +0.000 A 
ATOM      3  C   UNL     1       2.488   4.305  18.165  0.00  0.00    +0.000 A 
ATOM      4  C   UNL     1       1.392   3.465  18.375  0.00  0.00    +0.000 A 
ATOM      5  C   UNL     1       0.852   3.334  19.654  0.00  0.00    +0.000 A 
ATOM      6  C   UNL     1       1.407   4.039  20.723  0.00  0.00    +0.000 A 
ATOM      7  C   UNL     1       2.505   4.876  20.520  0.00  0.00    +0.000 A 
ENDBRANCH   1   2
BRANCH   1   9
ATOM      8  O   UNL     1       5.976   4.380  19.370  0.00  0.00    +0.000 OA
ATOM      9  C   UNL     1       5.429   5.238  18.681  0.00  0.00    +0.000 C 
BRANCH   9  10
ATOM     10  C   UNL     1       6.067   5.831  17.438  0.00  0.00    +0.000 C 
ATOM     11 CL   UNL     1       4.823   6.691  16.504  0.00  0.00    +0.000 Cl
ATOM     12 CL   UNL     1       7.435   6.918  17.766  0.00  0.00    +0.000 Cl
ENDBRANCH   9  10
ENDBRANCH   1   9
TORSDOF 3
ENDMDL
MODEL 7
REMARK VINA RESULT:      -5.5      1.798      1.893
REMARK  Name = 
REMARK  3 active torsions:
REMARK  status: ('A' for Active; 'I' for Inactive)
REMARK    1  A    between atoms: C_2  and  O_3
REMARK    2  A    between atoms: C_2  and  C_10
REMARK    3  A    between atoms: O_3  and  C_4
REMARK                            x       y       z     vdW  Elec       q    Type
REMARK                         _______ _______ _______ _____ _____    ______ ____
ROOT
ATOM      1  O   UNL     1       4.973   3.345  19.574  0.00  0.00    +0.000 OA
ENDROOT
BRANCH   1   2
ATOM      2  C   UNL     1       3.563   3.344  19.636  0.00  0.00    +0.000 A 
ATOM      3  C   UNL     1       2.932   2.264  19.018  0.00  0.00    +0.000 A 
ATOM      4  C   UNL     1       1.542   2.147  19.079  0.00  0.00    +0.000 A 
ATOM      5  C   UNL     1       0.794   3.104  19.764  0.00  0.00    +0.000 A 
ATOM      6  C   UNL     1       1.433   4.176  20.389  0.00  0.00    +0.000 A 
ATOM      7  C   UNL     1       2.823   4.295  20.335  0.00  0.00    +0.000 A 
ENDBRANCH   1   2
BRANCH   1   9
ATOM      8  O   UNL     1       6.368   5.206  19.682  0.00  0.00    +0.000 OA
ATOM      9  C   UNL     1       5.720   4.391  19.029  0.00  0.00    +0.000 C 
BRANCH   9  10
ATOM     10  C   UNL     1       5.636   4.425  17.514  0.00  0.00    +0.000 C 
ATOM     11 CL   UNL     1       4.560   5.754  17.024  0.00  0.00    +0.000 Cl
ATOM     12 CL   UNL     1       7.208   4.590  16.700  0.00  0.00    +0.000 Cl
ENDBRANCH   9  10
ENDBRANCH   1   9
TORSDOF 3
ENDMDL
MODEL 8
REMARK VINA RESULT:      -5.5      1.809      2.362
REMARK  Name = 
REMARK  3 active torsions:
REMARK  status: ('A' for Active; 'I' for Inactive)
REMARK    1  A    between atoms: C_2  and  O_3
REMARK    2  A    between atoms: C_2  and  C_10
REMARK    3  A    between atoms: O_3  and  C_4
REMARK                            x       y       z     vdW  Elec       q    Type
REMARK                         _______ _______ _______ _____ _____    ______ ____
ROOT
ATOM      1  O   UNL     1       4.978   3.248  19.570  0.00  0.00    +0.000 OA
ENDROOT
BRANCH   1   2
ATOM      2  C   UNL     1       3.571   3.142  19.606  0.00  0.00    +0.000 A 
ATOM      3  C   UNL     1       2.910   4.130  20.335  0.00  0.00    +0.000 A 
ATOM      4  C   UNL     1       1.514   4.142  20.377  0.00  0.00    +0.000 A 
ATOM      5  C   UNL     1       0.790   3.171  19.685  0.00  0.00    +0.000 A 
ATOM      6  C   UNL     1       1.459   2.192  18.948  0.00  0.00    +0.000 A 
ATOM      7  C   UNL     1       2.854   2.179  18.899  0.00  0.00    +0.000 A 
ENDBRANCH   1   2
BRANCH   1   9
ATOM      8  O   UNL     1       6.262   5.188  19.676  0.00  0.00    +0.000 OA
ATOM      9  C   UNL     1       5.654   4.342  19.024  0.00  0.00    +0.000 C 
BRANCH   9  10
ATOM     10  C   UNL     1       5.548   4.382  17.511  0.00  0.00    +0.000 C 
ATOM     11 CL   UNL     1       4.460   5.709  17.044  0.00  0.00    +0.000 Cl
ATOM     12 CL   UNL     1       7.107   4.557  16.674  0.00  0.00    +0.000 Cl
ENDBRANCH   9  10
ENDBRANCH   1   9
TORSDOF 3
ENDMDL
MODEL 9
REMARK VINA RESULT:      -5.4      1.569      2.328
REMARK  Name = 
REMARK  3 active torsions:
REMARK  status: ('A' for Active; 'I' for Inactive)
REMARK    1  A    between atoms: C_2  and  O_3
REMARK    2  A    between atoms: C_2  and  C_10
REMARK    3  A    between atoms: O_3  and  C_4
REMARK                            x       y       z     vdW  Elec       q    Type
REMARK                         _______ _______ _______ _____ _____    ______ ____
ROOT
ATOM      1  O   UNL     1       4.197   5.923  18.762  0.00  0.00    +0.000 OA
ENDROOT
BRANCH   1   2
ATOM      2  C   UNL     1       3.123   5.043  19.019  0.00  0.00    +0.000 A 
ATOM      3  C   UNL     1       2.601   5.091  20.312  0.00  0.00    +0.000 A 
ATOM      4  C   UNL     1       1.499   4.300  20.642  0.00  0.00    +0.000 A 
ATOM      5  C   UNL     1       0.922   3.474  19.678  0.00  0.00    +0.000 A 
ATOM      6  C   UNL     1       1.443   3.441  18.383  0.00  0.00    +0.000 A 
ATOM      7  C   UNL     1       2.542   4.233  18.046  0.00  0.00    +0.000 A 
ENDBRANCH   1   2
BRANCH   1   9
ATOM      8  O   UNL     1       6.108   4.930  19.647  0.00  0.00    +0.000 OA
ATOM      9  C   UNL     1       5.533   5.519  18.734  0.00  0.00    +0.000 C 
BRANCH   9  10
ATOM     10  C   UNL     1       6.220   5.903  17.436  0.00  0.00    +0.000 C 
ATOM     11 CL   UNL     1       5.012   6.581  16.322  0.00  0.00    +0.000 Cl
ATOM     12 CL   UNL     1       7.568   7.045  17.634  0.00  0.00    +0.000 Cl
ENDBRANCH   9  10
ENDBRANCH   1   9
TORSDOF 3
ENDMDL
