MODEL 1
REMARK VINA RESULT:      -8.0      0.000      0.000
REMARK  Name = 
REMARK  10 active torsions:
REMARK  status: ('A' for Active; 'I' for Inactive)
REMARK    1  A    between atoms: C_1  and  N_2
REMARK    2  A    between atoms: N_2  and  C_3
REMARK    3  A    between atoms: C_3  and  C_4
REMARK    4  A    between atoms: C_9  and  N_10
REMARK    5  A    between atoms: N_13  and  C_14
REMARK    6  A    between atoms: N_27  and  C_28
REMARK    7  A    between atoms: C_28  and  C_29
REMARK    8  A    between atoms: C_28  and  C_30
REMARK    9  A    between atoms: C_30  and  O_31
REMARK   10  A    between atoms: C_33  and  C_34
REMARK                            x       y       z     vdW  Elec       q    Type
REMARK                         _______ _______ _______ _____ _____    ______ ____
ROOT
ATOM      1  C   UNL     1       3.083   2.378  18.898  0.00  0.00    +0.000 C 
ATOM      2  O   UNL     1       3.065   3.002  20.196  0.00  0.00    +0.000 OA
ATOM      3  C   UNL     1       2.778   4.320  20.230  0.00  0.00    +0.000 A 
ATOM      4  C   UNL     1       1.581   4.674  20.850  0.00  0.00    +0.000 A 
ATOM      5  C   UNL     1       1.137   5.994  20.797  0.00  0.00    +0.000 A 
ATOM      6  C   UNL     1       1.910   6.979  20.174  0.00  0.00    +0.000 A 
ATOM      7  C   UNL     1       3.160   6.638  19.653  0.00  0.00    +0.000 A 
ATOM      8  C   UNL     1       3.580   5.304  19.667  0.00  0.00    +0.000 A 
ATOM      9  C   UNL     1       4.890   5.031  19.060  0.00  0.00    +0.000 C 
ATOM     10  O   UNL     1       5.890   5.304  19.723  0.00  0.00    +0.000 OA
ATOM     11  N   UNL     1       4.958   4.651  17.719  0.00  0.00    +0.000 N 
ATOM     12  C   UNL     1       3.927   3.950  16.940  0.00  0.00    +0.000 C 
ATOM     13  C   UNL     1       2.761   3.197  17.603  0.00  0.00    +0.000 C 
ATOM     14  C   UNL     1       1.482   4.057  17.577  0.00  0.00    +0.000 C 
ENDROOT
BRANCH   6  15
ATOM     15  N   UNL     1       1.463   8.298  19.965  0.00  0.00    +0.000 N 
ATOM     16  C   UNL     1       1.167   9.221  20.946  0.00  0.00    +0.000 C 
ATOM     17  O   UNL     1       1.442   9.106  22.134  0.00  0.00    +0.000 OA
ATOM     18  N   UNL     1       0.440  10.279  20.422  0.00  0.00    +0.000 N 
ATOM     19  H   UNL     1       1.396   8.622  19.011  0.00  0.00    +0.000 HD
ATOM     20  H   UNL     1      -0.168  10.023  19.657  0.00  0.00    +0.000 HD
BRANCH  18  21
ATOM     21  C   UNL     1      -0.017  11.317  21.256  0.00  0.00    +0.000 A 
ATOM     22  C   UNL     1      -1.017  11.094  22.226  0.00  0.00    +0.000 A 
ATOM     23  C   UNL     1      -1.483  12.139  23.025  0.00  0.00    +0.000 A 
ATOM     24  C   UNL     1      -0.923  13.381  22.828  0.00  0.00    +0.000 A 
ATOM     25  C   UNL     1       0.051  13.598  21.878  0.00  0.00    +0.000 A 
ATOM     26  C   UNL     1       0.537  12.587  21.083  0.00  0.00    +0.000 A 
ATOM     27  O   UNL     1       0.450  14.898  21.834  0.00  0.00    +0.000 OA
ATOM     28  C   UNL     1      -0.222  15.408  23.003  0.00  0.00    +0.000 C 
ATOM     29  O   UNL     1      -1.231  14.514  23.514  0.00  0.00    +0.000 OA
ENDBRANCH  18  21
ENDBRANCH   6  15
BRANCH  11  30
ATOM     30  C   UNL     1       6.234   4.962  17.018  0.00  0.00    +0.000 C 
ATOM     31  C   UNL     1       6.369   6.450  16.675  0.00  0.00    +0.000 C 
BRANCH  30  32
ATOM     32  C   UNL     1       6.463   4.097  15.761  0.00  0.00    +0.000 C 
BRANCH  32  33
ATOM     33  O   UNL     1       7.451   4.631  14.886  0.00  0.00    +0.000 OA
ATOM     34  H   UNL     1       7.184   5.543  14.646  0.00  0.00    +0.000 HD
ENDBRANCH  32  33
ENDBRANCH  30  32
ENDBRANCH  11  30
BRANCH   1  35
ATOM     35  C   UNL     1       4.446   1.643  18.800  0.00  0.00    +0.000 C 
BRANCH  35  37
ATOM     36  C   UNL     1       5.268   0.377  20.662  0.00  0.00    +0.000 C 
ATOM     37  N   UNL     1       5.205   1.708  20.062  0.00  0.00    +0.000 NA
ATOM     38  H   UNL     1       6.155   2.016  19.840  0.00  0.00    +0.000 HD
ENDBRANCH  35  37
ENDBRANCH   1  35
TORSDOF 7
ENDMDL
MODEL 2
REMARK VINA RESULT:      -7.9      1.378      1.605
REMARK  Name = 
REMARK  10 active torsions:
REMARK  status: ('A' for Active; 'I' for Inactive)
REMARK    1  A    between atoms: C_1  and  N_2
REMARK    2  A    between atoms: N_2  and  C_3
REMARK    3  A    between atoms: C_3  and  C_4
REMARK    4  A    between atoms: C_9  and  N_10
REMARK    5  A    between atoms: N_13  and  C_14
REMARK    6  A    between atoms: N_27  and  C_28
REMARK    7  A    between atoms: C_28  and  C_29
REMARK    8  A    between atoms: C_28  and  C_30
REMARK    9  A    between atoms: C_30  and  O_31
REMARK   10  A    between atoms: C_33  and  C_34
REMARK                            x       y       z     vdW  Elec       q    Type
REMARK                         _______ _______ _______ _____ _____    ______ ____
ROOT
ATOM      1  C   UNL     1       2.851   2.379  18.952  0.00  0.00    +0.000 C 
ATOM      2  O   UNL     1       2.881   3.071  20.215  0.00  0.00    +0.000 OA
ATOM      3  C   UNL     1       2.721   4.410  20.175  0.00  0.00    +0.000 A 
ATOM      4  C   UNL     1       1.559   4.909  20.760  0.00  0.00    +0.000 A 
ATOM      5  C   UNL     1       1.243   6.260  20.632  0.00  0.00    +0.000 A 
ATOM      6  C   UNL     1       2.111   7.133  19.966  0.00  0.00    +0.000 A 
ATOM      7  C   UNL     1       3.327   6.647  19.481  0.00  0.00    +0.000 A 
ATOM      8  C   UNL     1       3.617   5.282  19.572  0.00  0.00    +0.000 A 
ATOM      9  C   UNL     1       4.901   4.853  18.996  0.00  0.00    +0.000 C 
ATOM     10  O   UNL     1       5.917   5.066  19.656  0.00  0.00    +0.000 OA
ATOM     11  N   UNL     1       4.942   4.397  17.678  0.00  0.00    +0.000 N 
ATOM     12  C   UNL     1       3.856   3.755  16.925  0.00  0.00    +0.000 C 
ATOM     13  C   UNL     1       2.617   3.154  17.612  0.00  0.00    +0.000 C 
ATOM     14  C   UNL     1       1.427   4.128  17.523  0.00  0.00    +0.000 C 
ENDROOT
BRANCH   6  15
ATOM     15  N   UNL     1       1.793   8.475  19.682  0.00  0.00    +0.000 N 
ATOM     16  C   UNL     1       0.977   9.294  20.434  0.00  0.00    +0.000 C 
ATOM     17  O   UNL     1       0.574   9.049  21.565  0.00  0.00    +0.000 OA
ATOM     18  N   UNL     1       0.605  10.415  19.709  0.00  0.00    +0.000 N 
ATOM     19  H   UNL     1       2.238   8.899  18.882  0.00  0.00    +0.000 HD
ATOM     20  H   UNL     1       0.516  10.254  18.716  0.00  0.00    +0.000 HD
BRANCH  18  21
ATOM     21  C   UNL     1      -0.271  11.368  20.263  0.00  0.00    +0.000 A 
ATOM     22  C   UNL     1       0.137  12.215  21.316  0.00  0.00    +0.000 A 
ATOM     23  C   UNL     1      -0.751  13.134  21.877  0.00  0.00    +0.000 A 
ATOM     24  C   UNL     1      -2.024  13.179  21.358  0.00  0.00    +0.000 A 
ATOM     25  C   UNL     1      -2.422  12.349  20.333  0.00  0.00    +0.000 A 
ATOM     26  C   UNL     1      -1.568  11.441  19.753  0.00  0.00    +0.000 A 
ATOM     27  O   UNL     1      -3.723  12.542  19.985  0.00  0.00    +0.000 OA
ATOM     28  C   UNL     1      -4.016  13.726  20.755  0.00  0.00    +0.000 C 
ATOM     29  O   UNL     1      -3.021  14.013  21.758  0.00  0.00    +0.000 OA
ENDBRANCH  18  21
ENDBRANCH   6  15
BRANCH  11  30
ATOM     30  C   UNL     1       6.248   4.547  16.979  0.00  0.00    +0.000 C 
ATOM     31  C   UNL     1       6.639   6.015  16.774  0.00  0.00    +0.000 C 
BRANCH  30  32
ATOM     32  C   UNL     1       6.311   3.782  15.640  0.00  0.00    +0.000 C 
BRANCH  32  33
ATOM     33  O   UNL     1       6.981   4.505  14.613  0.00  0.00    +0.000 OA
ATOM     34  H   UNL     1       7.779   4.000  14.355  0.00  0.00    +0.000 HD
ENDBRANCH  32  33
ENDBRANCH  30  32
ENDBRANCH  11  30
BRANCH   1  35
ATOM     35  C   UNL     1       4.138   1.513  18.912  0.00  0.00    +0.000 C 
BRANCH  35  37
ATOM     36  C   UNL     1       5.300   0.668  20.830  0.00  0.00    +0.000 C 
ATOM     37  N   UNL     1       5.069   1.850  20.003  0.00  0.00    +0.000 NA
ATOM     38  H   UNL     1       5.956   2.137  19.580  0.00  0.00    +0.000 HD
ENDBRANCH  35  37
ENDBRANCH   1  35
TORSDOF 7
ENDMDL
MODEL 3
REMARK VINA RESULT:      -7.9      0.937      1.422
REMARK  Name = 
REMARK  10 active torsions:
REMARK  status: ('A' for Active; 'I' for Inactive)
REMARK    1  A    between atoms: C_1  and  N_2
REMARK    2  A    between atoms: N_2  and  C_3
REMARK    3  A    between atoms: C_3  and  C_4
REMARK    4  A    between atoms: C_9  and  N_10
REMARK    5  A    between atoms: N_13  and  C_14
REMARK    6  A    between atoms: N_27  and  C_28
REMARK    7  A    between atoms: C_28  and  C_29
REMARK    8  A    between atoms: C_28  and  C_30
REMARK    9  A    between atoms: C_30  and  O_31
REMARK   10  A    between atoms: C_33  and  C_34
REMARK                            x       y       z     vdW  Elec       q    Type
REMARK                         _______ _______ _______ _____ _____    ______ ____
ROOT
ATOM      1  C   UNL     1       2.878   2.726  18.913  0.00  0.00    +0.000 C 
ATOM      2  O   UNL     1       2.973   3.407  20.179  0.00  0.00    +0.000 OA
ATOM      3  C   UNL     1       2.691   4.727  20.178  0.00  0.00    +0.000 A 
ATOM      4  C   UNL     1       1.553   5.113  20.884  0.00  0.00    +0.000 A 
ATOM      5  C   UNL     1       1.106   6.431  20.810  0.00  0.00    +0.000 A 
ATOM      6  C   UNL     1       1.821   7.385  20.078  0.00  0.00    +0.000 A 
ATOM      7  C   UNL     1       3.021   7.016  19.466  0.00  0.00    +0.000 A 
ATOM      8  C   UNL     1       3.440   5.681  19.504  0.00  0.00    +0.000 A 
ATOM      9  C   UNL     1       4.693   5.376  18.797  0.00  0.00    +0.000 C 
ATOM     10  O   UNL     1       5.747   5.674  19.357  0.00  0.00    +0.000 OA
ATOM     11  N   UNL     1       4.643   4.936  17.473  0.00  0.00    +0.000 N 
ATOM     12  C   UNL     1       3.548   4.205  16.820  0.00  0.00    +0.000 C 
ATOM     13  C   UNL     1       2.444   3.487  17.616  0.00  0.00    +0.000 C 
ATOM     14  C   UNL     1       1.168   4.350  17.663  0.00  0.00    +0.000 C 
ENDROOT
BRANCH   6  15
ATOM     15  N   UNL     1       1.358   8.695  19.849  0.00  0.00    +0.000 N 
ATOM     16  C   UNL     1       1.085   9.640  20.816  0.00  0.00    +0.000 C 
ATOM     17  O   UNL     1       1.398   9.558  21.997  0.00  0.00    +0.000 OA
ATOM     18  N   UNL     1       0.334  10.679  20.288  0.00  0.00    +0.000 N 
ATOM     19  H   UNL     1       1.260   8.994  18.890  0.00  0.00    +0.000 HD
ATOM     20  H   UNL     1      -0.294  10.400  19.548  0.00  0.00    +0.000 HD
BRANCH  18  21
ATOM     21  C   UNL     1      -0.104  11.736  21.108  0.00  0.00    +0.000 A 
ATOM     22  C   UNL     1       0.664  12.909  21.266  0.00  0.00    +0.000 A 
ATOM     23  C   UNL     1       0.233  13.937  22.107  0.00  0.00    +0.000 A 
ATOM     24  C   UNL     1      -0.963  13.755  22.762  0.00  0.00    +0.000 A 
ATOM     25  C   UNL     1      -1.709  12.607  22.611  0.00  0.00    +0.000 A 
ATOM     26  C   UNL     1      -1.317  11.582  21.782  0.00  0.00    +0.000 A 
ATOM     27  O   UNL     1      -2.843  12.623  23.363  0.00  0.00    +0.000 OA
ATOM     28  C   UNL     1      -2.822  13.990  23.820  0.00  0.00    +0.000 C 
ATOM     29  O   UNL     1      -1.554  14.642  23.607  0.00  0.00    +0.000 OA
ENDBRANCH  18  21
ENDBRANCH   6  15
BRANCH  11  30
ATOM     30  C   UNL     1       5.853   5.210  16.651  0.00  0.00    +0.000 C 
ATOM     31  C   UNL     1       5.507   5.652  15.225  0.00  0.00    +0.000 C 
BRANCH  30  32
ATOM     32  C   UNL     1       6.847   4.029  16.620  0.00  0.00    +0.000 C 
BRANCH  32  33
ATOM     33  O   UNL     1       7.832   4.098  17.645  0.00  0.00    +0.000 OA
ATOM     34  H   UNL     1       7.976   3.193  17.991  0.00  0.00    +0.000 HD
ENDBRANCH  32  33
ENDBRANCH  30  32
ENDBRANCH  11  30
BRANCH   1  35
ATOM     35  C   UNL     1       4.227   1.981  18.730  0.00  0.00    +0.000 C 
BRANCH  35  37
ATOM     36  C   UNL     1       5.161   0.762  20.570  0.00  0.00    +0.000 C 
ATOM     37  N   UNL     1       5.079   2.072  19.929  0.00  0.00    +0.000 NA
ATOM     38  H   UNL     1       6.017   2.351  19.627  0.00  0.00    +0.000 HD
ENDBRANCH  35  37
ENDBRANCH   1  35
TORSDOF 7
ENDMDL
MODEL 4
REMARK VINA RESULT:      -7.8      2.292      2.498
REMARK  Name = 
REMARK  10 active torsions:
REMARK  status: ('A' for Active; 'I' for Inactive)
REMARK    1  A    between atoms: C_1  and  N_2
REMARK    2  A    between atoms: N_2  and  C_3
REMARK    3  A    between atoms: C_3  and  C_4
REMARK    4  A    between atoms: C_9  and  N_10
REMARK    5  A    between atoms: N_13  and  C_14
REMARK    6  A    between atoms: N_27  and  C_28
REMARK    7  A    between atoms: C_28  and  C_29
REMARK    8  A    between atoms: C_28  and  C_30
REMARK    9  A    between atoms: C_30  and  O_31
REMARK   10  A    between atoms: C_33  and  C_34
REMARK                            x       y       z     vdW  Elec       q    Type
REMARK                         _______ _______ _______ _____ _____    ______ ____
ROOT
ATOM      1  C   UNL     1       2.943   2.858  18.980  0.00  0.00    +0.000 C 
ATOM      2  O   UNL     1       3.058   3.611  20.203  0.00  0.00    +0.000 OA
ATOM      3  C   UNL     1       2.789   4.931  20.127  0.00  0.00    +0.000 A 
ATOM      4  C   UNL     1       1.662   5.371  20.819  0.00  0.00    +0.000 A 
ATOM      5  C   UNL     1       1.228   6.687  20.672  0.00  0.00    +0.000 A 
ATOM      6  C   UNL     1       1.947   7.588  19.878  0.00  0.00    +0.000 A 
ATOM      7  C   UNL     1       3.136   7.170  19.278  0.00  0.00    +0.000 A 
ATOM      8  C   UNL     1       3.542   5.836  19.391  0.00  0.00    +0.000 A 
ATOM      9  C   UNL     1       4.785   5.476  18.692  0.00  0.00    +0.000 C 
ATOM     10  O   UNL     1       5.847   5.795  19.224  0.00  0.00    +0.000 OA
ATOM     11  N   UNL     1       4.717   4.960  17.397  0.00  0.00    +0.000 N 
ATOM     12  C   UNL     1       3.608   4.204  16.798  0.00  0.00    +0.000 C 
ATOM     13  C   UNL     1       2.504   3.547  17.645  0.00  0.00    +0.000 C 
ATOM     14  C   UNL     1       1.238   4.425  17.652  0.00  0.00    +0.000 C 
ENDROOT
BRANCH   6  15
ATOM     15  N   UNL     1       1.495   8.887  19.578  0.00  0.00    +0.000 N 
ATOM     16  C   UNL     1       0.347   9.480  20.059  0.00  0.00    +0.000 C 
ATOM     17  O   UNL     1      -0.343   9.051  20.976  0.00  0.00    +0.000 OA
ATOM     18  N   UNL     1       0.025  10.604  19.313  0.00  0.00    +0.000 N 
ATOM     19  H   UNL     1       2.085   9.462  18.995  0.00  0.00    +0.000 HD
ATOM     20  H   UNL     1       0.287  10.543  18.340  0.00  0.00    +0.000 HD
BRANCH  18  21
ATOM     21  C   UNL     1      -1.141  11.341  19.595  0.00  0.00    +0.000 A 
ATOM     22  C   UNL     1      -1.194  12.242  20.680  0.00  0.00    +0.000 A 
ATOM     23  C   UNL     1      -2.366  12.945  20.968  0.00  0.00    +0.000 A 
ATOM     24  C   UNL     1      -3.450  12.723  20.151  0.00  0.00    +0.000 A 
ATOM     25  C   UNL     1      -3.398  11.840  19.094  0.00  0.00    +0.000 A 
ATOM     26  C   UNL     1      -2.256  11.142  18.780  0.00  0.00    +0.000 A 
ATOM     27  O   UNL     1      -4.583  11.755  18.431  0.00  0.00    +0.000 OA
ATOM     28  C   UNL     1      -5.299  12.839  19.055  0.00  0.00    +0.000 C 
ATOM     29  O   UNL     1      -4.667  13.320  20.259  0.00  0.00    +0.000 OA
ENDBRANCH  18  21
ENDBRANCH   6  15
BRANCH  11  30
ATOM     30  C   UNL     1       5.922   5.171  16.549  0.00  0.00    +0.000 C 
ATOM     31  C   UNL     1       5.567   5.466  15.087  0.00  0.00    +0.000 C 
BRANCH  30  32
ATOM     32  C   UNL     1       6.935   4.010  16.632  0.00  0.00    +0.000 C 
BRANCH  32  33
ATOM     33  O   UNL     1       7.768   4.074  17.784  0.00  0.00    +0.000 OA
ATOM     34  H   UNL     1       7.597   4.926  18.236  0.00  0.00    +0.000 HD
ENDBRANCH  32  33
ENDBRANCH  30  32
ENDBRANCH  11  30
BRANCH   1  35
ATOM     35  C   UNL     1       4.283   2.089  18.829  0.00  0.00    +0.000 C 
BRANCH  35  37
ATOM     36  C   UNL     1       5.170   1.049  20.798  0.00  0.00    +0.000 C 
ATOM     37  N   UNL     1       5.163   2.271  19.997  0.00  0.00    +0.000 NA
ATOM     38  H   UNL     1       6.111   2.445  19.650  0.00  0.00    +0.000 HD
ENDBRANCH  35  37
ENDBRANCH   1  35
TORSDOF 7
ENDMDL
MODEL 5
REMARK VINA RESULT:      -7.6      1.760      1.933
REMARK  Name = 
REMARK  10 active torsions:
REMARK  status: ('A' for Active; 'I' for Inactive)
REMARK    1  A    between atoms: C_1  and  N_2
REMARK    2  A    between atoms: N_2  and  C_3
REMARK    3  A    between atoms: C_3  and  C_4
REMARK    4  A    between atoms: C_9  and  N_10
REMARK    5  A    between atoms: N_13  and  C_14
REMARK    6  A    between atoms: N_27  and  C_28
REMARK    7  A    between atoms: C_28  and  C_29
REMARK    8  A    between atoms: C_28  and  C_30
REMARK    9  A    between atoms: C_30  and  O_31
REMARK   10  A    between atoms: C_33  and  C_34
REMARK                            x       y       z     vdW  Elec       q    Type
REMARK                         _______ _______ _______ _____ _____    ______ ____
ROOT
ATOM      1  C   UNL     1       3.052   2.803  19.037  0.00  0.00    +0.000 C 
ATOM      2  O   UNL     1       3.184   3.592  20.236  0.00  0.00    +0.000 OA
ATOM      3  C   UNL     1       2.894   4.906  20.129  0.00  0.00    +0.000 A 
ATOM      4  C   UNL     1       1.778   5.349  20.835  0.00  0.00    +0.000 A 
ATOM      5  C   UNL     1       1.321   6.654  20.662  0.00  0.00    +0.000 A 
ATOM      6  C   UNL     1       2.007   7.542  19.827  0.00  0.00    +0.000 A 
ATOM      7  C   UNL     1       3.188   7.125  19.210  0.00  0.00    +0.000 A 
ATOM      8  C   UNL     1       3.616   5.800  19.350  0.00  0.00    +0.000 A 
ATOM      9  C   UNL     1       4.847   5.438  18.632  0.00  0.00    +0.000 C 
ATOM     10  O   UNL     1       5.917   5.787  19.129  0.00  0.00    +0.000 OA
ATOM     11  N   UNL     1       4.757   4.884  17.354  0.00  0.00    +0.000 N 
ATOM     12  C   UNL     1       3.646   4.096  16.804  0.00  0.00    +0.000 C 
ATOM     13  C   UNL     1       2.572   3.447  17.694  0.00  0.00    +0.000 C 
ATOM     14  C   UNL     1       1.293   4.307  17.707  0.00  0.00    +0.000 C 
ENDROOT
BRANCH   6  15
ATOM     15  N   UNL     1       1.529   8.826  19.501  0.00  0.00    +0.000 N 
ATOM     16  C   UNL     1       0.411   9.436  20.030  0.00  0.00    +0.000 C 
ATOM     17  O   UNL     1      -0.215   9.044  21.007  0.00  0.00    +0.000 OA
ATOM     18  N   UNL     1       0.034  10.525  19.259  0.00  0.00    +0.000 N 
ATOM     19  H   UNL     1       2.077   9.377  18.857  0.00  0.00    +0.000 HD
ATOM     20  H   UNL     1       0.234  10.423  18.274  0.00  0.00    +0.000 HD
BRANCH  18  21
ATOM     21  C   UNL     1      -1.115  11.270  19.584  0.00  0.00    +0.000 A 
ATOM     22  C   UNL     1      -2.271  11.224  18.777  0.00  0.00    +0.000 A 
ATOM     23  C   UNL     1      -3.394  11.992  19.093  0.00  0.00    +0.000 A 
ATOM     24  C   UNL     1      -3.320  12.781  20.218  0.00  0.00    +0.000 A 
ATOM     25  C   UNL     1      -2.189  12.828  21.003  0.00  0.00    +0.000 A 
ATOM     26  C   UNL     1      -1.073  12.076  20.723  0.00  0.00    +0.000 A 
ATOM     27  O   UNL     1      -2.321  13.686  22.051  0.00  0.00    +0.000 OA
ATOM     28  C   UNL     1      -3.726  13.992  21.950  0.00  0.00    +0.000 C 
ATOM     29  O   UNL     1      -4.309  13.583  20.696  0.00  0.00    +0.000 OA
ENDBRANCH  18  21
ENDBRANCH   6  15
BRANCH  11  30
ATOM     30  C   UNL     1       5.938   5.089  16.472  0.00  0.00    +0.000 C 
ATOM     31  C   UNL     1       5.543   5.393  15.022  0.00  0.00    +0.000 C 
BRANCH  30  32
ATOM     32  C   UNL     1       6.943   3.918  16.520  0.00  0.00    +0.000 C 
BRANCH  32  33
ATOM     33  O   UNL     1       8.023   4.143  17.420  0.00  0.00    +0.000 OA
ATOM     34  H   UNL     1       7.927   5.044  17.791  0.00  0.00    +0.000 HD
ENDBRANCH  32  33
ENDBRANCH  30  32
ENDBRANCH  11  30
BRANCH   1  35
ATOM     35  C   UNL     1       4.399   2.049  18.876  0.00  0.00    +0.000 C 
BRANCH  35  37
ATOM     36  C   UNL     1       5.260   0.640  20.613  0.00  0.00    +0.000 C 
ATOM     37  N   UNL     1       5.172   2.016  20.131  0.00  0.00    +0.000 NA
ATOM     38  H   UNL     1       6.115   2.357  19.926  0.00  0.00    +0.000 HD
ENDBRANCH  35  37
ENDBRANCH   1  35
TORSDOF 7
ENDMDL
MODEL 6
REMARK VINA RESULT:      -7.4      0.962      1.089
REMARK  Name = 
REMARK  10 active torsions:
REMARK  status: ('A' for Active; 'I' for Inactive)
REMARK    1  A    between atoms: C_1  and  N_2
REMARK    2  A    between atoms: N_2  and  C_3
REMARK    3  A    between atoms: C_3  and  C_4
REMARK    4  A    between atoms: C_9  and  N_10
REMARK    5  A    between atoms: N_13  and  C_14
REMARK    6  A    between atoms: N_27  and  C_28
REMARK    7  A    between atoms: C_28  and  C_29
REMARK    8  A    between atoms: C_28  and  C_30
REMARK    9  A    between atoms: C_30  and  O_31
REMARK   10  A    between atoms: C_33  and  C_34
REMARK                            x       y       z     vdW  Elec       q    Type
REMARK                         _______ _______ _______ _____ _____    ______ ____
ROOT
ATOM      1  C   UNL     1       3.006   2.533  19.173  0.00  0.00    +0.000 C 
ATOM      2  O   UNL     1       3.049   3.316  20.382  0.00  0.00    +0.000 OA
ATOM      3  C   UNL     1       2.805   4.637  20.255  0.00  0.00    +0.000 A 
ATOM      4  C   UNL     1       1.641   5.108  20.860  0.00  0.00    +0.000 A 
ATOM      5  C   UNL     1       1.236   6.425  20.653  0.00  0.00    +0.000 A 
ATOM      6  C   UNL     1       2.018   7.297  19.886  0.00  0.00    +0.000 A 
ATOM      7  C   UNL     1       3.239   6.849  19.377  0.00  0.00    +0.000 A 
ATOM      8  C   UNL     1       3.617   5.513  19.549  0.00  0.00    +0.000 A 
ATOM      9  C   UNL     1       4.898   5.120  18.944  0.00  0.00    +0.000 C 
ATOM     10  O   UNL     1       5.927   5.439  19.537  0.00  0.00    +0.000 OA
ATOM     11  N   UNL     1       4.909   4.572  17.660  0.00  0.00    +0.000 N 
ATOM     12  C   UNL     1       3.832   3.814  17.008  0.00  0.00    +0.000 C 
ATOM     13  C   UNL     1       2.666   3.193  17.795  0.00  0.00    +0.000 C 
ATOM     14  C   UNL     1       1.414   4.086  17.696  0.00  0.00    +0.000 C 
ENDROOT
BRANCH   6  15
ATOM     15  N   UNL     1       1.605   8.593  19.525  0.00  0.00    +0.000 N 
ATOM     16  C   UNL     1       1.113   9.558  20.379  0.00  0.00    +0.000 C 
ATOM     17  O   UNL     1       1.153   9.509  21.602  0.00  0.00    +0.000 OA
ATOM     18  N   UNL     1       0.490  10.572  19.668  0.00  0.00    +0.000 N 
ATOM     19  H   UNL     1       1.723   8.867  18.560  0.00  0.00    +0.000 HD
ATOM     20  H   UNL     1       0.046  10.265  18.814  0.00  0.00    +0.000 HD
BRANCH  18  21
ATOM     21  C   UNL     1      -0.132  11.641  20.340  0.00  0.00    +0.000 A 
ATOM     22  C   UNL     1      -1.529  11.827  20.287  0.00  0.00    +0.000 A 
ATOM     23  C   UNL     1      -2.131  12.909  20.932  0.00  0.00    +0.000 A 
ATOM     24  C   UNL     1      -1.306  13.771  21.618  0.00  0.00    +0.000 A 
ATOM     25  C   UNL     1       0.059  13.590  21.665  0.00  0.00    +0.000 A 
ATOM     26  C   UNL     1       0.678  12.529  21.049  0.00  0.00    +0.000 A 
ATOM     27  O   UNL     1       0.686  14.566  22.377  0.00  0.00    +0.000 OA
ATOM     28  C   UNL     1      -0.457  15.239  22.942  0.00  0.00    +0.000 C 
ATOM     29  O   UNL     1      -1.702  14.867  22.318  0.00  0.00    +0.000 OA
ENDBRANCH  18  21
ENDBRANCH   6  15
BRANCH  11  30
ATOM     30  C   UNL     1       6.171   4.747  16.889  0.00  0.00    +0.000 C 
ATOM     31  C   UNL     1       7.420   4.503  17.744  0.00  0.00    +0.000 C 
BRANCH  30  32
ATOM     32  C   UNL     1       6.265   6.114  16.179  0.00  0.00    +0.000 C 
BRANCH  32  33
ATOM     33  O   UNL     1       6.800   7.140  17.007  0.00  0.00    +0.000 OA
ATOM     34  H   UNL     1       7.611   6.795  17.434  0.00  0.00    +0.000 HD
ENDBRANCH  32  33
ENDBRANCH  30  32
ENDBRANCH  11  30
BRANCH   1  35
ATOM     35  C   UNL     1       4.341   1.744  19.131  0.00  0.00    +0.000 C 
BRANCH  35  37
ATOM     36  C   UNL     1       5.398   0.613  20.960  0.00  0.00    +0.000 C 
ATOM     37  N   UNL     1       5.130   1.919  20.363  0.00  0.00    +0.000 NA
ATOM     38  H   UNL     1       6.020   2.355  20.105  0.00  0.00    +0.000 HD
ENDBRANCH  35  37
ENDBRANCH   1  35
TORSDOF 7
ENDMDL
MODEL 7
REMARK VINA RESULT:      -7.4      1.910      2.264
REMARK  Name = 
REMARK  10 active torsions:
REMARK  status: ('A' for Active; 'I' for Inactive)
REMARK    1  A    between atoms: C_1  and  N_2
REMARK    2  A    between atoms: N_2  and  C_3
REMARK    3  A    between atoms: C_3  and  C_4
REMARK    4  A    between atoms: C_9  and  N_10
REMARK    5  A    between atoms: N_13  and  C_14
REMARK    6  A    between atoms: N_27  and  C_28
REMARK    7  A    between atoms: C_28  and  C_29
REMARK    8  A    between atoms: C_28  and  C_30
REMARK    9  A    between atoms: C_30  and  O_31
REMARK   10  A    between atoms: C_33  and  C_34
REMARK                            x       y       z     vdW  Elec       q    Type
REMARK                         _______ _______ _______ _____ _____    ______ ____
ROOT
ATOM      1  C   UNL     1       3.454   3.254  19.155  0.00  0.00    +0.000 C 
ATOM      2  O   UNL     1       3.624   4.316  20.114  0.00  0.00    +0.000 OA
ATOM      3  C   UNL     1       3.203   5.542  19.738  0.00  0.00    +0.000 A 
ATOM      4  C   UNL     1       2.122   6.065  20.444  0.00  0.00    +0.000 A 
ATOM      5  C   UNL     1       1.530   7.255  20.026  0.00  0.00    +0.000 A 
ATOM      6  C   UNL     1       2.047   7.960  18.933  0.00  0.00    +0.000 A 
ATOM      7  C   UNL     1       3.199   7.488  18.300  0.00  0.00    +0.000 A 
ATOM      8  C   UNL     1       3.761   6.269  18.695  0.00  0.00    +0.000 A 
ATOM      9  C   UNL     1       4.947   5.830  17.945  0.00  0.00    +0.000 C 
ATOM     10  O   UNL     1       6.021   6.361  18.222  0.00  0.00    +0.000 OA
ATOM     11  N   UNL     1       4.788   4.979  16.850  0.00  0.00    +0.000 N 
ATOM     12  C   UNL     1       3.709   4.006  16.629  0.00  0.00    +0.000 C 
ATOM     13  C   UNL     1       2.790   3.520  17.763  0.00  0.00    +0.000 C 
ATOM     14  C   UNL     1       1.443   4.268  17.722  0.00  0.00    +0.000 C 
ENDROOT
BRANCH   6  15
ATOM     15  N   UNL     1       1.423   9.091  18.374  0.00  0.00    +0.000 N 
ATOM     16  C   UNL     1       1.081  10.246  19.046  0.00  0.00    +0.000 C 
ATOM     17  O   UNL     1       1.452  10.547  20.174  0.00  0.00    +0.000 OA
ATOM     18  N   UNL     1       0.189  11.002  18.300  0.00  0.00    +0.000 N 
ATOM     19  H   UNL     1       1.248   9.083  17.380  0.00  0.00    +0.000 HD
ATOM     20  H   UNL     1      -0.433  10.456  17.722  0.00  0.00    +0.000 HD
BRANCH  18  21
ATOM     21  C   UNL     1      -0.336  12.203  18.814  0.00  0.00    +0.000 A 
ATOM     22  C   UNL     1       0.279  13.445  18.548  0.00  0.00    +0.000 A 
ATOM     23  C   UNL     1      -0.234  14.626  19.088  0.00  0.00    +0.000 A 
ATOM     24  C   UNL     1      -1.356  14.522  19.878  0.00  0.00    +0.000 A 
ATOM     25  C   UNL     1      -1.953  13.308  20.140  0.00  0.00    +0.000 A 
ATOM     26  C   UNL     1      -1.477  12.130  19.613  0.00  0.00    +0.000 A 
ATOM     27  O   UNL     1      -3.034  13.428  20.957  0.00  0.00    +0.000 OA
ATOM     28  C   UNL     1      -3.166  14.863  20.991  0.00  0.00    +0.000 C 
ATOM     29  O   UNL     1      -2.008  15.553  20.478  0.00  0.00    +0.000 OA
ENDBRANCH  18  21
ENDBRANCH   6  15
BRANCH  11  30
ATOM     30  C   UNL     1       5.857   5.045  15.815  0.00  0.00    +0.000 C 
ATOM     31  C   UNL     1       5.307   4.892  14.393  0.00  0.00    +0.000 C 
BRANCH  30  32
ATOM     32  C   UNL     1       7.002   4.040  16.059  0.00  0.00    +0.000 C 
BRANCH  32  33
ATOM     33  O   UNL     1       7.923   4.471  17.055  0.00  0.00    +0.000 OA
ATOM     34  H   UNL     1       7.596   5.316  17.427  0.00  0.00    +0.000 HD
ENDBRANCH  32  33
ENDBRANCH  30  32
ENDBRANCH  11  30
BRANCH   1  35
ATOM     35  C   UNL     1       4.845   2.578  19.021  0.00  0.00    +0.000 C 
BRANCH  35  37
ATOM     36  C   UNL     1       4.952   1.433  21.124  0.00  0.00    +0.000 C 
ATOM     37  N   UNL     1       4.886   1.258  19.675  0.00  0.00    +0.000 NA
ATOM     38  H   UNL     1       4.020   0.765  19.441  0.00  0.00    +0.000 HD
ENDBRANCH  35  37
ENDBRANCH   1  35
TORSDOF 7
ENDMDL
MODEL 8
REMARK VINA RESULT:      -7.3      1.679      2.021
REMARK  Name = 
REMARK  10 active torsions:
REMARK  status: ('A' for Active; 'I' for Inactive)
REMARK    1  A    between atoms: C_1  and  N_2
REMARK    2  A    between atoms: N_2  and  C_3
REMARK    3  A    between atoms: C_3  and  C_4
REMARK    4  A    between atoms: C_9  and  N_10
REMARK    5  A    between atoms: N_13  and  C_14
REMARK    6  A    between atoms: N_27  and  C_28
REMARK    7  A    between atoms: C_28  and  C_29
REMARK    8  A    between atoms: C_28  and  C_30
REMARK    9  A    between atoms: C_30  and  O_31
REMARK   10  A    between atoms: C_33  and  C_34
REMARK                            x       y       z     vdW  Elec       q    Type
REMARK                         _______ _______ _______ _____ _____    ______ ____
ROOT
ATOM      1  C   UNL     1       3.060   2.603  19.346  0.00  0.00    +0.000 C 
ATOM      2  O   UNL     1       3.191   3.546  20.427  0.00  0.00    +0.000 OA
ATOM      3  C   UNL     1       2.955   4.841  20.131  0.00  0.00    +0.000 A 
ATOM      4  C   UNL     1       1.839   5.417  20.735  0.00  0.00    +0.000 A 
ATOM      5  C   UNL     1       1.437   6.700  20.370  0.00  0.00    +0.000 A 
ATOM      6  C   UNL     1       2.178   7.439  19.441  0.00  0.00    +0.000 A 
ATOM      7  C   UNL     1       3.358   6.899  18.925  0.00  0.00    +0.000 A 
ATOM      8  C   UNL     1       3.731   5.593  19.260  0.00  0.00    +0.000 A 
ATOM      9  C   UNL     1       4.965   5.092  18.637  0.00  0.00    +0.000 C 
ATOM     10  O   UNL     1       6.034   5.469  19.113  0.00  0.00    +0.000 OA
ATOM     11  N   UNL     1       4.886   4.370  17.445  0.00  0.00    +0.000 N 
ATOM     12  C   UNL     1       3.760   3.551  16.974  0.00  0.00    +0.000 C 
ATOM     13  C   UNL     1       2.639   3.070  17.913  0.00  0.00    +0.000 C 
ATOM     14  C   UNL     1       1.394   3.968  17.768  0.00  0.00    +0.000 C 
ENDROOT
BRANCH   6  15
ATOM     15  N   UNL     1       1.759   8.681  18.927  0.00  0.00    +0.000 N 
ATOM     16  C   UNL     1       1.130   9.684  19.635  0.00  0.00    +0.000 C 
ATOM     17  O   UNL     1       1.028   9.734  20.855  0.00  0.00    +0.000 OA
ATOM     18  N   UNL     1       0.555  10.606  18.774  0.00  0.00    +0.000 N 
ATOM     19  H   UNL     1       1.978   8.884  17.962  0.00  0.00    +0.000 HD
ATOM     20  H   UNL     1       0.228  10.211  17.904  0.00  0.00    +0.000 HD
BRANCH  18  21
ATOM     21  C   UNL     1      -0.185  11.693  19.279  0.00  0.00    +0.000 A 
ATOM     22  C   UNL     1       0.418  12.948  19.507  0.00  0.00    +0.000 A 
ATOM     23  C   UNL     1      -0.319  14.008  20.036  0.00  0.00    +0.000 A 
ATOM     24  C   UNL     1      -1.645  13.775  20.317  0.00  0.00    +0.000 A 
ATOM     25  C   UNL     1      -2.232  12.548  20.097  0.00  0.00    +0.000 A 
ATOM     26  C   UNL     1      -1.535  11.488  19.567  0.00  0.00    +0.000 A 
ATOM     27  O   UNL     1      -3.543  12.528  20.462  0.00  0.00    +0.000 OA
ATOM     28  C   UNL     1      -3.754  13.930  20.722  0.00  0.00    +0.000 C 
ATOM     29  O   UNL     1      -2.526  14.681  20.819  0.00  0.00    +0.000 OA
ENDBRANCH  18  21
ENDBRANCH   6  15
BRANCH  11  30
ATOM     30  C   UNL     1       6.097   4.408  16.580  0.00  0.00    +0.000 C 
ATOM     31  C   UNL     1       7.398   4.404  17.390  0.00  0.00    +0.000 C 
BRANCH  30  32
ATOM     32  C   UNL     1       6.091   5.582  15.578  0.00  0.00    +0.000 C 
BRANCH  32  33
ATOM     33  O   UNL     1       6.139   6.857  16.209  0.00  0.00    +0.000 OA
ATOM     34  H   UNL     1       6.968   6.910  16.727  0.00  0.00    +0.000 HD
ENDBRANCH  32  33
ENDBRANCH  30  32
ENDBRANCH  11  30
BRANCH   1  35
ATOM     35  C   UNL     1       4.380   1.788  19.332  0.00  0.00    +0.000 C 
BRANCH  35  37
ATOM     36  C   UNL     1       5.358   0.635  21.192  0.00  0.00    +0.000 C 
ATOM     37  N   UNL     1       5.144   1.945  20.582  0.00  0.00    +0.000 NA
ATOM     38  H   UNL     1       6.053   2.352  20.344  0.00  0.00    +0.000 HD
ENDBRANCH  35  37
ENDBRANCH   1  35
TORSDOF 7
ENDMDL
MODEL 9
REMARK VINA RESULT:      -7.3      1.952      3.860
REMARK  Name = 
REMARK  10 active torsions:
REMARK  status: ('A' for Active; 'I' for Inactive)
REMARK    1  A    between atoms: C_1  and  N_2
REMARK    2  A    between atoms: N_2  and  C_3
REMARK    3  A    between atoms: C_3  and  C_4
REMARK    4  A    between atoms: C_9  and  N_10
REMARK    5  A    between atoms: N_13  and  C_14
REMARK    6  A    between atoms: N_27  and  C_28
REMARK    7  A    between atoms: C_28  and  C_29
REMARK    8  A    between atoms: C_28  and  C_30
REMARK    9  A    between atoms: C_30  and  O_31
REMARK   10  A    between atoms: C_33  and  C_34
REMARK                            x       y       z     vdW  Elec       q    Type
REMARK                         _______ _______ _______ _____ _____    ______ ____
ROOT
ATOM      1  C   UNL     1       5.270   4.990  16.883  0.00  0.00    +0.000 C 
ATOM      2  O   UNL     1       4.226   5.867  16.417  0.00  0.00    +0.000 OA
ATOM      3  C   UNL     1       3.459   6.447  17.363  0.00  0.00    +0.000 A 
ATOM      4  C   UNL     1       3.566   7.832  17.479  0.00  0.00    +0.000 A 
ATOM      5  C   UNL     1       2.924   8.492  18.525  0.00  0.00    +0.000 A 
ATOM      6  C   UNL     1       2.127   7.783  19.430  0.00  0.00    +0.000 A 
ATOM      7  C   UNL     1       1.933   6.413  19.241  0.00  0.00    +0.000 A 
ATOM      8  C   UNL     1       2.617   5.748  18.218  0.00  0.00    +0.000 A 
ATOM      9  C   UNL     1       2.386   4.299  18.120  0.00  0.00    +0.000 C 
ATOM     10  O   UNL     1       1.336   3.927  17.597  0.00  0.00    +0.000 OA
ATOM     11  N   UNL     1       3.256   3.422  18.768  0.00  0.00    +0.000 N 
ATOM     12  C   UNL     1       4.673   3.648  19.086  0.00  0.00    +0.000 C 
ATOM     13  C   UNL     1       5.505   4.752  18.412  0.00  0.00    +0.000 C 
ATOM     14  C   UNL     1       5.620   5.979  19.337  0.00  0.00    +0.000 C 
ENDROOT
BRANCH   6  15
ATOM     15  N   UNL     1       1.562   8.361  20.583  0.00  0.00    +0.000 N 
ATOM     16  C   UNL     1       0.633   9.380  20.610  0.00  0.00    +0.000 C 
ATOM     17  O   UNL     1       0.007   9.795  19.643  0.00  0.00    +0.000 OA
ATOM     18  N   UNL     1       0.551   9.936  21.878  0.00  0.00    +0.000 N 
ATOM     19  H   UNL     1       1.819   7.966  21.476  0.00  0.00    +0.000 HD
ATOM     20  H   UNL     1       1.420   9.922  22.392  0.00  0.00    +0.000 HD
BRANCH  18  21
ATOM     21  C   UNL     1      -0.300  11.029  22.128  0.00  0.00    +0.000 A 
ATOM     22  C   UNL     1       0.006  12.321  21.649  0.00  0.00    +0.000 A 
ATOM     23  C   UNL     1      -0.830  13.403  21.930  0.00  0.00    +0.000 A 
ATOM     24  C   UNL     1      -1.955  13.151  22.681  0.00  0.00    +0.000 A 
ATOM     25  C   UNL     1      -2.250  11.890  23.151  0.00  0.00    +0.000 A 
ATOM     26  C   UNL     1      -1.452  10.803  22.882  0.00  0.00    +0.000 A 
ATOM     27  O   UNL     1      -3.394  11.866  23.888  0.00  0.00    +0.000 OA
ATOM     28  C   UNL     1      -3.883  13.199  23.637  0.00  0.00    +0.000 C 
ATOM     29  O   UNL     1      -2.894  14.065  23.044  0.00  0.00    +0.000 OA
ENDBRANCH  18  21
ENDBRANCH   6  15
BRANCH  11  30
ATOM     30  C   UNL     1       2.686   2.097  19.139  0.00  0.00    +0.000 C 
ATOM     31  C   UNL     1       1.950   2.131  20.484  0.00  0.00    +0.000 C 
BRANCH  30  32
ATOM     32  C   UNL     1       3.731   0.961  19.128  0.00  0.00    +0.000 C 
BRANCH  32  33
ATOM     33  O   UNL     1       4.171   0.618  17.818  0.00  0.00    +0.000 OA
ATOM     34  H   UNL     1       4.581   1.411  17.417  0.00  0.00    +0.000 HD
ENDBRANCH  32  33
ENDBRANCH  30  32
ENDBRANCH  11  30
BRANCH   1  35
ATOM     35  C   UNL     1       5.083   3.659  16.106  0.00  0.00    +0.000 C 
BRANCH  35  37
ATOM     36  C   UNL     1       6.408   4.145  14.168  0.00  0.00    +0.000 C 
ATOM     37  N   UNL     1       6.289   3.286  15.344  0.00  0.00    +0.000 NA
ATOM     38  H   UNL     1       7.101   3.439  15.949  0.00  0.00    +0.000 HD
ENDBRANCH  35  37
ENDBRANCH   1  35
TORSDOF 7
ENDMDL
