MODEL 1
REMARK VINA RESULT:      -7.1      0.000      0.000
REMARK  Name = 
REMARK  12 active torsions:
REMARK  status: ('A' for Active; 'I' for Inactive)
REMARK    1  A    between atoms: C_1  and  C_2
REMARK    2  A    between atoms: C_2  and  C_3
REMARK    3  A    between atoms: C_3  and  C_4
REMARK    4  A    between atoms: C_5  and  C_6
REMARK    5  A    between atoms: C_6  and  O_8
REMARK    6  A    between atoms: O_8  and  C_9
REMARK    7  A    between atoms: C_9  and  C_10
REMARK    8  A    between atoms: C_11  and  C_12
REMARK    9  A    between atoms: C_12  and  O_14
REMARK   10  A    between atoms: O_14  and  C_15
REMARK   11  A    between atoms: C_15  and  C_16
REMARK   12  A    between atoms: C_18  and  C_19
REMARK                            x       y       z     vdW  Elec       q    Type
REMARK                         _______ _______ _______ _____ _____    ______ ____
ROOT
ATOM      1  C   UNL     1       5.493   6.306  17.599  0.00  0.00    +0.000 A 
ATOM      2  C   UNL     1       5.894   4.974  17.637  0.00  0.00    +0.000 A 
ATOM      3  C   UNL     1       4.865   4.235  18.333  0.00  0.00    +0.000 A 
ATOM      4  C   UNL     1       3.843   5.147  18.642  0.00  0.00    +0.000 A 
ATOM      5  C   UNL     1       2.585   5.113  19.334  0.00  0.00    +0.000 A 
ATOM      6  C   UNL     1       1.926   6.270  19.471  0.00  0.00    +0.000 A 
ATOM      7  C   UNL     1       2.446   7.541  18.909  0.00  0.00    +0.000 A 
ATOM      8  N   UNL     1       1.669   8.663  19.134  0.00  0.00    +0.000 N 
ATOM      9  C   UNL     1       1.416   9.109  20.519  0.00  0.00    +0.000 C 
ATOM     10  C   UNL     1       0.025   9.748  20.591  0.00  0.00    +0.000 C 
ATOM     11  O   UNL     1      -0.082  10.850  19.676  0.00  0.00    +0.000 OA
ATOM     12  C   UNL     1       0.168  10.413  18.327  0.00  0.00    +0.000 C 
ATOM     13  C   UNL     1       1.566   9.768  18.177  0.00  0.00    +0.000 C 
ATOM     14  N   UNL     1       3.557   7.584  18.240  0.00  0.00    +0.000 NA
ATOM     15  N   UNL     1       4.239   6.397  18.157  0.00  0.00    +0.000 N 
ENDROOT
BRANCH   5  16
ATOM     16  C   UNL     1       1.993   3.878  19.935  0.00  0.00    +0.000 C 
ATOM     17  C   UNL     1       2.496   3.397  21.347  0.00  0.00    +0.000 C 
ATOM     18  C   UNL     1       1.052   2.984  21.653  0.00  0.00    +0.000 C 
ATOM     19  C   UNL     1       0.606   4.044  20.628  0.00  0.00    +0.000 C 
ENDBRANCH   5  16
BRANCH   2  20
ATOM     20  C   UNL     1       7.122   4.475  17.026  0.00  0.00    +0.000 C 
ATOM     21  O   UNL     1       8.116   4.150  17.664  0.00  0.00    +0.000 OA
BRANCH  20  22
ATOM     22  O   UNL     1       7.088   4.572  15.664  0.00  0.00    +0.000 OA
BRANCH  22  23
ATOM     23  C   UNL     1       6.076   3.778  15.032  0.00  0.00    +0.000 C 
ATOM     24  C   UNL     1       6.259   3.891  13.529  0.00  0.00    +0.000 C 
ENDBRANCH  22  23
ENDBRANCH  20  22
ENDBRANCH   2  20
BRANCH   3  25
ATOM     25  C   UNL     1       4.923   2.810  18.678  0.00  0.00    +0.000 C 
ATOM     26  O   UNL     1       5.299   2.385  19.763  0.00  0.00    +0.000 OA
BRANCH  25  27
ATOM     27  O   UNL     1       4.588   1.994  17.634  0.00  0.00    +0.000 OA
BRANCH  27  28
ATOM     28  C   UNL     1       3.236   2.115  17.157  0.00  0.00    +0.000 C 
ATOM     29  C   UNL     1       2.208   1.592  18.144  0.00  0.00    +0.000 C 
ENDBRANCH  27  28
ENDBRANCH  25  27
ENDBRANCH   3  25
BRANCH   1  30
ATOM     30  C   UNL     1       6.211   7.520  17.070  0.00  0.00    +0.000 C 
BRANCH  30  32
ATOM     31  C   UNL     1       7.973   9.121  17.881  0.00  0.00    +0.000 C 
ATOM     32  C   UNL     1       7.633   7.660  17.616  0.00  0.00    +0.000 C 
ENDBRANCH  30  32
ENDBRANCH   1  30
TORSDOF 9
ENDMDL
MODEL 2
REMARK VINA RESULT:      -6.9      0.734      1.289
REMARK  Name = 
REMARK  12 active torsions:
REMARK  status: ('A' for Active; 'I' for Inactive)
REMARK    1  A    between atoms: C_1  and  C_2
REMARK    2  A    between atoms: C_2  and  C_3
REMARK    3  A    between atoms: C_3  and  C_4
REMARK    4  A    between atoms: C_5  and  C_6
REMARK    5  A    between atoms: C_6  and  O_8
REMARK    6  A    between atoms: O_8  and  C_9
REMARK    7  A    between atoms: C_9  and  C_10
REMARK    8  A    between atoms: C_11  and  C_12
REMARK    9  A    between atoms: C_12  and  O_14
REMARK   10  A    between atoms: O_14  and  C_15
REMARK   11  A    between atoms: C_15  and  C_16
REMARK   12  A    between atoms: C_18  and  C_19
REMARK                            x       y       z     vdW  Elec       q    Type
REMARK                         _______ _______ _______ _____ _____    ______ ____
ROOT
ATOM      1  C   UNL     1       5.556   6.441  17.377  0.00  0.00    +0.000 A 
ATOM      2  C   UNL     1       5.933   5.102  17.350  0.00  0.00    +0.000 A 
ATOM      3  C   UNL     1       4.874   4.344  17.977  0.00  0.00    +0.000 A 
ATOM      4  C   UNL     1       3.861   5.257  18.313  0.00  0.00    +0.000 A 
ATOM      5  C   UNL     1       2.585   5.208  18.971  0.00  0.00    +0.000 A 
ATOM      6  C   UNL     1       1.943   6.367  19.157  0.00  0.00    +0.000 A 
ATOM      7  C   UNL     1       2.500   7.658  18.681  0.00  0.00    +0.000 A 
ATOM      8  N   UNL     1       1.736   8.780  18.950  0.00  0.00    +0.000 N 
ATOM      9  C   UNL     1       1.456   9.153  20.351  0.00  0.00    +0.000 C 
ATOM     10  C   UNL     1       0.075   9.812  20.426  0.00  0.00    +0.000 C 
ATOM     11  O   UNL     1       0.010  10.966  19.573  0.00  0.00    +0.000 OA
ATOM     12  C   UNL     1       0.287  10.600  18.207  0.00  0.00    +0.000 C 
ATOM     13  C   UNL     1       1.677   9.939  18.056  0.00  0.00    +0.000 C 
ATOM     14  N   UNL     1       3.627   7.717  18.042  0.00  0.00    +0.000 NA
ATOM     15  N   UNL     1       4.290   6.524  17.910  0.00  0.00    +0.000 N 
ENDROOT
BRANCH   5  16
ATOM     16  C   UNL     1       1.956   3.952  19.487  0.00  0.00    +0.000 C 
ATOM     17  C   UNL     1       0.560   4.037  20.208  0.00  0.00    +0.000 C 
ATOM     18  C   UNL     1       0.202   2.706  19.536  0.00  0.00    +0.000 C 
ATOM     19  C   UNL     1       1.217   3.068  18.437  0.00  0.00    +0.000 C 
ENDBRANCH   5  16
BRANCH   2  20
ATOM     20  C   UNL     1       7.167   4.615  16.742  0.00  0.00    +0.000 C 
ATOM     21  O   UNL     1       8.134   4.224  17.384  0.00  0.00    +0.000 OA
BRANCH  20  22
ATOM     22  O   UNL     1       7.177   4.804  15.389  0.00  0.00    +0.000 OA
BRANCH  22  23
ATOM     23  C   UNL     1       5.990   4.365  14.715  0.00  0.00    +0.000 C 
ATOM     24  C   UNL     1       6.396   3.812  13.360  0.00  0.00    +0.000 C 
ENDBRANCH  22  23
ENDBRANCH  20  22
ENDBRANCH   2  20
BRANCH   3  25
ATOM     25  C   UNL     1       4.898   2.902  18.243  0.00  0.00    +0.000 C 
ATOM     26  O   UNL     1       4.508   2.055  17.450  0.00  0.00    +0.000 OA
BRANCH  25  27
ATOM     27  O   UNL     1       5.330   2.599  19.504  0.00  0.00    +0.000 OA
BRANCH  27  28
ATOM     28  C   UNL     1       4.612   1.547  20.173  0.00  0.00    +0.000 C 
ATOM     29  C   UNL     1       3.669   2.062  21.247  0.00  0.00    +0.000 C 
ENDBRANCH  27  28
ENDBRANCH  25  27
ENDBRANCH   3  25
BRANCH   1  30
ATOM     30  C   UNL     1       6.308   7.669  16.936  0.00  0.00    +0.000 C 
BRANCH  30  32
ATOM     31  C   UNL     1       8.039   9.254  17.842  0.00  0.00    +0.000 C 
ATOM     32  C   UNL     1       7.687   7.794  17.587  0.00  0.00    +0.000 C 
ENDBRANCH  30  32
ENDBRANCH   1  30
TORSDOF 9
ENDMDL
MODEL 3
REMARK VINA RESULT:      -6.7      8.681     12.012
REMARK  Name = 
REMARK  12 active torsions:
REMARK  status: ('A' for Active; 'I' for Inactive)
REMARK    1  A    between atoms: C_1  and  C_2
REMARK    2  A    between atoms: C_2  and  C_3
REMARK    3  A    between atoms: C_3  and  C_4
REMARK    4  A    between atoms: C_5  and  C_6
REMARK    5  A    between atoms: C_6  and  O_8
REMARK    6  A    between atoms: O_8  and  C_9
REMARK    7  A    between atoms: C_9  and  C_10
REMARK    8  A    between atoms: C_11  and  C_12
REMARK    9  A    between atoms: C_12  and  O_14
REMARK   10  A    between atoms: O_14  and  C_15
REMARK   11  A    between atoms: C_15  and  C_16
REMARK   12  A    between atoms: C_18  and  C_19
REMARK                            x       y       z     vdW  Elec       q    Type
REMARK                         _______ _______ _______ _____ _____    ______ ____
ROOT
ATOM      1  C   UNL     1      -3.911  11.501  18.633  0.00  0.00    +0.000 A 
ATOM      2  C   UNL     1      -5.193  11.689  19.142  0.00  0.00    +0.000 A 
ATOM      3  C   UNL     1      -5.089  12.628  20.235  0.00  0.00    +0.000 A 
ATOM      4  C   UNL     1      -3.743  13.020  20.311  0.00  0.00    +0.000 A 
ATOM      5  C   UNL     1      -2.946  13.868  21.154  0.00  0.00    +0.000 A 
ATOM      6  C   UNL     1      -1.630  13.912  20.916  0.00  0.00    +0.000 A 
ATOM      7  C   UNL     1      -1.006  13.143  19.811  0.00  0.00    +0.000 A 
ATOM      8  N   UNL     1       0.366  13.271  19.686  0.00  0.00    +0.000 N 
ATOM      9  C   UNL     1       1.243  12.837  20.792  0.00  0.00    +0.000 C 
ATOM     10  C   UNL     1       2.484  13.734  20.827  0.00  0.00    +0.000 C 
ATOM     11  O   UNL     1       3.187  13.686  19.574  0.00  0.00    +0.000 OA
ATOM     12  C   UNL     1       2.328  14.107  18.497  0.00  0.00    +0.000 C 
ATOM     13  C   UNL     1       1.057  13.233  18.395  0.00  0.00    +0.000 C 
ATOM     14  N   UNL     1      -1.715  12.409  19.009  0.00  0.00    +0.000 NA
ATOM     15  N   UNL     1      -3.052  12.340  19.304  0.00  0.00    +0.000 N 
ENDROOT
BRANCH   5  16
ATOM     16  C   UNL     1      -3.494  14.670  22.292  0.00  0.00    +0.000 C 
ATOM     17  C   UNL     1      -3.626  13.996  23.708  0.00  0.00    +0.000 C 
ATOM     18  C   UNL     1      -3.218  15.342  24.319  0.00  0.00    +0.000 C 
ATOM     19  C   UNL     1      -2.499  15.645  22.991  0.00  0.00    +0.000 C 
ENDBRANCH   5  16
BRANCH   2  20
ATOM     20  C   UNL     1      -6.388  11.056  18.593  0.00  0.00    +0.000 C 
ATOM     21  O   UNL     1      -7.186  11.629  17.862  0.00  0.00    +0.000 OA
BRANCH  20  22
ATOM     22  O   UNL     1      -6.596   9.813  19.123  0.00  0.00    +0.000 OA
BRANCH  22  23
ATOM     23  C   UNL     1      -7.477   9.785  20.253  0.00  0.00    +0.000 C 
ATOM     24  C   UNL     1      -7.715   8.332  20.628  0.00  0.00    +0.000 C 
ENDBRANCH  22  23
ENDBRANCH  20  22
ENDBRANCH   2  20
BRANCH   3  25
ATOM     25  C   UNL     1      -6.189  13.041  21.114  0.00  0.00    +0.000 C 
ATOM     26  O   UNL     1      -6.938  13.978  20.876  0.00  0.00    +0.000 OA
BRANCH  25  27
ATOM     27  O   UNL     1      -6.245  12.318  22.274  0.00  0.00    +0.000 OA
BRANCH  27  28
ATOM     28  C   UNL     1      -7.494  12.378  22.985  0.00  0.00    +0.000 C 
ATOM     29  C   UNL     1      -7.426  13.241  24.232  0.00  0.00    +0.000 C 
ENDBRANCH  27  28
ENDBRANCH  25  27
ENDBRANCH   3  25
BRANCH   1  30
ATOM     30  C   UNL     1      -3.425  10.577  17.548  0.00  0.00    +0.000 C 
BRANCH  30  32
ATOM     31  C   UNL     1      -3.378  10.117  15.075  0.00  0.00    +0.000 C 
ATOM     32  C   UNL     1      -3.535  11.186  16.149  0.00  0.00    +0.000 C 
ENDBRANCH  30  32
ENDBRANCH   1  30
TORSDOF 9
ENDMDL
MODEL 4
REMARK VINA RESULT:      -6.4      8.129     12.104
REMARK  Name = 
REMARK  12 active torsions:
REMARK  status: ('A' for Active; 'I' for Inactive)
REMARK    1  A    between atoms: C_1  and  C_2
REMARK    2  A    between atoms: C_2  and  C_3
REMARK    3  A    between atoms: C_3  and  C_4
REMARK    4  A    between atoms: C_5  and  C_6
REMARK    5  A    between atoms: C_6  and  O_8
REMARK    6  A    between atoms: O_8  and  C_9
REMARK    7  A    between atoms: C_9  and  C_10
REMARK    8  A    between atoms: C_11  and  C_12
REMARK    9  A    between atoms: C_12  and  O_14
REMARK   10  A    between atoms: O_14  and  C_15
REMARK   11  A    between atoms: C_15  and  C_16
REMARK   12  A    between atoms: C_18  and  C_19
REMARK                            x       y       z     vdW  Elec       q    Type
REMARK                         _______ _______ _______ _____ _____    ______ ____
ROOT
ATOM      1  C   UNL     1      -4.241  11.779  18.664  0.00  0.00    +0.000 A 
ATOM      2  C   UNL     1      -5.487  11.861  19.280  0.00  0.00    +0.000 A 
ATOM      3  C   UNL     1      -5.298  12.541  20.542  0.00  0.00    +0.000 A 
ATOM      4  C   UNL     1      -3.942  12.898  20.617  0.00  0.00    +0.000 A 
ATOM      5  C   UNL     1      -3.080  13.538  21.571  0.00  0.00    +0.000 A 
ATOM      6  C   UNL     1      -1.780  13.622  21.267  0.00  0.00    +0.000 A 
ATOM      7  C   UNL     1      -1.238  13.106  19.985  0.00  0.00    +0.000 A 
ATOM      8  N   UNL     1       0.126  13.248  19.806  0.00  0.00    +0.000 N 
ATOM      9  C   UNL     1       1.058  12.579  20.735  0.00  0.00    +0.000 C 
ATOM     10  C   UNL     1       2.318  13.438  20.885  0.00  0.00    +0.000 C 
ATOM     11  O   UNL     1       2.944  13.657  19.611  0.00  0.00    +0.000 OA
ATOM     12  C   UNL     1       2.032  14.307  18.704  0.00  0.00    +0.000 C 
ATOM     13  C   UNL     1       0.739  13.485  18.496  0.00  0.00    +0.000 C 
ATOM     14  N   UNL     1      -2.008  12.568  19.090  0.00  0.00    +0.000 NA
ATOM     15  N   UNL     1      -3.327  12.447  19.446  0.00  0.00    +0.000 N 
ENDROOT
BRANCH   5  16
ATOM     16  C   UNL     1      -3.543  14.078  22.887  0.00  0.00    +0.000 C 
ATOM     17  C   UNL     1      -3.559  13.127  24.141  0.00  0.00    +0.000 C 
ATOM     18  C   UNL     1      -3.114  14.330  24.981  0.00  0.00    +0.000 C 
ATOM     19  C   UNL     1      -2.504  14.914  23.694  0.00  0.00    +0.000 C 
ENDBRANCH   5  16
BRANCH   2  20
ATOM     20  C   UNL     1      -6.725  11.371  18.683  0.00  0.00    +0.000 C 
ATOM     21  O   UNL     1      -6.973  10.184  18.512  0.00  0.00    +0.000 OA
BRANCH  20  22
ATOM     22  O   UNL     1      -7.491  12.389  18.191  0.00  0.00    +0.000 OA
BRANCH  22  23
ATOM     23  C   UNL     1      -6.956  13.031  17.026  0.00  0.00    +0.000 C 
ATOM     24  C   UNL     1      -7.011  14.532  17.249  0.00  0.00    +0.000 C 
ENDBRANCH  22  23
ENDBRANCH  20  22
ENDBRANCH   2  20
BRANCH   3  25
ATOM     25  C   UNL     1      -6.336  12.762  21.555  0.00  0.00    +0.000 C 
ATOM     26  O   UNL     1      -6.487  12.055  22.543  0.00  0.00    +0.000 OA
BRANCH  25  27
ATOM     27  O   UNL     1      -7.173  13.797  21.244  0.00  0.00    +0.000 OA
BRANCH  27  28
ATOM     28  C   UNL     1      -6.807  15.079  21.783  0.00  0.00    +0.000 C 
ATOM     29  C   UNL     1      -6.230  16.019  20.739  0.00  0.00    +0.000 C 
ENDBRANCH  27  28
ENDBRANCH  25  27
ENDBRANCH   3  25
BRANCH   1  30
ATOM     30  C   UNL     1      -3.839  11.108  17.377  0.00  0.00    +0.000 C 
BRANCH  30  32
ATOM     31  C   UNL     1      -1.741   9.743  17.120  0.00  0.00    +0.000 C 
ATOM     32  C   UNL     1      -3.190   9.740  17.593  0.00  0.00    +0.000 C 
ENDBRANCH  30  32
ENDBRANCH   1  30
TORSDOF 9
ENDMDL
MODEL 5
REMARK VINA RESULT:      -6.3      7.592     11.458
REMARK  Name = 
REMARK  12 active torsions:
REMARK  status: ('A' for Active; 'I' for Inactive)
REMARK    1  A    between atoms: C_1  and  C_2
REMARK    2  A    between atoms: C_2  and  C_3
REMARK    3  A    between atoms: C_3  and  C_4
REMARK    4  A    between atoms: C_5  and  C_6
REMARK    5  A    between atoms: C_6  and  O_8
REMARK    6  A    between atoms: O_8  and  C_9
REMARK    7  A    between atoms: C_9  and  C_10
REMARK    8  A    between atoms: C_11  and  C_12
REMARK    9  A    between atoms: C_12  and  O_14
REMARK   10  A    between atoms: O_14  and  C_15
REMARK   11  A    between atoms: C_15  and  C_16
REMARK   12  A    between atoms: C_18  and  C_19
REMARK                            x       y       z     vdW  Elec       q    Type
REMARK                         _______ _______ _______ _____ _____    ______ ____
ROOT
ATOM      1  C   UNL     1      -5.013  12.831  19.961  0.00  0.00    +0.000 A 
ATOM      2  C   UNL     1      -5.097  11.848  18.979  0.00  0.00    +0.000 A 
ATOM      3  C   UNL     1      -3.746  11.483  18.619  0.00  0.00    +0.000 A 
ATOM      4  C   UNL     1      -2.886  12.227  19.445  0.00  0.00    +0.000 A 
ATOM      5  C   UNL     1      -1.468  12.390  19.602  0.00  0.00    +0.000 A 
ATOM      6  C   UNL     1      -1.047  13.290  20.498  0.00  0.00    +0.000 A 
ATOM      7  C   UNL     1      -1.995  14.076  21.326  0.00  0.00    +0.000 A 
ATOM      8  N   UNL     1      -1.423  14.980  22.204  0.00  0.00    +0.000 N 
ATOM      9  C   UNL     1      -0.602  16.089  21.677  0.00  0.00    +0.000 C 
ATOM     10  C   UNL     1       0.502  16.416  22.687  0.00  0.00    +0.000 C 
ATOM     11  O   UNL     1      -0.057  16.762  23.965  0.00  0.00    +0.000 OA
ATOM     12  C   UNL     1      -0.859  15.680  24.475  0.00  0.00    +0.000 C 
ATOM     13  C   UNL     1      -2.006  15.304  23.509  0.00  0.00    +0.000 C 
ATOM     14  N   UNL     1      -3.278  13.909  21.234  0.00  0.00    +0.000 NA
ATOM     15  N   UNL     1      -3.686  13.019  20.273  0.00  0.00    +0.000 N 
ENDROOT
BRANCH   5  16
ATOM     16  C   UNL     1      -0.446  11.644  18.804  0.00  0.00    +0.000 C 
ATOM     17  C   UNL     1       1.081  11.896  19.091  0.00  0.00    +0.000 C 
ATOM     18  C   UNL     1       1.311  10.400  18.840  0.00  0.00    +0.000 C 
ATOM     19  C   UNL     1      -0.157  10.178  19.249  0.00  0.00    +0.000 C 
ENDBRANCH   5  16
BRANCH   2  20
ATOM     20  C   UNL     1      -6.354  11.298  18.483  0.00  0.00    +0.000 C 
ATOM     21  O   UNL     1      -7.180  11.949  17.856  0.00  0.00    +0.000 OA
BRANCH  20  22
ATOM     22  O   UNL     1      -6.572  10.029  18.942  0.00  0.00    +0.000 OA
BRANCH  22  23
ATOM     23  C   UNL     1      -7.363   9.953  20.135  0.00  0.00    +0.000 C 
ATOM     24  C   UNL     1      -7.542   8.487  20.488  0.00  0.00    +0.000 C 
ENDBRANCH  22  23
ENDBRANCH  20  22
ENDBRANCH   2  20
BRANCH   3  25
ATOM     25  C   UNL     1      -3.369  10.545  17.556  0.00  0.00    +0.000 C 
ATOM     26  O   UNL     1      -3.359   9.329  17.691  0.00  0.00    +0.000 OA
BRANCH  25  27
ATOM     27  O   UNL     1      -2.950  11.172  16.415  0.00  0.00    +0.000 OA
BRANCH  27  28
ATOM     28  C   UNL     1      -3.711  10.881  15.229  0.00  0.00    +0.000 C 
ATOM     29  C   UNL     1      -2.966   9.990  14.251  0.00  0.00    +0.000 C 
ENDBRANCH  27  28
ENDBRANCH  25  27
ENDBRANCH   3  25
BRANCH   1  30
ATOM     30  C   UNL     1      -6.102  13.622  20.637  0.00  0.00    +0.000 C 
BRANCH  30  32
ATOM     31  C   UNL     1      -7.916  13.618  22.380  0.00  0.00    +0.000 C 
ATOM     32  C   UNL     1      -6.633  12.948  21.903  0.00  0.00    +0.000 C 
ENDBRANCH  30  32
ENDBRANCH   1  30
TORSDOF 9
ENDMDL
MODEL 6
REMARK VINA RESULT:      -6.2      8.683     12.106
REMARK  Name = 
REMARK  12 active torsions:
REMARK  status: ('A' for Active; 'I' for Inactive)
REMARK    1  A    between atoms: C_1  and  C_2
REMARK    2  A    between atoms: C_2  and  C_3
REMARK    3  A    between atoms: C_3  and  C_4
REMARK    4  A    between atoms: C_5  and  C_6
REMARK    5  A    between atoms: C_6  and  O_8
REMARK    6  A    between atoms: O_8  and  C_9
REMARK    7  A    between atoms: C_9  and  C_10
REMARK    8  A    between atoms: C_11  and  C_12
REMARK    9  A    between atoms: C_12  and  O_14
REMARK   10  A    between atoms: O_14  and  C_15
REMARK   11  A    between atoms: C_15  and  C_16
REMARK   12  A    between atoms: C_18  and  C_19
REMARK                            x       y       z     vdW  Elec       q    Type
REMARK                         _______ _______ _______ _____ _____    ______ ____
ROOT
ATOM      1  C   UNL     1      -3.969  11.474  18.706  0.00  0.00    +0.000 A 
ATOM      2  C   UNL     1      -5.255  11.670  19.200  0.00  0.00    +0.000 A 
ATOM      3  C   UNL     1      -5.161  12.633  20.274  0.00  0.00    +0.000 A 
ATOM      4  C   UNL     1      -3.816  13.028  20.353  0.00  0.00    +0.000 A 
ATOM      5  C   UNL     1      -3.027  13.894  21.184  0.00  0.00    +0.000 A 
ATOM      6  C   UNL     1      -1.709  13.935  20.956  0.00  0.00    +0.000 A 
ATOM      7  C   UNL     1      -1.075  13.143  19.873  0.00  0.00    +0.000 A 
ATOM      8  N   UNL     1       0.298  13.270  19.756  0.00  0.00    +0.000 N 
ATOM      9  C   UNL     1       1.166  12.861  20.878  0.00  0.00    +0.000 C 
ATOM     10  C   UNL     1       2.406  13.760  20.904  0.00  0.00    +0.000 C 
ATOM     11  O   UNL     1       3.119  13.686  19.659  0.00  0.00    +0.000 OA
ATOM     12  C   UNL     1       2.269  14.083  18.566  0.00  0.00    +0.000 C 
ATOM     13  C   UNL     1       1.000  13.206  18.472  0.00  0.00    +0.000 C 
ATOM     14  N   UNL     1      -1.776  12.392  19.081  0.00  0.00    +0.000 NA
ATOM     15  N   UNL     1      -3.116  12.328  19.366  0.00  0.00    +0.000 N 
ENDROOT
BRANCH   5  16
ATOM     16  C   UNL     1      -3.584  14.720  22.301  0.00  0.00    +0.000 C 
ATOM     17  C   UNL     1      -3.750  14.068  23.724  0.00  0.00    +0.000 C 
ATOM     18  C   UNL     1      -3.336  15.418  24.322  0.00  0.00    +0.000 C 
ATOM     19  C   UNL     1      -2.590  15.694  23.002  0.00  0.00    +0.000 C 
ENDBRANCH   5  16
BRANCH   2  20
ATOM     20  C   UNL     1      -6.445  11.025  18.655  0.00  0.00    +0.000 C 
ATOM     21  O   UNL     1      -6.568   9.812  18.540  0.00  0.00    +0.000 OA
BRANCH  20  22
ATOM     22  O   UNL     1      -7.326  11.932  18.139  0.00  0.00    +0.000 OA
BRANCH  22  23
ATOM     23  C   UNL     1      -6.808  12.723  17.061  0.00  0.00    +0.000 C 
ATOM     24  C   UNL     1      -7.284  14.152  17.255  0.00  0.00    +0.000 C 
ENDBRANCH  22  23
ENDBRANCH  20  22
ENDBRANCH   2  20
BRANCH   3  25
ATOM     25  C   UNL     1      -6.268  13.063  21.135  0.00  0.00    +0.000 C 
ATOM     26  O   UNL     1      -6.997  14.014  20.886  0.00  0.00    +0.000 OA
BRANCH  25  27
ATOM     27  O   UNL     1      -6.357  12.340  22.292  0.00  0.00    +0.000 OA
BRANCH  27  28
ATOM     28  C   UNL     1      -7.571  12.511  23.043  0.00  0.00    +0.000 C 
ATOM     29  C   UNL     1      -7.380  13.337  24.303  0.00  0.00    +0.000 C 
ENDBRANCH  27  28
ENDBRANCH  25  27
ENDBRANCH   3  25
BRANCH   1  30
ATOM     30  C   UNL     1      -3.473  10.527  17.645  0.00  0.00    +0.000 C 
BRANCH  30  32
ATOM     31  C   UNL     1      -3.234  10.050  15.186  0.00  0.00    +0.000 C 
ATOM     32  C   UNL     1      -3.580  11.103  16.232  0.00  0.00    +0.000 C 
ENDBRANCH  30  32
ENDBRANCH   1  30
TORSDOF 9
ENDMDL
MODEL 7
REMARK VINA RESULT:      -6.2      5.846     10.012
REMARK  Name = 
REMARK  12 active torsions:
REMARK  status: ('A' for Active; 'I' for Inactive)
REMARK    1  A    between atoms: C_1  and  C_2
REMARK    2  A    between atoms: C_2  and  C_3
REMARK    3  A    between atoms: C_3  and  C_4
REMARK    4  A    between atoms: C_5  and  C_6
REMARK    5  A    between atoms: C_6  and  O_8
REMARK    6  A    between atoms: O_8  and  C_9
REMARK    7  A    between atoms: C_9  and  C_10
REMARK    8  A    between atoms: C_11  and  C_12
REMARK    9  A    between atoms: C_12  and  O_14
REMARK   10  A    between atoms: O_14  and  C_15
REMARK   11  A    between atoms: C_15  and  C_16
REMARK   12  A    between atoms: C_18  and  C_19
REMARK                            x       y       z     vdW  Elec       q    Type
REMARK                         _______ _______ _______ _____ _____    ______ ____
ROOT
ATOM      1  C   UNL     1      -0.730  12.660  20.539  0.00  0.00    +0.000 A 
ATOM      2  C   UNL     1      -0.595  11.801  19.453  0.00  0.00    +0.000 A 
ATOM      3  C   UNL     1      -1.918  11.571  18.919  0.00  0.00    +0.000 A 
ATOM      4  C   UNL     1      -2.807  12.352  19.677  0.00  0.00    +0.000 A 
ATOM      5  C   UNL     1      -4.225  12.575  19.724  0.00  0.00    +0.000 A 
ATOM      6  C   UNL     1      -4.691  13.380  20.686  0.00  0.00    +0.000 A 
ATOM      7  C   UNL     1      -3.788  14.048  21.656  0.00  0.00    +0.000 A 
ATOM      8  N   UNL     1      -4.404  14.844  22.605  0.00  0.00    +0.000 N 
ATOM      9  C   UNL     1      -5.357  14.239  23.556  0.00  0.00    +0.000 C 
ATOM     10  C   UNL     1      -6.439  15.267  23.903  0.00  0.00    +0.000 C 
ATOM     11  O   UNL     1      -5.855  16.457  24.457  0.00  0.00    +0.000 OA
ATOM     12  C   UNL     1      -4.924  17.044  23.528  0.00  0.00    +0.000 C 
ATOM     13  C   UNL     1      -3.794  16.062  23.144  0.00  0.00    +0.000 C 
ATOM     14  N   UNL     1      -2.500  13.898  21.600  0.00  0.00    +0.000 NA
ATOM     15  N   UNL     1      -2.051  13.029  20.639  0.00  0.00    +0.000 N 
ENDROOT
BRANCH   5  16
ATOM     16  C   UNL     1      -5.204  11.936  18.790  0.00  0.00    +0.000 C 
ATOM     17  C   UNL     1      -6.622  11.524  19.334  0.00  0.00    +0.000 C 
ATOM     18  C   UNL     1      -7.199  11.958  17.982  0.00  0.00    +0.000 C 
ATOM     19  C   UNL     1      -5.987  12.899  17.847  0.00  0.00    +0.000 C 
ENDBRANCH   5  16
BRANCH   2  20
ATOM     20  C   UNL     1       0.686  11.298  18.965  0.00  0.00    +0.000 C 
ATOM     21  O   UNL     1       1.513  11.993  18.388  0.00  0.00    +0.000 OA
BRANCH  20  22
ATOM     22  O   UNL     1       0.776   9.940  19.079  0.00  0.00    +0.000 OA
BRANCH  22  23
ATOM     23  C   UNL     1       1.198   9.267  17.885  0.00  0.00    +0.000 C 
ATOM     24  C   UNL     1       2.281   8.271  18.264  0.00  0.00    +0.000 C 
ENDBRANCH  22  23
ENDBRANCH  20  22
ENDBRANCH   2  20
BRANCH   3  25
ATOM     25  C   UNL     1      -2.250  10.654  17.824  0.00  0.00    +0.000 C 
ATOM     26  O   UNL     1      -2.462   9.458  17.974  0.00  0.00    +0.000 OA
BRANCH  25  27
ATOM     27  O   UNL     1      -2.220  11.256  16.596  0.00  0.00    +0.000 OA
BRANCH  27  28
ATOM     28  C   UNL     1      -3.347  10.989  15.743  0.00  0.00    +0.000 C 
ATOM     29  C   UNL     1      -3.000  10.099  14.563  0.00  0.00    +0.000 C 
ENDBRANCH  27  28
ENDBRANCH  25  27
ENDBRANCH   3  25
BRANCH   1  30
ATOM     30  C   UNL     1       0.306  13.168  21.508  0.00  0.00    +0.000 C 
BRANCH  30  32
ATOM     31  C   UNL     1       0.474  15.293  20.172  0.00  0.00    +0.000 C 
ATOM     32  C   UNL     1       1.253  14.196  20.887  0.00  0.00    +0.000 C 
ENDBRANCH  30  32
ENDBRANCH   1  30
TORSDOF 9
ENDMDL
MODEL 8
REMARK VINA RESULT:      -6.1      8.565     11.859
REMARK  Name = 
REMARK  12 active torsions:
REMARK  status: ('A' for Active; 'I' for Inactive)
REMARK    1  A    between atoms: C_1  and  C_2
REMARK    2  A    between atoms: C_2  and  C_3
REMARK    3  A    between atoms: C_3  and  C_4
REMARK    4  A    between atoms: C_5  and  C_6
REMARK    5  A    between atoms: C_6  and  O_8
REMARK    6  A    between atoms: O_8  and  C_9
REMARK    7  A    between atoms: C_9  and  C_10
REMARK    8  A    between atoms: C_11  and  C_12
REMARK    9  A    between atoms: C_12  and  O_14
REMARK   10  A    between atoms: O_14  and  C_15
REMARK   11  A    between atoms: C_15  and  C_16
REMARK   12  A    between atoms: C_18  and  C_19
REMARK                            x       y       z     vdW  Elec       q    Type
REMARK                         _______ _______ _______ _____ _____    ______ ____
ROOT
ATOM      1  C   UNL     1      -5.324  12.729  20.377  0.00  0.00    +0.000 A 
ATOM      2  C   UNL     1      -5.198  11.875  19.285  0.00  0.00    +0.000 A 
ATOM      3  C   UNL     1      -3.785  11.684  19.050  0.00  0.00    +0.000 A 
ATOM      4  C   UNL     1      -3.103  12.391  20.053  0.00  0.00    +0.000 A 
ATOM      5  C   UNL     1      -1.735  12.662  20.397  0.00  0.00    +0.000 A 
ATOM      6  C   UNL     1      -1.509  13.476  21.435  0.00  0.00    +0.000 A 
ATOM      7  C   UNL     1      -2.618  14.061  22.229  0.00  0.00    +0.000 A 
ATOM      8  N   UNL     1      -2.242  14.894  23.267  0.00  0.00    +0.000 N 
ATOM      9  C   UNL     1      -1.492  16.131  22.975  0.00  0.00    +0.000 C 
ATOM     10  C   UNL     1      -0.543  16.427  24.141  0.00  0.00    +0.000 C 
ATOM     11  O   UNL     1      -1.269  16.555  25.374  0.00  0.00    +0.000 OA
ATOM     12  C   UNL     1      -2.003  15.348  25.655  0.00  0.00    +0.000 C 
ATOM     13  C   UNL     1      -2.994  14.995  24.522  0.00  0.00    +0.000 C 
ATOM     14  N   UNL     1      -3.859  13.790  21.965  0.00  0.00    +0.000 NA
ATOM     15  N   UNL     1      -4.066  12.996  20.866  0.00  0.00    +0.000 N 
ENDROOT
BRANCH   5  16
ATOM     16  C   UNL     1      -0.559  12.120  19.646  0.00  0.00    +0.000 C 
ATOM     17  C   UNL     1       0.115  13.009  18.536  0.00  0.00    +0.000 C 
ATOM     18  C   UNL     1       1.466  12.444  18.993  0.00  0.00    +0.000 C 
ATOM     19  C   UNL     1       0.819  12.201  20.369  0.00  0.00    +0.000 C 
ENDBRANCH   5  16
BRANCH   2  20
ATOM     20  C   UNL     1      -6.329  11.280  18.582  0.00  0.00    +0.000 C 
ATOM     21  O   UNL     1      -6.854  10.223  18.909  0.00  0.00    +0.000 OA
BRANCH  20  22
ATOM     22  O   UNL     1      -6.621  11.950  17.427  0.00  0.00    +0.000 OA
BRANCH  22  23
ATOM     23  C   UNL     1      -7.501  13.069  17.592  0.00  0.00    +0.000 C 
ATOM     24  C   UNL     1      -7.003  14.194  16.701  0.00  0.00    +0.000 C 
ENDBRANCH  22  23
ENDBRANCH  20  22
ENDBRANCH   2  20
BRANCH   3  25
ATOM     25  C   UNL     1      -3.199  10.926  17.939  0.00  0.00    +0.000 C 
ATOM     26  O   UNL     1      -2.604   9.865  18.073  0.00  0.00    +0.000 OA
BRANCH  25  27
ATOM     27  O   UNL     1      -3.315  11.568  16.737  0.00  0.00    +0.000 OA
BRANCH  27  28
ATOM     28  C   UNL     1      -3.946  10.814  15.686  0.00  0.00    +0.000 C 
ATOM     29  C   UNL     1      -2.956  10.260  14.677  0.00  0.00    +0.000 C 
ENDBRANCH  27  28
ENDBRANCH  25  27
ENDBRANCH   3  25
BRANCH   1  30
ATOM     30  C   UNL     1      -6.557  13.325  21.004  0.00  0.00    +0.000 C 
BRANCH  30  32
ATOM     31  C   UNL     1      -7.050  12.661  23.381  0.00  0.00    +0.000 C 
ATOM     32  C   UNL     1      -7.301  12.343  21.912  0.00  0.00    +0.000 C 
ENDBRANCH  30  32
ENDBRANCH   1  30
TORSDOF 9
ENDMDL
MODEL 9
REMARK VINA RESULT:      -6.1      8.505     11.736
REMARK  Name = 
REMARK  12 active torsions:
REMARK  status: ('A' for Active; 'I' for Inactive)
REMARK    1  A    between atoms: C_1  and  C_2
REMARK    2  A    between atoms: C_2  and  C_3
REMARK    3  A    between atoms: C_3  and  C_4
REMARK    4  A    between atoms: C_5  and  C_6
REMARK    5  A    between atoms: C_6  and  O_8
REMARK    6  A    between atoms: O_8  and  C_9
REMARK    7  A    between atoms: C_9  and  C_10
REMARK    8  A    between atoms: C_11  and  C_12
REMARK    9  A    between atoms: C_12  and  O_14
REMARK   10  A    between atoms: O_14  and  C_15
REMARK   11  A    between atoms: C_15  and  C_16
REMARK   12  A    between atoms: C_18  and  C_19
REMARK                            x       y       z     vdW  Elec       q    Type
REMARK                         _______ _______ _______ _____ _____    ______ ____
ROOT
ATOM      1  C   UNL     1      -2.844  12.243  19.514  0.00  0.00    +0.000 A 
ATOM      2  C   UNL     1      -4.064  11.761  19.048  0.00  0.00    +0.000 A 
ATOM      3  C   UNL     1      -5.092  12.275  19.924  0.00  0.00    +0.000 A 
ATOM      4  C   UNL     1      -4.455  13.103  20.862  0.00  0.00    +0.000 A 
ATOM      5  C   UNL     1      -4.844  13.879  22.006  0.00  0.00    +0.000 A 
ATOM      6  C   UNL     1      -3.873  14.492  22.694  0.00  0.00    +0.000 A 
ATOM      7  C   UNL     1      -2.448  14.406  22.287  0.00  0.00    +0.000 A 
ATOM      8  N   UNL     1      -1.548  15.077  23.095  0.00  0.00    +0.000 N 
ATOM      9  C   UNL     1      -1.407  14.685  24.512  0.00  0.00    +0.000 C 
ATOM     10  C   UNL     1      -1.062  15.926  25.342  0.00  0.00    +0.000 C 
ATOM     11  O   UNL     1       0.144  16.543  24.864  0.00  0.00    +0.000 OA
ATOM     12  C   UNL     1       0.005  16.922  23.481  0.00  0.00    +0.000 C 
ATOM     13  C   UNL     1      -0.332  15.711  22.580  0.00  0.00    +0.000 C 
ATOM     14  N   UNL     1      -2.083  13.749  21.229  0.00  0.00    +0.000 NA
ATOM     15  N   UNL     1      -3.088  13.089  20.571  0.00  0.00    +0.000 N 
ENDROOT
BRANCH   5  16
ATOM     16  C   UNL     1      -6.254  14.013  22.489  0.00  0.00    +0.000 C 
ATOM     17  C   UNL     1      -6.846  12.904  23.435  0.00  0.00    +0.000 C 
ATOM     18  C   UNL     1      -7.586  14.021  24.180  0.00  0.00    +0.000 C 
ATOM     19  C   UNL     1      -6.485  14.980  23.688  0.00  0.00    +0.000 C 
ENDBRANCH   5  16
BRANCH   2  20
ATOM     20  C   UNL     1      -4.210  10.928  17.859  0.00  0.00    +0.000 C 
ATOM     21  O   UNL     1      -4.362   9.714  17.893  0.00  0.00    +0.000 OA
BRANCH  20  22
ATOM     22  O   UNL     1      -3.990  11.637  16.711  0.00  0.00    +0.000 OA
BRANCH  22  23
ATOM     23  C   UNL     1      -4.080  10.866  15.506  0.00  0.00    +0.000 C 
ATOM     24  C   UNL     1      -2.682  10.394  15.144  0.00  0.00    +0.000 C 
ENDBRANCH  22  23
ENDBRANCH  20  22
ENDBRANCH   2  20
BRANCH   3  25
ATOM     25  C   UNL     1      -6.519  11.941  19.853  0.00  0.00    +0.000 C 
ATOM     26  O   UNL     1      -6.995  10.888  20.254  0.00  0.00    +0.000 OA
BRANCH  25  27
ATOM     27  O   UNL     1      -7.260  12.899  19.217  0.00  0.00    +0.000 OA
BRANCH  27  28
ATOM     28  C   UNL     1      -7.328  12.786  17.785  0.00  0.00    +0.000 C 
ATOM     29  C   UNL     1      -6.749  13.991  17.066  0.00  0.00    +0.000 C 
ENDBRANCH  27  28
ENDBRANCH  25  27
ENDBRANCH   3  25
BRANCH   1  30
ATOM     30  C   UNL     1      -1.444  11.964  19.033  0.00  0.00    +0.000 C 
BRANCH  30  32
ATOM     31  C   UNL     1      -0.416  10.453  20.762  0.00  0.00    +0.000 C 
ATOM     32  C   UNL     1      -0.976  10.543  19.348  0.00  0.00    +0.000 C 
ENDBRANCH  30  32
ENDBRANCH   1  30
TORSDOF 9
ENDMDL
