MODEL 1
REMARK VINA RESULT:      -8.5      0.000      0.000
REMARK  Name = 
REMARK  5 active torsions:
REMARK  status: ('A' for Active; 'I' for Inactive)
REMARK    1  A    between atoms: C_2  and  C_11
REMARK    2  A    between atoms: N_3  and  C_4
REMARK    3  A    between atoms: C_4  and  C_5
REMARK    4  A    between atoms: N_13  and  N_14
REMARK    5  A    between atoms: C_15  and  C_16
REMARK                            x       y       z     vdW  Elec       q    Type
REMARK                         _______ _______ _______ _____ _____    ______ ____
ROOT
ATOM      1  C   UNL     1       7.234   6.470  17.772  0.00  0.00    +0.000 C 
ATOM      2  O   UNL     1       7.522   6.029  18.879  0.00  0.00    +0.000 OA
ATOM      3  N   UNL     1       7.570   7.702  17.226  0.00  0.00    +0.000 N 
ATOM      4  H   UNL     1       7.248   7.931  16.289  0.00  0.00    +0.000 HD
ENDROOT
BRANCH   1   6
ATOM      5  O   UNL     1       6.281   5.901  15.643  0.00  0.00    +0.000 OA
ATOM      6  C   UNL     1       6.394   5.593  16.822  0.00  0.00    +0.000 C 
ATOM      7  N   UNL     1       5.819   4.495  17.432  0.00  0.00    +0.000 N 
ATOM      8  H   UNL     1       5.884   4.461  18.447  0.00  0.00    +0.000 HD
BRANCH   7   9
ATOM      9  C   UNL     1       4.919   3.605  16.736  0.00  0.00    +0.000 C 
BRANCH   9  10
ATOM     10  C   UNL     1       3.613   3.374  17.448  0.00  0.00    +0.000 A 
ATOM     11  C   UNL     1       2.627   4.354  17.592  0.00  0.00    +0.000 A 
ATOM     12  C   UNL     1       1.469   4.079  18.317  0.00  0.00    +0.000 A 
ATOM     13  C   UNL     1       1.336   2.828  18.896  0.00  0.00    +0.000 A 
ATOM     14  N   UNL     1       2.270   1.861  18.802  0.00  0.00    +0.000 NA
ATOM     15  C   UNL     1       3.383   2.157  18.090  0.00  0.00    +0.000 A 
ENDBRANCH   9  10
ENDBRANCH   7   9
ENDBRANCH   1   6
BRANCH   3  16
ATOM     16  N   UNL     1       8.309   8.583  17.959  0.00  0.00    +0.000 NA
ATOM     17  C   UNL     1       8.205   9.841  17.664  0.00  0.00    +0.000 C 
BRANCH  17  18
ATOM     18  C   UNL     1       8.965  10.863  18.429  0.00  0.00    +0.000 A 
ATOM     19  C   UNL     1       9.335  10.609  19.752  0.00  0.00    +0.000 A 
ATOM     20  C   UNL     1      10.033  11.573  20.482  0.00  0.00    +0.000 A 
ATOM     21  C   UNL     1      10.368  12.806  19.906  0.00  0.00    +0.000 A 
ATOM     22  C   UNL     1      11.059  13.784  20.638  0.00  0.00    +0.000 A 
ATOM     23  C   UNL     1      11.383  15.013  20.064  0.00  0.00    +0.000 A 
ATOM     24  C   UNL     1      11.019  15.277  18.749  0.00  0.00    +0.000 A 
ATOM     25  C   UNL     1      10.333  14.314  18.002  0.00  0.00    +0.000 A 
ATOM     26  C   UNL     1       9.997  13.070  18.565  0.00  0.00    +0.000 A 
ATOM     27  C   UNL     1       9.299  12.086  17.834  0.00  0.00    +0.000 A 
ENDBRANCH  17  18
ENDBRANCH   3  16
TORSDOF 5
ENDMDL
MODEL 2
REMARK VINA RESULT:      -8.4      0.958      1.173
REMARK  Name = 
REMARK  5 active torsions:
REMARK  status: ('A' for Active; 'I' for Inactive)
REMARK    1  A    between atoms: C_2  and  C_11
REMARK    2  A    between atoms: N_3  and  C_4
REMARK    3  A    between atoms: C_4  and  C_5
REMARK    4  A    between atoms: N_13  and  N_14
REMARK    5  A    between atoms: C_15  and  C_16
REMARK                            x       y       z     vdW  Elec       q    Type
REMARK                         _______ _______ _______ _____ _____    ______ ____
ROOT
ATOM      1  C   UNL     1       7.720   6.238  18.450  0.00  0.00    +0.000 C 
ATOM      2  O   UNL     1       8.186   5.864  19.520  0.00  0.00    +0.000 OA
ATOM      3  N   UNL     1       7.797   7.499  17.875  0.00  0.00    +0.000 N 
ATOM      4  H   UNL     1       7.349   7.661  16.977  0.00  0.00    +0.000 HD
ENDROOT
BRANCH   1   6
ATOM      5  O   UNL     1       7.540   4.363  16.961  0.00  0.00    +0.000 OA
ATOM      6  C   UNL     1       6.939   5.224  17.589  0.00  0.00    +0.000 C 
ATOM      7  N   UNL     1       5.570   5.405  17.611  0.00  0.00    +0.000 N 
ATOM      8  H   UNL     1       5.237   6.256  18.060  0.00  0.00    +0.000 HD
BRANCH   7   9
ATOM      9  C   UNL     1       4.672   4.620  16.796  0.00  0.00    +0.000 C 
BRANCH   9  10
ATOM     10  C   UNL     1       3.507   4.040  17.552  0.00  0.00    +0.000 A 
ATOM     11  C   UNL     1       3.088   2.713  17.427  0.00  0.00    +0.000 A 
ATOM     12  C   UNL     1       1.962   2.266  18.118  0.00  0.00    +0.000 A 
ATOM     13  C   UNL     1       1.273   3.171  18.908  0.00  0.00    +0.000 A 
ATOM     14  N   UNL     1       1.627   4.465  19.041  0.00  0.00    +0.000 NA
ATOM     15  C   UNL     1       2.726   4.868  18.359  0.00  0.00    +0.000 A 
ENDBRANCH   9  10
ENDBRANCH   7   9
ENDBRANCH   1   6
BRANCH   3  16
ATOM     16  N   UNL     1       8.456   8.498  18.531  0.00  0.00    +0.000 NA
ATOM     17  C   UNL     1       8.494   9.663  17.963  0.00  0.00    +0.000 C 
BRANCH  17  18
ATOM     18  C   UNL     1       9.177  10.804  18.624  0.00  0.00    +0.000 A 
ATOM     19  C   UNL     1       9.469  10.745  19.988  0.00  0.00    +0.000 A 
ATOM     20  C   UNL     1      10.095  11.822  20.619  0.00  0.00    +0.000 A 
ATOM     21  C   UNL     1      10.434  12.977  19.899  0.00  0.00    +0.000 A 
ATOM     22  C   UNL     1      11.052  14.068  20.529  0.00  0.00    +0.000 A 
ATOM     23  C   UNL     1      11.380  15.218  19.811  0.00  0.00    +0.000 A 
ATOM     24  C   UNL     1      11.093  15.288  18.453  0.00  0.00    +0.000 A 
ATOM     25  C   UNL     1      10.480  14.210  17.807  0.00  0.00    +0.000 A 
ATOM     26  C   UNL     1      10.141  13.043  18.515  0.00  0.00    +0.000 A 
ATOM     27  C   UNL     1       9.517  11.945  17.886  0.00  0.00    +0.000 A 
ENDBRANCH  17  18
ENDBRANCH   3  16
TORSDOF 5
ENDMDL
MODEL 3
REMARK VINA RESULT:      -8.4      1.352      2.051
REMARK  Name = 
REMARK  5 active torsions:
REMARK  status: ('A' for Active; 'I' for Inactive)
REMARK    1  A    between atoms: C_2  and  C_11
REMARK    2  A    between atoms: N_3  and  C_4
REMARK    3  A    between atoms: C_4  and  C_5
REMARK    4  A    between atoms: N_13  and  N_14
REMARK    5  A    between atoms: C_15  and  C_16
REMARK                            x       y       z     vdW  Elec       q    Type
REMARK                         _______ _______ _______ _____ _____    ______ ____
ROOT
ATOM      1  C   UNL     1       6.009   6.553  16.664  0.00  0.00    +0.000 C 
ATOM      2  O   UNL     1       5.401   7.216  15.830  0.00  0.00    +0.000 OA
ATOM      3  N   UNL     1       7.046   6.960  17.492  0.00  0.00    +0.000 N 
ATOM      4  H   UNL     1       7.460   6.287  18.132  0.00  0.00    +0.000 HD
ENDROOT
BRANCH   1   6
ATOM      5  O   UNL     1       6.460   4.195  16.738  0.00  0.00    +0.000 OA
ATOM      6  C   UNL     1       5.617   5.074  16.861  0.00  0.00    +0.000 C 
ATOM      7  N   UNL     1       4.284   4.883  17.168  0.00  0.00    +0.000 N 
ATOM      8  H   UNL     1       3.683   5.700  17.087  0.00  0.00    +0.000 HD
BRANCH   7   9
ATOM      9  C   UNL     1       3.701   3.567  17.297  0.00  0.00    +0.000 C 
BRANCH   9  10
ATOM     10  C   UNL     1       2.913   3.368  18.563  0.00  0.00    +0.000 A 
ATOM     11  C   UNL     1       1.552   3.665  18.683  0.00  0.00    +0.000 A 
ATOM     12  C   UNL     1       0.907   3.508  19.909  0.00  0.00    +0.000 A 
ATOM     13  C   UNL     1       1.649   3.070  20.992  0.00  0.00    +0.000 A 
ATOM     14  N   UNL     1       2.967   2.793  20.929  0.00  0.00    +0.000 NA
ATOM     15  C   UNL     1       3.565   2.953  19.725  0.00  0.00    +0.000 A 
ENDBRANCH   9  10
ENDBRANCH   7   9
ENDBRANCH   1   6
BRANCH   3  16
ATOM     16  N   UNL     1       7.499   8.244  17.420  0.00  0.00    +0.000 NA
ATOM     17  C   UNL     1       8.262   8.665  18.380  0.00  0.00    +0.000 C 
BRANCH  17  18
ATOM     18  C   UNL     1       8.808  10.045  18.364  0.00  0.00    +0.000 A 
ATOM     19  C   UNL     1       8.155  11.043  17.637  0.00  0.00    +0.000 A 
ATOM     20  C   UNL     1       8.674  12.339  17.601  0.00  0.00    +0.000 A 
ATOM     21  C   UNL     1       9.855  12.658  18.287  0.00  0.00    +0.000 A 
ATOM     22  C   UNL     1      10.389  13.955  18.246  0.00  0.00    +0.000 A 
ATOM     23  C   UNL     1      11.568  14.266  18.923  0.00  0.00    +0.000 A 
ATOM     24  C   UNL     1      12.228  13.280  19.648  0.00  0.00    +0.000 A 
ATOM     25  C   UNL     1      11.709  11.982  19.704  0.00  0.00    +0.000 A 
ATOM     26  C   UNL     1      10.522  11.651  19.027  0.00  0.00    +0.000 A 
ATOM     27  C   UNL     1       9.984  10.347  19.062  0.00  0.00    +0.000 A 
ENDBRANCH  17  18
ENDBRANCH   3  16
TORSDOF 5
ENDMDL
MODEL 4
REMARK VINA RESULT:      -8.3      1.110      1.333
REMARK  Name = 
REMARK  5 active torsions:
REMARK  status: ('A' for Active; 'I' for Inactive)
REMARK    1  A    between atoms: C_2  and  C_11
REMARK    2  A    between atoms: N_3  and  C_4
REMARK    3  A    between atoms: C_4  and  C_5
REMARK    4  A    between atoms: N_13  and  N_14
REMARK    5  A    between atoms: C_15  and  C_16
REMARK                            x       y       z     vdW  Elec       q    Type
REMARK                         _______ _______ _______ _____ _____    ______ ____
ROOT
ATOM      1  C   UNL     1       6.686   6.373  17.773  0.00  0.00    +0.000 C 
ATOM      2  O   UNL     1       7.003   6.053  18.914  0.00  0.00    +0.000 OA
ATOM      3  N   UNL     1       7.203   7.401  16.996  0.00  0.00    +0.000 N 
ATOM      4  H   UNL     1       6.830   7.550  16.063  0.00  0.00    +0.000 HD
ENDROOT
BRANCH   1   6
ATOM      5  O   UNL     1       4.974   6.064  16.118  0.00  0.00    +0.000 OA
ATOM      6  C   UNL     1       5.578   5.570  17.060  0.00  0.00    +0.000 C 
ATOM      7  N   UNL     1       5.368   4.312  17.590  0.00  0.00    +0.000 N 
ATOM      8  H   UNL     1       5.846   4.108  18.465  0.00  0.00    +0.000 HD
BRANCH   7   9
ATOM      9  C   UNL     1       4.311   3.443  17.125  0.00  0.00    +0.000 C 
BRANCH   9  10
ATOM     10  C   UNL     1       3.164   3.304  18.089  0.00  0.00    +0.000 A 
ATOM     11  C   UNL     1       2.533   2.089  18.370  0.00  0.00    +0.000 A 
ATOM     12  C   UNL     1       1.437   2.053  19.232  0.00  0.00    +0.000 A 
ATOM     13  C   UNL     1       0.989   3.243  19.778  0.00  0.00    +0.000 A 
ATOM     14  N   UNL     1       1.552   4.441  19.518  0.00  0.00    +0.000 NA
ATOM     15  C   UNL     1       2.615   4.443  18.679  0.00  0.00    +0.000 A 
ENDBRANCH   9  10
ENDBRANCH   7   9
ENDBRANCH   1   6
BRANCH   3  16
ATOM     16  N   UNL     1       8.188   8.197  17.504  0.00  0.00    +0.000 NA
ATOM     17  C   UNL     1       7.872   9.415  17.814  0.00  0.00    +0.000 C 
BRANCH  17  18
ATOM     18  C   UNL     1       8.885  10.337  18.388  0.00  0.00    +0.000 A 
ATOM     19  C   UNL     1       9.197  10.269  19.748  0.00  0.00    +0.000 A 
ATOM     20  C   UNL     1      10.135  11.146  20.297  0.00  0.00    +0.000 A 
ATOM     21  C   UNL     1      10.772  12.106  19.499  0.00  0.00    +0.000 A 
ATOM     22  C   UNL     1      11.707  12.999  20.047  0.00  0.00    +0.000 A 
ATOM     23  C   UNL     1      12.333  13.958  19.251  0.00  0.00    +0.000 A 
ATOM     24  C   UNL     1      12.029  14.036  17.896  0.00  0.00    +0.000 A 
ATOM     25  C   UNL     1      11.102  13.153  17.332  0.00  0.00    +0.000 A 
ATOM     26  C   UNL     1      10.461  12.180  18.119  0.00  0.00    +0.000 A 
ATOM     27  C   UNL     1       9.518  11.284  17.573  0.00  0.00    +0.000 A 
ENDBRANCH  17  18
ENDBRANCH   3  16
TORSDOF 5
ENDMDL
MODEL 5
REMARK VINA RESULT:      -8.2      0.976      1.366
REMARK  Name = 
REMARK  5 active torsions:
REMARK  status: ('A' for Active; 'I' for Inactive)
REMARK    1  A    between atoms: C_2  and  C_11
REMARK    2  A    between atoms: N_3  and  C_4
REMARK    3  A    between atoms: C_4  and  C_5
REMARK    4  A    between atoms: N_13  and  N_14
REMARK    5  A    between atoms: C_15  and  C_16
REMARK                            x       y       z     vdW  Elec       q    Type
REMARK                         _______ _______ _______ _____ _____    ______ ____
ROOT
ATOM      1  C   UNL     1       7.038   6.997  17.439  0.00  0.00    +0.000 C 
ATOM      2  O   UNL     1       6.473   7.665  16.580  0.00  0.00    +0.000 OA
ATOM      3  N   UNL     1       8.063   7.386  18.290  0.00  0.00    +0.000 N 
ATOM      4  H   UNL     1       8.439   6.711  18.952  0.00  0.00    +0.000 HD
ENDROOT
BRANCH   1   6
ATOM      5  O   UNL     1       7.111   4.858  18.528  0.00  0.00    +0.000 OA
ATOM      6  C   UNL     1       6.598   5.533  17.646  0.00  0.00    +0.000 C 
ATOM      7  N   UNL     1       5.622   5.110  16.765  0.00  0.00    +0.000 N 
ATOM      8  H   UNL     1       5.407   5.742  15.996  0.00  0.00    +0.000 HD
BRANCH   7   9
ATOM      9  C   UNL     1       5.145   3.747  16.733  0.00  0.00    +0.000 C 
BRANCH   9  10
ATOM     10  C   UNL     1       3.789   3.557  17.357  0.00  0.00    +0.000 A 
ATOM     11  C   UNL     1       2.898   4.605  17.603  0.00  0.00    +0.000 A 
ATOM     12  C   UNL     1       1.682   4.355  18.239  0.00  0.00    +0.000 A 
ATOM     13  C   UNL     1       1.398   3.057  18.628  0.00  0.00    +0.000 A 
ATOM     14  N   UNL     1       2.236   2.020  18.432  0.00  0.00    +0.000 NA
ATOM     15  C   UNL     1       3.408   2.294  17.810  0.00  0.00    +0.000 A 
ENDBRANCH   9  10
ENDBRANCH   7   9
ENDBRANCH   1   6
BRANCH   3  16
ATOM     16  N   UNL     1       8.556   8.655  18.214  0.00  0.00    +0.000 NA
ATOM     17  C   UNL     1       8.945   9.214  19.317  0.00  0.00    +0.000 C 
BRANCH  17  18
ATOM     18  C   UNL     1       9.508  10.588  19.311  0.00  0.00    +0.000 A 
ATOM     19  C   UNL     1       9.589  11.312  20.503  0.00  0.00    +0.000 A 
ATOM     20  C   UNL     1      10.101  12.611  20.501  0.00  0.00    +0.000 A 
ATOM     21  C   UNL     1      10.534  13.210  19.310  0.00  0.00    +0.000 A 
ATOM     22  C   UNL     1      11.038  14.520  19.299  0.00  0.00    +0.000 A 
ATOM     23  C   UNL     1      11.461  15.115  18.110  0.00  0.00    +0.000 A 
ATOM     24  C   UNL     1      11.383  14.405  16.918  0.00  0.00    +0.000 A 
ATOM     25  C   UNL     1      10.887  13.097  16.909  0.00  0.00    +0.000 A 
ATOM     26  C   UNL     1      10.456  12.482  18.097  0.00  0.00    +0.000 A 
ATOM     27  C   UNL     1       9.945  11.167  18.113  0.00  0.00    +0.000 A 
ENDBRANCH  17  18
ENDBRANCH   3  16
TORSDOF 5
ENDMDL
MODEL 6
REMARK VINA RESULT:      -8.2      1.738      2.178
REMARK  Name = 
REMARK  5 active torsions:
REMARK  status: ('A' for Active; 'I' for Inactive)
REMARK    1  A    between atoms: C_2  and  C_11
REMARK    2  A    between atoms: N_3  and  C_4
REMARK    3  A    between atoms: C_4  and  C_5
REMARK    4  A    between atoms: N_13  and  N_14
REMARK    5  A    between atoms: C_15  and  C_16
REMARK                            x       y       z     vdW  Elec       q    Type
REMARK                         _______ _______ _______ _____ _____    ______ ____
ROOT
ATOM      1  C   UNL     1       6.979   6.896  17.479  0.00  0.00    +0.000 C 
ATOM      2  O   UNL     1       6.390   7.282  16.476  0.00  0.00    +0.000 OA
ATOM      3  N   UNL     1       7.934   7.572  18.226  0.00  0.00    +0.000 N 
ATOM      4  H   UNL     1       8.343   7.114  19.036  0.00  0.00    +0.000 HD
ENDROOT
BRANCH   1   6
ATOM      5  O   UNL     1       7.550   4.812  18.527  0.00  0.00    +0.000 OA
ATOM      6  C   UNL     1       6.662   5.490  18.028  0.00  0.00    +0.000 C 
ATOM      7  N   UNL     1       5.339   5.117  17.886  0.00  0.00    +0.000 N 
ATOM      8  H   UNL     1       4.759   5.730  17.317  0.00  0.00    +0.000 HD
BRANCH   7   9
ATOM      9  C   UNL     1       4.862   3.803  18.250  0.00  0.00    +0.000 C 
BRANCH   9  10
ATOM     10  C   UNL     1       3.840   3.806  19.354  0.00  0.00    +0.000 A 
ATOM     11  C   UNL     1       3.051   4.914  19.675  0.00  0.00    +0.000 A 
ATOM     12  C   UNL     1       2.167   4.855  20.752  0.00  0.00    +0.000 A 
ATOM     13  C   UNL     1       2.110   3.688  21.494  0.00  0.00    +0.000 A 
ATOM     14  N   UNL     1       2.868   2.603  21.236  0.00  0.00    +0.000 NA
ATOM     15  C   UNL     1       3.714   2.690  20.182  0.00  0.00    +0.000 A 
ENDBRANCH   9  10
ENDBRANCH   7   9
ENDBRANCH   1   6
BRANCH   3  16
ATOM     16  N   UNL     1       8.316   8.827  17.851  0.00  0.00    +0.000 NA
ATOM     17  C   UNL     1       8.918   9.558  18.736  0.00  0.00    +0.000 C 
BRANCH  17  18
ATOM     18  C   UNL     1       9.379  10.929  18.398  0.00  0.00    +0.000 A 
ATOM     19  C   UNL     1      10.729  11.162  18.128  0.00  0.00    +0.000 A 
ATOM     20  C   UNL     1      11.172  12.452  17.828  0.00  0.00    +0.000 A 
ATOM     21  C   UNL     1      10.275  13.529  17.798  0.00  0.00    +0.000 A 
ATOM     22  C   UNL     1      10.716  14.831  17.509  0.00  0.00    +0.000 A 
ATOM     23  C   UNL     1       9.822  15.901  17.487  0.00  0.00    +0.000 A 
ATOM     24  C   UNL     1       8.475  15.681  17.756  0.00  0.00    +0.000 A 
ATOM     25  C   UNL     1       8.017  14.390  18.042  0.00  0.00    +0.000 A 
ATOM     26  C   UNL     1       8.904  13.300  18.069  0.00  0.00    +0.000 A 
ATOM     27  C   UNL     1       8.467  11.991  18.363  0.00  0.00    +0.000 A 
ENDBRANCH  17  18
ENDBRANCH   3  16
TORSDOF 5
ENDMDL
MODEL 7
REMARK VINA RESULT:      -8.1      1.441      1.825
REMARK  Name = 
REMARK  5 active torsions:
REMARK  status: ('A' for Active; 'I' for Inactive)
REMARK    1  A    between atoms: C_2  and  C_11
REMARK    2  A    between atoms: N_3  and  C_4
REMARK    3  A    between atoms: C_4  and  C_5
REMARK    4  A    between atoms: N_13  and  N_14
REMARK    5  A    between atoms: C_15  and  C_16
REMARK                            x       y       z     vdW  Elec       q    Type
REMARK                         _______ _______ _______ _____ _____    ______ ____
ROOT
ATOM      1  C   UNL     1       7.431   7.001  17.724  0.00  0.00    +0.000 C 
ATOM      2  O   UNL     1       6.998   7.510  16.696  0.00  0.00    +0.000 OA
ATOM      3  N   UNL     1       8.289   7.561  18.661  0.00  0.00    +0.000 N 
ATOM      4  H   UNL     1       8.569   7.008  19.467  0.00  0.00    +0.000 HD
ENDROOT
BRANCH   1   6
ATOM      5  O   UNL     1       7.850   4.726  18.366  0.00  0.00    +0.000 OA
ATOM      6  C   UNL     1       7.005   5.561  18.074  0.00  0.00    +0.000 C 
ATOM      7  N   UNL     1       5.642   5.348  18.012  0.00  0.00    +0.000 N 
ATOM      8  H   UNL     1       5.088   6.101  17.609  0.00  0.00    +0.000 HD
BRANCH   7   9
ATOM      9  C   UNL     1       5.052   4.044  18.211  0.00  0.00    +0.000 C 
BRANCH   9  10
ATOM     10  C   UNL     1       3.843   4.049  19.108  0.00  0.00    +0.000 A 
ATOM     11  C   UNL     1       3.341   5.199  19.723  0.00  0.00    +0.000 A 
ATOM     12  C   UNL     1       2.251   5.110  20.588  0.00  0.00    +0.000 A 
ATOM     13  C   UNL     1       1.701   3.862  20.828  0.00  0.00    +0.000 A 
ATOM     14  N   UNL     1       2.166   2.724  20.275  0.00  0.00    +0.000 NA
ATOM     15  C   UNL     1       3.224   2.843  19.438  0.00  0.00    +0.000 A 
ENDBRANCH   9  10
ENDBRANCH   7   9
ENDBRANCH   1   6
BRANCH   3  16
ATOM     16  N   UNL     1       8.751   8.831  18.476  0.00  0.00    +0.000 NA
ATOM     17  C   UNL     1       9.103   9.499  19.530  0.00  0.00    +0.000 C 
BRANCH  17  18
ATOM     18  C   UNL     1       9.632  10.882  19.407  0.00  0.00    +0.000 A 
ATOM     19  C   UNL     1       9.653  11.720  20.523  0.00  0.00    +0.000 A 
ATOM     20  C   UNL     1      10.131  13.027  20.410  0.00  0.00    +0.000 A 
ATOM     21  C   UNL     1      10.591  13.519  19.180  0.00  0.00    +0.000 A 
ATOM     22  C   UNL     1      11.062  14.836  19.056  0.00  0.00    +0.000 A 
ATOM     23  C   UNL     1      11.511  15.323  17.829  0.00  0.00    +0.000 A 
ATOM     24  C   UNL     1      11.493  14.498  16.711  0.00  0.00    +0.000 A 
ATOM     25  C   UNL     1      11.031  13.182  16.815  0.00  0.00    +0.000 A 
ATOM     26  C   UNL     1      10.574  12.674  18.044  0.00  0.00    +0.000 A 
ATOM     27  C   UNL     1      10.096  11.352  18.172  0.00  0.00    +0.000 A 
ENDBRANCH  17  18
ENDBRANCH   3  16
TORSDOF 5
ENDMDL
MODEL 8
REMARK VINA RESULT:      -8.1      6.203      8.642
REMARK  Name = 
REMARK  5 active torsions:
REMARK  status: ('A' for Active; 'I' for Inactive)
REMARK    1  A    between atoms: C_2  and  C_11
REMARK    2  A    between atoms: N_3  and  C_4
REMARK    3  A    between atoms: C_4  and  C_5
REMARK    4  A    between atoms: N_13  and  N_14
REMARK    5  A    between atoms: C_15  and  C_16
REMARK                            x       y       z     vdW  Elec       q    Type
REMARK                         _______ _______ _______ _____ _____    ______ ____
ROOT
ATOM      1  C   UNL     1       2.230   5.331  20.212  0.00  0.00    +0.000 C 
ATOM      2  O   UNL     1       1.145   4.843  20.508  0.00  0.00    +0.000 OA
ATOM      3  N   UNL     1       2.593   6.671  20.203  0.00  0.00    +0.000 N 
ATOM      4  H   UNL     1       3.537   6.924  19.923  0.00  0.00    +0.000 HD
ENDROOT
BRANCH   1   6
ATOM      5  O   UNL     1       3.372   3.220  20.151  0.00  0.00    +0.000 OA
ATOM      6  C   UNL     1       3.374   4.388  19.786  0.00  0.00    +0.000 C 
ATOM      7  N   UNL     1       4.336   4.991  19.001  0.00  0.00    +0.000 N 
ATOM      8  H   UNL     1       4.272   6.003  18.910  0.00  0.00    +0.000 HD
BRANCH   7   9
ATOM      9  C   UNL     1       5.535   4.303  18.580  0.00  0.00    +0.000 C 
BRANCH   9  10
ATOM     10  C   UNL     1       5.895   4.526  17.136  0.00  0.00    +0.000 A 
ATOM     11  C   UNL     1       5.147   4.027  16.066  0.00  0.00    +0.000 A 
ATOM     12  C   UNL     1       5.580   4.227  14.756  0.00  0.00    +0.000 A 
ATOM     13  C   UNL     1       6.766   4.912  14.552  0.00  0.00    +0.000 A 
ATOM     14  N   UNL     1       7.531   5.392  15.553  0.00  0.00    +0.000 NA
ATOM     15  C   UNL     1       7.083   5.183  16.814  0.00  0.00    +0.000 A 
ENDBRANCH   9  10
ENDBRANCH   7   9
ENDBRANCH   1   6
BRANCH   3  16
ATOM     16  N   UNL     1       1.677   7.618  20.554  0.00  0.00    +0.000 NA
ATOM     17  C   UNL     1       1.504   8.614  19.741  0.00  0.00    +0.000 C 
BRANCH  17  18
ATOM     18  C   UNL     1       0.512   9.676  20.045  0.00  0.00    +0.000 A 
ATOM     19  C   UNL     1       0.021  10.484  19.018  0.00  0.00    +0.000 A 
ATOM     20  C   UNL     1      -0.898  11.497  19.300  0.00  0.00    +0.000 A 
ATOM     21  C   UNL     1      -1.336  11.722  20.613  0.00  0.00    +0.000 A 
ATOM     22  C   UNL     1      -2.251  12.746  20.906  0.00  0.00    +0.000 A 
ATOM     23  C   UNL     1      -2.679  12.971  22.214  0.00  0.00    +0.000 A 
ATOM     24  C   UNL     1      -2.195  12.173  23.245  0.00  0.00    +0.000 A 
ATOM     25  C   UNL     1      -1.286  11.146  22.973  0.00  0.00    +0.000 A 
ATOM     26  C   UNL     1      -0.843  10.905  21.660  0.00  0.00    +0.000 A 
ATOM     27  C   UNL     1       0.078   9.879  21.361  0.00  0.00    +0.000 A 
ENDBRANCH  17  18
ENDBRANCH   3  16
TORSDOF 5
ENDMDL
MODEL 9
REMARK VINA RESULT:      -8.1      1.194      1.871
REMARK  Name = 
REMARK  5 active torsions:
REMARK  status: ('A' for Active; 'I' for Inactive)
REMARK    1  A    between atoms: C_2  and  C_11
REMARK    2  A    between atoms: N_3  and  C_4
REMARK    3  A    between atoms: C_4  and  C_5
REMARK    4  A    between atoms: N_13  and  N_14
REMARK    5  A    between atoms: C_15  and  C_16
REMARK                            x       y       z     vdW  Elec       q    Type
REMARK                         _______ _______ _______ _____ _____    ______ ____
ROOT
ATOM      1  C   UNL     1       7.433   7.034  17.672  0.00  0.00    +0.000 C 
ATOM      2  O   UNL     1       6.922   7.493  16.657  0.00  0.00    +0.000 OA
ATOM      3  N   UNL     1       8.280   7.671  18.569  0.00  0.00    +0.000 N 
ATOM      4  H   UNL     1       8.633   7.152  19.368  0.00  0.00    +0.000 HD
ENDROOT
BRANCH   1   6
ATOM      5  O   UNL     1       7.878   4.674  17.674  0.00  0.00    +0.000 OA
ATOM      6  C   UNL     1       7.134   5.569  18.053  0.00  0.00    +0.000 C 
ATOM      7  N   UNL     1       5.996   5.409  18.818  0.00  0.00    +0.000 N 
ATOM      8  H   UNL     1       5.406   6.232  18.922  0.00  0.00    +0.000 HD
BRANCH   7   9
ATOM      9  C   UNL     1       5.493   4.108  19.195  0.00  0.00    +0.000 C 
BRANCH   9  10
ATOM     10  C   UNL     1       4.080   3.844  18.748  0.00  0.00    +0.000 A 
ATOM     11  C   UNL     1       3.116   4.844  18.601  0.00  0.00    +0.000 A 
ATOM     12  C   UNL     1       1.811   4.510  18.239  0.00  0.00    +0.000 A 
ATOM     13  C   UNL     1       1.502   3.174  18.050  0.00  0.00    +0.000 A 
ATOM     14  N   UNL     1       2.394   2.174  18.203  0.00  0.00    +0.000 NA
ATOM     15  C   UNL     1       3.653   2.531  18.553  0.00  0.00    +0.000 A 
ENDBRANCH   9  10
ENDBRANCH   7   9
ENDBRANCH   1   6
BRANCH   3  16
ATOM     16  N   UNL     1       8.634   8.970  18.352  0.00  0.00    +0.000 NA
ATOM     17  C   UNL     1       9.174   9.616  19.339  0.00  0.00    +0.000 C 
BRANCH  17  18
ATOM     18  C   UNL     1       9.601  11.028  19.175  0.00  0.00    +0.000 A 
ATOM     19  C   UNL     1       9.908  11.520  17.904  0.00  0.00    +0.000 A 
ATOM     20  C   UNL     1      10.328  12.842  17.745  0.00  0.00    +0.000 A 
ATOM     21  C   UNL     1      10.454  13.692  18.853  0.00  0.00    +0.000 A 
ATOM     22  C   UNL     1      10.888  15.019  18.703  0.00  0.00    +0.000 A 
ATOM     23  C   UNL     1      11.019  15.859  19.808  0.00  0.00    +0.000 A 
ATOM     24  C   UNL     1      10.719  15.380  21.078  0.00  0.00    +0.000 A 
ATOM     25  C   UNL     1      10.282  14.062  21.248  0.00  0.00    +0.000 A 
ATOM     26  C   UNL     1      10.144  13.201  20.145  0.00  0.00    +0.000 A 
ATOM     27  C   UNL     1       9.712  11.866  20.292  0.00  0.00    +0.000 A 
ENDBRANCH  17  18
ENDBRANCH   3  16
TORSDOF 5
ENDMDL
