MODEL 1
REMARK VINA RESULT:      -8.5      0.000      0.000
REMARK  Name = 
REMARK  9 active torsions:
REMARK  status: ('A' for Active; 'I' for Inactive)
REMARK    1  A    between atoms: C_1  and  O_2
REMARK    2  A    between atoms: O_2  and  C_3
REMARK    3  A    between atoms: C_6  and  C_7
REMARK    4  A    between atoms: C_7  and  C_8
REMARK    5  A    between atoms: N_10  and  C_11
REMARK    6  A    between atoms: C_15  and  C_16
REMARK    7  A    between atoms: C_19  and  C_20
REMARK    8  A    between atoms: C_30  and  O_31
REMARK    9  A    between atoms: O_31  and  C_32
REMARK                            x       y       z     vdW  Elec       q    Type
REMARK                         _______ _______ _______ _____ _____    ______ ____
ROOT
ATOM      1  C   UNL     1       1.923   8.436  18.950  0.00  0.00    +0.000 A 
ATOM      2  C   UNL     1       1.360   8.811  17.730  0.00  0.00    +0.000 A 
ATOM      3  C   UNL     1       0.266   9.676  17.710  0.00  0.00    +0.000 A 
ATOM      4  C   UNL     1      -0.230  10.208  18.903  0.00  0.00    +0.000 A 
ATOM      5  C   UNL     1       0.368   9.896  20.134  0.00  0.00    +0.000 A 
ATOM      6  C   UNL     1       1.450   9.005  20.142  0.00  0.00    +0.000 A 
ENDROOT
BRANCH   5   7
ATOM      7  C   UNL     1      -0.171  10.476  21.358  0.00  0.00    +0.000 A 
ATOM      8  N   UNL     1       0.157  10.236  22.613  0.00  0.00    +0.000 NA
ATOM      9  N   UNL     1      -0.650  11.034  23.392  0.00  0.00    +0.000 NA
ATOM     10  C   UNL     1      -1.436  11.696  22.563  0.00  0.00    +0.000 A 
ATOM     11  O   UNL     1      -1.185  11.397  21.248  0.00  0.00    +0.000 OA
BRANCH  10  12
ATOM     12  C   UNL     1      -2.519  12.622  22.867  0.00  0.00    +0.000 A 
ATOM     13  C   UNL     1      -3.722  12.530  22.146  0.00  0.00    +0.000 A 
ATOM     14  C   UNL     1      -4.756  13.448  22.347  0.00  0.00    +0.000 A 
ATOM     15  C   UNL     1      -4.599  14.473  23.277  0.00  0.00    +0.000 A 
ATOM     16  C   UNL     1      -3.419  14.561  24.015  0.00  0.00    +0.000 A 
ATOM     17 CL   UNL     1      -3.228  15.831  25.160  0.00  0.00    +0.000 Cl
ATOM     18  C   UNL     1      -2.386  13.640  23.822  0.00  0.00    +0.000 A 
ENDBRANCH  10  12
ENDBRANCH   5   7
BRANCH   1  21
ATOM     19  C   UNL     1       2.801   6.227  19.558  0.00  0.00    +0.000 C 
ATOM     20  O   UNL     1       1.766   5.824  20.087  0.00  0.00    +0.000 OA
ATOM     21  N   UNL     1       2.950   7.467  18.948  0.00  0.00    +0.000 N 
ATOM     22  H   UNL     1       3.631   7.514  18.199  0.00  0.00    +0.000 HD
BRANCH  19  23
ATOM     23  C   UNL     1       4.037   5.357  19.505  0.00  0.00    +0.000 C 
BRANCH  23  27
ATOM     24  C   UNL     1       6.048   5.224  15.660  0.00  0.00    +0.000 A 
ATOM     25  C   UNL     1       4.914   4.433  15.902  0.00  0.00    +0.000 A 
ATOM     26  C   UNL     1       4.242   4.479  17.128  0.00  0.00    +0.000 A 
ATOM     27  C   UNL     1       4.717   5.303  18.157  0.00  0.00    +0.000 A 
ATOM     28  C   UNL     1       5.889   6.031  17.935  0.00  0.00    +0.000 A 
ATOM     29  C   UNL     1       6.569   5.997  16.707  0.00  0.00    +0.000 A 
BRANCH  24  31
ATOM     30  C   UNL     1       6.445   4.080  13.624  0.00  0.00    +0.000 C 
ATOM     31  O   UNL     1       6.675   5.225  14.443  0.00  0.00    +0.000 OA
ENDBRANCH  24  31
BRANCH  29  32
ATOM     32  O   UNL     1       7.689   6.785  16.725  0.00  0.00    +0.000 OA
ATOM     33  C   UNL     1       7.739   7.910  17.589  0.00  0.00    +0.000 C 
ENDBRANCH  29  32
ENDBRANCH  23  27
ENDBRANCH  19  23
ENDBRANCH   1  21
TORSDOF 7
ENDMDL
MODEL 2
REMARK VINA RESULT:      -8.5      4.335     11.312
REMARK  Name = 
REMARK  9 active torsions:
REMARK  status: ('A' for Active; 'I' for Inactive)
REMARK    1  A    between atoms: C_1  and  O_2
REMARK    2  A    between atoms: O_2  and  C_3
REMARK    3  A    between atoms: C_6  and  C_7
REMARK    4  A    between atoms: C_7  and  C_8
REMARK    5  A    between atoms: N_10  and  C_11
REMARK    6  A    between atoms: C_15  and  C_16
REMARK    7  A    between atoms: C_19  and  C_20
REMARK    8  A    between atoms: C_30  and  O_31
REMARK    9  A    between atoms: O_31  and  C_32
REMARK                            x       y       z     vdW  Elec       q    Type
REMARK                         _______ _______ _______ _____ _____    ______ ____
ROOT
ATOM      1  C   UNL     1       2.303   6.199  20.020  0.00  0.00    +0.000 A 
ATOM      2  C   UNL     1       1.635   5.056  20.462  0.00  0.00    +0.000 A 
ATOM      3  C   UNL     1       2.085   3.796  20.069  0.00  0.00    +0.000 A 
ATOM      4  C   UNL     1       3.232   3.675  19.280  0.00  0.00    +0.000 A 
ATOM      5  C   UNL     1       3.957   4.810  18.884  0.00  0.00    +0.000 A 
ATOM      6  C   UNL     1       3.478   6.072  19.265  0.00  0.00    +0.000 A 
ENDROOT
BRANCH   5   7
ATOM      7  C   UNL     1       5.154   4.646  18.069  0.00  0.00    +0.000 A 
ATOM      8  N   UNL     1       6.419   4.601  18.440  0.00  0.00    +0.000 NA
ATOM      9  N   UNL     1       7.162   4.440  17.292  0.00  0.00    +0.000 NA
ATOM     10  C   UNL     1       6.304   4.418  16.290  0.00  0.00    +0.000 A 
ATOM     11  O   UNL     1       5.003   4.538  16.708  0.00  0.00    +0.000 OA
BRANCH  10  12
ATOM     12  C   UNL     1       6.565   4.336  14.858  0.00  0.00    +0.000 A 
ATOM     13  C   UNL     1       7.609   5.100  14.307  0.00  0.00    +0.000 A 
ATOM     14  C   UNL     1       7.843   5.115  12.930  0.00  0.00    +0.000 A 
ATOM     15  C   UNL     1       7.034   4.362  12.084  0.00  0.00    +0.000 A 
ATOM     16  C   UNL     1       6.010   3.581  12.620  0.00  0.00    +0.000 A 
ATOM     17 CL   UNL     1       5.011   2.655  11.570  0.00  0.00    +0.000 Cl
ATOM     18  C   UNL     1       5.778   3.558  13.998  0.00  0.00    +0.000 A 
ENDBRANCH  10  12
ENDBRANCH   5   7
BRANCH   1  21
ATOM     19  C   UNL     1       1.639   8.475  19.389  0.00  0.00    +0.000 C 
ATOM     20  O   UNL     1       1.924   8.360  18.197  0.00  0.00    +0.000 OA
ATOM     21  N   UNL     1       1.757   7.462  20.334  0.00  0.00    +0.000 N 
ATOM     22  H   UNL     1       1.114   7.509  21.116  0.00  0.00    +0.000 HD
BRANCH  19  23
ATOM     23  C   UNL     1       1.092   9.774  19.937  0.00  0.00    +0.000 C 
BRANCH  23  27
ATOM     24  C   UNL     1      -2.547  11.222  18.063  0.00  0.00    +0.000 A 
ATOM     25  C   UNL     1      -1.744  10.265  17.422  0.00  0.00    +0.000 A 
ATOM     26  C   UNL     1      -0.579   9.772  18.022  0.00  0.00    +0.000 A 
ATOM     27  C   UNL     1      -0.175  10.258  19.272  0.00  0.00    +0.000 A 
ATOM     28  C   UNL     1      -0.939  11.264  19.870  0.00  0.00    +0.000 A 
ATOM     29  C   UNL     1      -2.112  11.762  19.281  0.00  0.00    +0.000 A 
BRANCH  24  31
ATOM     30  C   UNL     1      -4.896  10.960  17.895  0.00  0.00    +0.000 C 
ATOM     31  O   UNL     1      -3.717  11.664  17.507  0.00  0.00    +0.000 OA
ENDBRANCH  24  31
BRANCH  29  32
ATOM     32  O   UNL     1      -2.687  12.743  20.046  0.00  0.00    +0.000 OA
ATOM     33  C   UNL     1      -2.055  13.152  21.248  0.00  0.00    +0.000 C 
ENDBRANCH  29  32
ENDBRANCH  23  27
ENDBRANCH  19  23
ENDBRANCH   1  21
TORSDOF 7
ENDMDL
MODEL 3
REMARK VINA RESULT:      -8.4      4.375     11.444
REMARK  Name = 
REMARK  9 active torsions:
REMARK  status: ('A' for Active; 'I' for Inactive)
REMARK    1  A    between atoms: C_1  and  O_2
REMARK    2  A    between atoms: O_2  and  C_3
REMARK    3  A    between atoms: C_6  and  C_7
REMARK    4  A    between atoms: C_7  and  C_8
REMARK    5  A    between atoms: N_10  and  C_11
REMARK    6  A    between atoms: C_15  and  C_16
REMARK    7  A    between atoms: C_19  and  C_20
REMARK    8  A    between atoms: C_30  and  O_31
REMARK    9  A    between atoms: O_31  and  C_32
REMARK                            x       y       z     vdW  Elec       q    Type
REMARK                         _______ _______ _______ _____ _____    ______ ____
ROOT
ATOM      1  C   UNL     1       2.112   5.610  20.177  0.00  0.00    +0.000 A 
ATOM      2  C   UNL     1       1.151   4.639  19.891  0.00  0.00    +0.000 A 
ATOM      3  C   UNL     1       1.378   3.719  18.869  0.00  0.00    +0.000 A 
ATOM      4  C   UNL     1       2.587   3.734  18.168  0.00  0.00    +0.000 A 
ATOM      5  C   UNL     1       3.594   4.659  18.488  0.00  0.00    +0.000 A 
ATOM      6  C   UNL     1       3.341   5.594  19.501  0.00  0.00    +0.000 A 
ENDROOT
BRANCH   5   7
ATOM      7  C   UNL     1       4.846   4.639  17.741  0.00  0.00    +0.000 A 
ATOM      8  N   UNL     1       6.078   4.832  18.170  0.00  0.00    +0.000 NA
ATOM      9  N   UNL     1       6.901   4.717  17.072  0.00  0.00    +0.000 NA
ATOM     10  C   UNL     1       6.115   4.483  16.037  0.00  0.00    +0.000 A 
ATOM     11  O   UNL     1       4.791   4.413  16.387  0.00  0.00    +0.000 OA
BRANCH  10  12
ATOM     12  C   UNL     1       6.467   4.347  14.629  0.00  0.00    +0.000 A 
ATOM     13  C   UNL     1       7.465   5.175  14.089  0.00  0.00    +0.000 A 
ATOM     14  C   UNL     1       7.777   5.135  12.728  0.00  0.00    +0.000 A 
ATOM     15  C   UNL     1       7.092   4.261  11.887  0.00  0.00    +0.000 A 
ATOM     16  C   UNL     1       6.116   3.417  12.416  0.00  0.00    +0.000 A 
ATOM     17 CL   UNL     1       5.270   2.341  11.373  0.00  0.00    +0.000 Cl
ATOM     18  C   UNL     1       5.807   3.449  13.778  0.00  0.00    +0.000 A 
ENDBRANCH  10  12
ENDBRANCH   5   7
BRANCH   1  21
ATOM     19  C   UNL     1       1.616   7.934  20.787  0.00  0.00    +0.000 C 
ATOM     20  O   UNL     1       1.624   8.368  19.635  0.00  0.00    +0.000 OA
ATOM     21  N   UNL     1       1.805   6.601  21.134  0.00  0.00    +0.000 N 
ATOM     22  H   UNL     1       1.353   6.297  21.989  0.00  0.00    +0.000 HD
BRANCH  19  23
ATOM     23  C   UNL     1       1.362   8.851  21.962  0.00  0.00    +0.000 C 
BRANCH  23  27
ATOM     24  C   UNL     1      -1.660  11.877  21.215  0.00  0.00    +0.000 A 
ATOM     25  C   UNL     1      -1.419  11.412  22.517  0.00  0.00    +0.000 A 
ATOM     26  C   UNL     1      -0.434  10.453  22.778  0.00  0.00    +0.000 A 
ATOM     27  C   UNL     1       0.312   9.911  21.724  0.00  0.00    +0.000 A 
ATOM     28  C   UNL     1       0.016  10.323  20.422  0.00  0.00    +0.000 A 
ATOM     29  C   UNL     1      -0.965  11.290  20.148  0.00  0.00    +0.000 A 
BRANCH  24  31
ATOM     30  C   UNL     1      -2.594  13.951  21.880  0.00  0.00    +0.000 C 
ATOM     31  O   UNL     1      -2.581  12.857  20.963  0.00  0.00    +0.000 OA
ENDBRANCH  24  31
BRANCH  29  32
ATOM     32  O   UNL     1      -1.081  11.529  18.805  0.00  0.00    +0.000 OA
ATOM     33  C   UNL     1      -1.740  10.582  17.980  0.00  0.00    +0.000 C 
ENDBRANCH  29  32
ENDBRANCH  23  27
ENDBRANCH  19  23
ENDBRANCH   1  21
TORSDOF 7
ENDMDL
MODEL 4
REMARK VINA RESULT:      -8.2      4.756     11.258
REMARK  Name = 
REMARK  9 active torsions:
REMARK  status: ('A' for Active; 'I' for Inactive)
REMARK    1  A    between atoms: C_1  and  O_2
REMARK    2  A    between atoms: O_2  and  C_3
REMARK    3  A    between atoms: C_6  and  C_7
REMARK    4  A    between atoms: C_7  and  C_8
REMARK    5  A    between atoms: N_10  and  C_11
REMARK    6  A    between atoms: C_15  and  C_16
REMARK    7  A    between atoms: C_19  and  C_20
REMARK    8  A    between atoms: C_30  and  O_31
REMARK    9  A    between atoms: O_31  and  C_32
REMARK                            x       y       z     vdW  Elec       q    Type
REMARK                         _______ _______ _______ _____ _____    ______ ____
ROOT
ATOM      1  C   UNL     1       2.243   5.428  20.176  0.00  0.00    +0.000 A 
ATOM      2  C   UNL     1       1.585   4.197  20.178  0.00  0.00    +0.000 A 
ATOM      3  C   UNL     1       2.045   3.165  19.361  0.00  0.00    +0.000 A 
ATOM      4  C   UNL     1       3.192   3.344  18.584  0.00  0.00    +0.000 A 
ATOM      5  C   UNL     1       3.907   4.551  18.622  0.00  0.00    +0.000 A 
ATOM      6  C   UNL     1       3.418   5.589  19.428  0.00  0.00    +0.000 A 
ENDROOT
BRANCH   5   7
ATOM      7  C   UNL     1       5.105   4.699  17.805  0.00  0.00    +0.000 A 
ATOM      8  N   UNL     1       6.300   5.143  18.145  0.00  0.00    +0.000 NA
ATOM      9  N   UNL     1       7.077   5.093  17.010  0.00  0.00    +0.000 NA
ATOM     10  C   UNL     1       6.301   4.642  16.042  0.00  0.00    +0.000 A 
ATOM     11  O   UNL     1       5.029   4.363  16.475  0.00  0.00    +0.000 OA
BRANCH  10  12
ATOM     12  C   UNL     1       6.605   4.462  14.629  0.00  0.00    +0.000 A 
ATOM     13  C   UNL     1       7.591   5.267  14.032  0.00  0.00    +0.000 A 
ATOM     14  C   UNL     1       7.859   5.186  12.663  0.00  0.00    +0.000 A 
ATOM     15  C   UNL     1       7.141   4.293  11.871  0.00  0.00    +0.000 A 
ATOM     16  C   UNL     1       6.176   3.473  12.455  0.00  0.00    +0.000 A 
ATOM     17 CL   UNL     1       5.289   2.375  11.472  0.00  0.00    +0.000 Cl
ATOM     18  C   UNL     1       5.912   3.546  13.825  0.00  0.00    +0.000 A 
ENDBRANCH  10  12
ENDBRANCH   5   7
BRANCH   1  21
ATOM     19  C   UNL     1       1.639   7.791  20.434  0.00  0.00    +0.000 C 
ATOM     20  O   UNL     1       2.003   8.135  19.309  0.00  0.00    +0.000 OA
ATOM     21  N   UNL     1       1.685   6.490  20.919  0.00  0.00    +0.000 N 
ATOM     22  H   UNL     1       0.991   6.253  21.619  0.00  0.00    +0.000 HD
BRANCH  19  23
ATOM     23  C   UNL     1       1.066   8.797  21.406  0.00  0.00    +0.000 C 
BRANCH  23  27
ATOM     24  C   UNL     1      -0.478  12.409  19.556  0.00  0.00    +0.000 A 
ATOM     25  C   UNL     1       0.272  12.476  20.741  0.00  0.00    +0.000 A 
ATOM     26  C   UNL     1       0.795  11.323  21.339  0.00  0.00    +0.000 A 
ATOM     27  C   UNL     1       0.545  10.066  20.773  0.00  0.00    +0.000 A 
ATOM     28  C   UNL     1      -0.265  10.000  19.637  0.00  0.00    +0.000 A 
ATOM     29  C   UNL     1      -0.790  11.150  19.024  0.00  0.00    +0.000 A 
BRANCH  24  31
ATOM     30  C   UNL     1       0.007  14.589  18.767  0.00  0.00    +0.000 C 
ATOM     31  O   UNL     1      -0.942  13.537  18.937  0.00  0.00    +0.000 OA
ENDBRANCH  24  31
BRANCH  29  32
ATOM     32  O   UNL     1      -1.554  10.838  17.931  0.00  0.00    +0.000 OA
ATOM     33  C   UNL     1      -2.956  10.682  18.080  0.00  0.00    +0.000 C 
ENDBRANCH  29  32
ENDBRANCH  23  27
ENDBRANCH  19  23
ENDBRANCH   1  21
TORSDOF 7
ENDMDL
MODEL 5
REMARK VINA RESULT:      -8.2      4.575     11.231
REMARK  Name = 
REMARK  9 active torsions:
REMARK  status: ('A' for Active; 'I' for Inactive)
REMARK    1  A    between atoms: C_1  and  O_2
REMARK    2  A    between atoms: O_2  and  C_3
REMARK    3  A    between atoms: C_6  and  C_7
REMARK    4  A    between atoms: C_7  and  C_8
REMARK    5  A    between atoms: N_10  and  C_11
REMARK    6  A    between atoms: C_15  and  C_16
REMARK    7  A    between atoms: C_19  and  C_20
REMARK    8  A    between atoms: C_30  and  O_31
REMARK    9  A    between atoms: O_31  and  C_32
REMARK                            x       y       z     vdW  Elec       q    Type
REMARK                         _______ _______ _______ _____ _____    ______ ____
ROOT
ATOM      1  C   UNL     1       2.211   5.858  20.152  0.00  0.00    +0.000 A 
ATOM      2  C   UNL     1       1.418   4.714  20.049  0.00  0.00    +0.000 A 
ATOM      3  C   UNL     1       1.769   3.707  19.152  0.00  0.00    +0.000 A 
ATOM      4  C   UNL     1       2.941   3.816  18.398  0.00  0.00    +0.000 A 
ATOM      5  C   UNL     1       3.787   4.927  18.539  0.00  0.00    +0.000 A 
ATOM      6  C   UNL     1       3.408   5.945  19.426  0.00  0.00    +0.000 A 
ENDROOT
BRANCH   5   7
ATOM      7  C   UNL     1       5.006   5.004  17.742  0.00  0.00    +0.000 A 
ATOM      8  N   UNL     1       6.207   5.425  18.089  0.00  0.00    +0.000 NA
ATOM      9  N   UNL     1       7.005   5.302  16.974  0.00  0.00    +0.000 NA
ATOM     10  C   UNL     1       6.235   4.835  16.010  0.00  0.00    +0.000 A 
ATOM     11  O   UNL     1       4.946   4.613  16.427  0.00  0.00    +0.000 OA
BRANCH  10  12
ATOM     12  C   UNL     1       6.562   4.585  14.612  0.00  0.00    +0.000 A 
ATOM     13  C   UNL     1       7.574   5.344  13.999  0.00  0.00    +0.000 A 
ATOM     14  C   UNL     1       7.865   5.195  12.641  0.00  0.00    +0.000 A 
ATOM     15  C   UNL     1       7.145   4.281  11.876  0.00  0.00    +0.000 A 
ATOM     16  C   UNL     1       6.154   3.506  12.478  0.00  0.00    +0.000 A 
ATOM     17 CL   UNL     1       5.265   2.380  11.528  0.00  0.00    +0.000 Cl
ATOM     18  C   UNL     1       5.866   3.646  13.837  0.00  0.00    +0.000 A 
ENDBRANCH  10  12
ENDBRANCH   5   7
BRANCH   1  21
ATOM     19  C   UNL     1       1.511   8.186  20.483  0.00  0.00    +0.000 C 
ATOM     20  O   UNL     1       1.570   8.503  19.295  0.00  0.00    +0.000 OA
ATOM     21  N   UNL     1       1.768   6.913  20.978  0.00  0.00    +0.000 N 
ATOM     22  H   UNL     1       1.279   6.662  21.830  0.00  0.00    +0.000 HD
BRANCH  19  23
ATOM     23  C   UNL     1       1.110   9.193  21.537  0.00  0.00    +0.000 C 
BRANCH  23  27
ATOM     24  C   UNL     1      -0.456  12.923  19.960  0.00  0.00    +0.000 A 
ATOM     25  C   UNL     1      -1.309  11.836  20.206  0.00  0.00    +0.000 A 
ATOM     26  C   UNL     1      -0.824  10.634  20.734  0.00  0.00    +0.000 A 
ATOM     27  C   UNL     1       0.544  10.486  20.996  0.00  0.00    +0.000 A 
ATOM     28  C   UNL     1       1.398  11.545  20.679  0.00  0.00    +0.000 A 
ATOM     29  C   UNL     1       0.923  12.758  20.156  0.00  0.00    +0.000 A 
BRANCH  24  31
ATOM     30  C   UNL     1      -1.407  15.026  20.494  0.00  0.00    +0.000 C 
ATOM     31  O   UNL     1      -0.934  14.120  19.499  0.00  0.00    +0.000 OA
ENDBRANCH  24  31
BRANCH  29  32
ATOM     32  O   UNL     1       1.941  13.644  19.921  0.00  0.00    +0.000 OA
ATOM     33  C   UNL     1       2.589  14.270  21.017  0.00  0.00    +0.000 C 
ENDBRANCH  29  32
ENDBRANCH  23  27
ENDBRANCH  19  23
ENDBRANCH   1  21
TORSDOF 7
ENDMDL
MODEL 6
REMARK VINA RESULT:      -8.1      4.714     11.463
REMARK  Name = 
REMARK  9 active torsions:
REMARK  status: ('A' for Active; 'I' for Inactive)
REMARK    1  A    between atoms: C_1  and  O_2
REMARK    2  A    between atoms: O_2  and  C_3
REMARK    3  A    between atoms: C_6  and  C_7
REMARK    4  A    between atoms: C_7  and  C_8
REMARK    5  A    between atoms: N_10  and  C_11
REMARK    6  A    between atoms: C_15  and  C_16
REMARK    7  A    between atoms: C_19  and  C_20
REMARK    8  A    between atoms: C_30  and  O_31
REMARK    9  A    between atoms: O_31  and  C_32
REMARK                            x       y       z     vdW  Elec       q    Type
REMARK                         _______ _______ _______ _____ _____    ______ ____
ROOT
ATOM      1  C   UNL     1       2.167   8.072  18.586  0.00  0.00    +0.000 A 
ATOM      2  C   UNL     1       1.589   7.356  19.636  0.00  0.00    +0.000 A 
ATOM      3  C   UNL     1       2.085   6.098  19.972  0.00  0.00    +0.000 A 
ATOM      4  C   UNL     1       3.193   5.577  19.298  0.00  0.00    +0.000 A 
ATOM      5  C   UNL     1       3.830   6.312  18.285  0.00  0.00    +0.000 A 
ATOM      6  C   UNL     1       3.304   7.565  17.940  0.00  0.00    +0.000 A 
ENDROOT
BRANCH   5   7
ATOM      7  C   UNL     1       4.989   5.741  17.609  0.00  0.00    +0.000 A 
ATOM      8  N   UNL     1       6.167   5.412  18.102  0.00  0.00    +0.000 NA
ATOM      9  N   UNL     1       6.911   4.923  17.052  0.00  0.00    +0.000 NA
ATOM     10  C   UNL     1       6.147   5.005  15.980  0.00  0.00    +0.000 A 
ATOM     11  O   UNL     1       4.903   5.512  16.257  0.00  0.00    +0.000 OA
BRANCH  10  12
ATOM     12  C   UNL     1       6.470   4.684  14.595  0.00  0.00    +0.000 A 
ATOM     13  C   UNL     1       7.551   5.333  13.975  0.00  0.00    +0.000 A 
ATOM     14  C   UNL     1       7.846   5.117  12.627  0.00  0.00    +0.000 A 
ATOM     15  C   UNL     1       7.060   4.244  11.879  0.00  0.00    +0.000 A 
ATOM     16  C   UNL     1       5.998   3.576  12.489  0.00  0.00    +0.000 A 
ATOM     17 CL   UNL     1       5.027   2.501  11.560  0.00  0.00    +0.000 Cl
ATOM     18  C   UNL     1       5.706   3.784  13.839  0.00  0.00    +0.000 A 
ENDBRANCH  10  12
ENDBRANCH   5   7
BRANCH   1  21
ATOM     19  C   UNL     1       1.064  10.200  19.107  0.00  0.00    +0.000 C 
ATOM     20  O   UNL     1       1.145  10.085  20.330  0.00  0.00    +0.000 OA
ATOM     21  N   UNL     1       1.569   9.287  18.189  0.00  0.00    +0.000 N 
ATOM     22  H   UNL     1       1.842   9.667  17.290  0.00  0.00    +0.000 HD
BRANCH  19  23
ATOM     23  C   UNL     1       0.403  11.407  18.482  0.00  0.00    +0.000 C 
BRANCH  23  27
ATOM     24  C   UNL     1      -3.893  11.036  17.971  0.00  0.00    +0.000 A 
ATOM     25  C   UNL     1      -3.360  11.722  19.074  0.00  0.00    +0.000 A 
ATOM     26  C   UNL     1      -1.978  11.869  19.243  0.00  0.00    +0.000 A 
ATOM     27  C   UNL     1      -1.095  11.297  18.317  0.00  0.00    +0.000 A 
ATOM     28  C   UNL     1      -1.631  10.552  17.263  0.00  0.00    +0.000 A 
ATOM     29  C   UNL     1      -3.015  10.403  17.080  0.00  0.00    +0.000 A 
BRANCH  24  31
ATOM     30  C   UNL     1      -5.987  12.144  17.952  0.00  0.00    +0.000 C 
ATOM     31  O   UNL     1      -5.243  10.940  17.771  0.00  0.00    +0.000 OA
ENDBRANCH  24  31
BRANCH  29  32
ATOM     32  O   UNL     1      -3.301   9.630  15.986  0.00  0.00    +0.000 OA
ATOM     33  C   UNL     1      -2.864  10.047  14.702  0.00  0.00    +0.000 C 
ENDBRANCH  29  32
ENDBRANCH  23  27
ENDBRANCH  19  23
ENDBRANCH   1  21
TORSDOF 7
ENDMDL
MODEL 7
REMARK VINA RESULT:      -8.0      4.461     11.332
REMARK  Name = 
REMARK  9 active torsions:
REMARK  status: ('A' for Active; 'I' for Inactive)
REMARK    1  A    between atoms: C_1  and  O_2
REMARK    2  A    between atoms: O_2  and  C_3
REMARK    3  A    between atoms: C_6  and  C_7
REMARK    4  A    between atoms: C_7  and  C_8
REMARK    5  A    between atoms: N_10  and  C_11
REMARK    6  A    between atoms: C_15  and  C_16
REMARK    7  A    between atoms: C_19  and  C_20
REMARK    8  A    between atoms: C_30  and  O_31
REMARK    9  A    between atoms: O_31  and  C_32
REMARK                            x       y       z     vdW  Elec       q    Type
REMARK                         _______ _______ _______ _____ _____    ______ ____
ROOT
ATOM      1  C   UNL     1       2.371   6.698  19.195  0.00  0.00    +0.000 A 
ATOM      2  C   UNL     1       2.072   5.816  20.235  0.00  0.00    +0.000 A 
ATOM      3  C   UNL     1       2.843   4.669  20.413  0.00  0.00    +0.000 A 
ATOM      4  C   UNL     1       3.946   4.429  19.588  0.00  0.00    +0.000 A 
ATOM      5  C   UNL     1       4.303   5.339  18.581  0.00  0.00    +0.000 A 
ATOM      6  C   UNL     1       3.503   6.476  18.397  0.00  0.00    +0.000 A 
ENDROOT
BRANCH   5   7
ATOM      7  C   UNL     1       5.465   5.061  17.745  0.00  0.00    +0.000 A 
ATOM      8  N   UNL     1       6.736   4.969  18.084  0.00  0.00    +0.000 NA
ATOM      9  N   UNL     1       7.434   4.700  16.928  0.00  0.00    +0.000 NA
ATOM     10  C   UNL     1       6.546   4.666  15.953  0.00  0.00    +0.000 A 
ATOM     11  O   UNL     1       5.267   4.881  16.398  0.00  0.00    +0.000 OA
BRANCH  10  12
ATOM     12  C   UNL     1       6.759   4.485  14.522  0.00  0.00    +0.000 A 
ATOM     13  C   UNL     1       7.645   5.343  13.848  0.00  0.00    +0.000 A 
ATOM     14  C   UNL     1       7.819   5.258  12.464  0.00  0.00    +0.000 A 
ATOM     15  C   UNL     1       7.105   4.310  11.735  0.00  0.00    +0.000 A 
ATOM     16  C   UNL     1       6.241   3.438  12.396  0.00  0.00    +0.000 A 
ATOM     17 CL   UNL     1       5.359   2.271  11.491  0.00  0.00    +0.000 Cl
ATOM     18  C   UNL     1       6.071   3.515  13.781  0.00  0.00    +0.000 A 
ENDBRANCH  10  12
ENDBRANCH   5   7
BRANCH   1  21
ATOM     19  C   UNL     1       1.786   8.775  18.030  0.00  0.00    +0.000 C 
ATOM     20  O   UNL     1       2.759   8.773  17.276  0.00  0.00    +0.000 OA
ATOM     21  N   UNL     1       1.503   7.786  18.963  0.00  0.00    +0.000 N 
ATOM     22  H   UNL     1       0.522   7.653  19.185  0.00  0.00    +0.000 HD
BRANCH  19  23
ATOM     23  C   UNL     1       0.765   9.890  17.978  0.00  0.00    +0.000 C 
BRANCH  23  27
ATOM     24  C   UNL     1       1.302  12.960  21.000  0.00  0.00    +0.000 A 
ATOM     25  C   UNL     1       1.875  13.102  19.727  0.00  0.00    +0.000 A 
ATOM     26  C   UNL     1       1.694  12.132  18.734  0.00  0.00    +0.000 A 
ATOM     27  C   UNL     1       0.956  10.974  19.013  0.00  0.00    +0.000 A 
ATOM     28  C   UNL     1       0.452  10.804  20.305  0.00  0.00    +0.000 A 
ATOM     29  C   UNL     1       0.621  11.773  21.307  0.00  0.00    +0.000 A 
BRANCH  24  31
ATOM     30  C   UNL     1       2.415  14.930  21.701  0.00  0.00    +0.000 C 
ATOM     31  O   UNL     1       1.427  13.932  21.955  0.00  0.00    +0.000 OA
ENDBRANCH  24  31
BRANCH  29  32
ATOM     32  O   UNL     1       0.046  11.387  22.488  0.00  0.00    +0.000 OA
ATOM     33  C   UNL     1      -1.307  11.725  22.751  0.00  0.00    +0.000 C 
ENDBRANCH  29  32
ENDBRANCH  23  27
ENDBRANCH  19  23
ENDBRANCH   1  21
TORSDOF 7
ENDMDL
MODEL 8
REMARK VINA RESULT:      -8.0      1.093      1.126
REMARK  Name = 
REMARK  9 active torsions:
REMARK  status: ('A' for Active; 'I' for Inactive)
REMARK    1  A    between atoms: C_1  and  O_2
REMARK    2  A    between atoms: O_2  and  C_3
REMARK    3  A    between atoms: C_6  and  C_7
REMARK    4  A    between atoms: C_7  and  C_8
REMARK    5  A    between atoms: N_10  and  C_11
REMARK    6  A    between atoms: C_15  and  C_16
REMARK    7  A    between atoms: C_19  and  C_20
REMARK    8  A    between atoms: C_30  and  O_31
REMARK    9  A    between atoms: O_31  and  C_32
REMARK                            x       y       z     vdW  Elec       q    Type
REMARK                         _______ _______ _______ _____ _____    ______ ____
ROOT
ATOM      1  C   UNL     1       1.748   8.973  18.582  0.00  0.00    +0.000 A 
ATOM      2  C   UNL     1       2.254  10.047  17.848  0.00  0.00    +0.000 A 
ATOM      3  C   UNL     1       2.012  11.352  18.275  0.00  0.00    +0.000 A 
ATOM      4  C   UNL     1       1.313  11.584  19.462  0.00  0.00    +0.000 A 
ATOM      5  C   UNL     1       0.856  10.515  20.249  0.00  0.00    +0.000 A 
ATOM      6  C   UNL     1       1.083   9.209  19.794  0.00  0.00    +0.000 A 
ENDROOT
BRANCH   5   7
ATOM      7  C   UNL     1       0.136  10.795  21.486  0.00  0.00    +0.000 A 
ATOM      8  N   UNL     1       0.124  10.116  22.617  0.00  0.00    +0.000 NA
ATOM      9  N   UNL     1      -0.717  10.792  23.473  0.00  0.00    +0.000 NA
ATOM     10  C   UNL     1      -1.182  11.829  22.802  0.00  0.00    +0.000 A 
ATOM     11  O   UNL     1      -0.677  11.901  21.528  0.00  0.00    +0.000 OA
BRANCH  10  12
ATOM     12  C   UNL     1      -2.158  12.829  23.216  0.00  0.00    +0.000 A 
ATOM     13  C   UNL     1      -3.528  12.544  23.086  0.00  0.00    +0.000 A 
ATOM     14  C   UNL     1      -4.497  13.502  23.394  0.00  0.00    +0.000 A 
ATOM     15  C   UNL     1      -4.105  14.762  23.839  0.00  0.00    +0.000 A 
ATOM     16  C   UNL     1      -2.750  15.049  23.994  0.00  0.00    +0.000 A 
ATOM     17 CL   UNL     1      -2.270  16.609  24.540  0.00  0.00    +0.000 Cl
ATOM     18  C   UNL     1      -1.778  14.091  23.694  0.00  0.00    +0.000 A 
ENDBRANCH  10  12
ENDBRANCH   5   7
BRANCH   1  21
ATOM     19  C   UNL     1       2.588   6.675  18.750  0.00  0.00    +0.000 C 
ATOM     20  O   UNL     1       3.056   6.797  19.882  0.00  0.00    +0.000 OA
ATOM     21  N   UNL     1       1.904   7.670  18.063  0.00  0.00    +0.000 N 
ATOM     22  H   UNL     1       1.213   7.351  17.393  0.00  0.00    +0.000 HD
BRANCH  19  23
ATOM     23  C   UNL     1       2.704   5.368  17.998  0.00  0.00    +0.000 C 
BRANCH  23  27
ATOM     24  C   UNL     1       6.434   4.907  15.825  0.00  0.00    +0.000 A 
ATOM     25  C   UNL     1       5.536   3.835  15.941  0.00  0.00    +0.000 A 
ATOM     26  C   UNL     1       4.320   3.972  16.619  0.00  0.00    +0.000 A 
ATOM     27  C   UNL     1       3.993   5.190  17.230  0.00  0.00    +0.000 A 
ATOM     28  C   UNL     1       4.924   6.230  17.175  0.00  0.00    +0.000 A 
ATOM     29  C   UNL     1       6.145   6.106  16.492  0.00  0.00    +0.000 A 
BRANCH  24  31
ATOM     30  C   UNL     1       7.498   5.052  13.713  0.00  0.00    +0.000 C 
ATOM     31  O   UNL     1       7.597   4.794  15.113  0.00  0.00    +0.000 OA
ENDBRANCH  24  31
BRANCH  29  32
ATOM     32  O   UNL     1       6.893   7.250  16.578  0.00  0.00    +0.000 OA
ATOM     33  C   UNL     1       7.638   7.511  17.757  0.00  0.00    +0.000 C 
ENDBRANCH  29  32
ENDBRANCH  23  27
ENDBRANCH  19  23
ENDBRANCH   1  21
TORSDOF 7
ENDMDL
MODEL 9
REMARK VINA RESULT:      -7.9      4.454     11.279
REMARK  Name = 
REMARK  9 active torsions:
REMARK  status: ('A' for Active; 'I' for Inactive)
REMARK    1  A    between atoms: C_1  and  O_2
REMARK    2  A    between atoms: O_2  and  C_3
REMARK    3  A    between atoms: C_6  and  C_7
REMARK    4  A    between atoms: C_7  and  C_8
REMARK    5  A    between atoms: N_10  and  C_11
REMARK    6  A    between atoms: C_15  and  C_16
REMARK    7  A    between atoms: C_19  and  C_20
REMARK    8  A    between atoms: C_30  and  O_31
REMARK    9  A    between atoms: O_31  and  C_32
REMARK                            x       y       z     vdW  Elec       q    Type
REMARK                         _______ _______ _______ _____ _____    ______ ____
ROOT
ATOM      1  C   UNL     1      -1.579  11.876  18.351  0.00  0.00    +0.000 A 
ATOM      2  C   UNL     1      -0.806  13.033  18.235  0.00  0.00    +0.000 A 
ATOM      3  C   UNL     1       0.557  12.988  18.524  0.00  0.00    +0.000 A 
ATOM      4  C   UNL     1       1.159  11.777  18.875  0.00  0.00    +0.000 A 
ATOM      5  C   UNL     1       0.412  10.590  18.930  0.00  0.00    +0.000 A 
ATOM      6  C   UNL     1      -0.962  10.655  18.662  0.00  0.00    +0.000 A 
ENDROOT
BRANCH   5   7
ATOM      7  C   UNL     1       1.076   9.343  19.292  0.00  0.00    +0.000 A 
ATOM      8  N   UNL     1       1.198   8.774  20.476  0.00  0.00    +0.000 NA
ATOM      9  N   UNL     1       1.918   7.617  20.285  0.00  0.00    +0.000 NA
ATOM     10  C   UNL     1       2.210   7.564  18.999  0.00  0.00    +0.000 A 
ATOM     11  O   UNL     1       1.700   8.628  18.299  0.00  0.00    +0.000 OA
BRANCH  10  12
ATOM     12  C   UNL     1       3.011   6.583  18.278  0.00  0.00    +0.000 A 
ATOM     13  C   UNL     1       4.080   7.025  17.480  0.00  0.00    +0.000 A 
ATOM     14  C   UNL     1       4.824   6.129  16.708  0.00  0.00    +0.000 A 
ATOM     15  C   UNL     1       4.507   4.773  16.727  0.00  0.00    +0.000 A 
ATOM     16  C   UNL     1       3.463   4.319  17.533  0.00  0.00    +0.000 A 
ATOM     17 CL   UNL     1       3.072   2.643  17.550  0.00  0.00    +0.000 Cl
ATOM     18  C   UNL     1       2.723   5.211  18.312  0.00  0.00    +0.000 A 
ENDBRANCH  10  12
ENDBRANCH   5   7
BRANCH   1  21
ATOM     19  C   UNL     1      -3.611  11.503  17.029  0.00  0.00    +0.000 C 
ATOM     20  O   UNL     1      -3.054  10.899  16.114  0.00  0.00    +0.000 OA
ATOM     21  N   UNL     1      -2.975  11.977  18.170  0.00  0.00    +0.000 N 
ATOM     22  H   UNL     1      -3.548  12.039  19.004  0.00  0.00    +0.000 HD
BRANCH  19  23
ATOM     23  C   UNL     1      -5.100  11.766  16.995  0.00  0.00    +0.000 C 
BRANCH  23  27
ATOM     24  C   UNL     1      -7.084  11.650  20.855  0.00  0.00    +0.000 A 
ATOM     25  C   UNL     1      -6.990  10.494  20.064  0.00  0.00    +0.000 A 
ATOM     26  C   UNL     1      -6.335  10.509  18.827  0.00  0.00    +0.000 A 
ATOM     27  C   UNL     1      -5.786  11.703  18.339  0.00  0.00    +0.000 A 
ATOM     28  C   UNL     1      -5.949  12.865  19.098  0.00  0.00    +0.000 A 
ATOM     29  C   UNL     1      -6.599  12.861  20.343  0.00  0.00    +0.000 A 
BRANCH  24  31
ATOM     30  C   UNL     1      -6.976  12.321  23.125  0.00  0.00    +0.000 C 
ATOM     31  O   UNL     1      -7.672  11.627  22.090  0.00  0.00    +0.000 OA
ENDBRANCH  24  31
BRANCH  29  32
ATOM     32  O   UNL     1      -6.641  14.113  20.896  0.00  0.00    +0.000 OA
ATOM     33  C   UNL     1      -7.270  15.170  20.189  0.00  0.00    +0.000 C 
ENDBRANCH  29  32
ENDBRANCH  23  27
ENDBRANCH  19  23
ENDBRANCH   1  21
TORSDOF 7
ENDMDL
