MODEL 1
REMARK VINA RESULT:      -8.4      0.000      0.000
REMARK  Name = 
REMARK  3 active torsions:
REMARK  status: ('A' for Active; 'I' for Inactive)
REMARK    1  A    between atoms: C_4  and  C_5
REMARK    2  A    between atoms: N_12  and  N_13
REMARK    3  A    between atoms: C_14  and  C_15
REMARK                            x       y       z     vdW  Elec       q    Type
REMARK                         _______ _______ _______ _____ _____    ______ ____
ROOT
ATOM      1  N   UNL     1       4.050   3.868  18.709  0.00  0.00    +0.000 N 
ATOM      2  C   UNL     1       4.532   4.433  17.571  0.00  0.00    +0.000 A 
ATOM      3  N   UNL     1       5.077   3.791  16.577  0.00  0.00    +0.000 NA
ATOM      4  C   UNL     1       5.409   4.743  15.653  0.00  0.00    +0.000 A 
ATOM      5  C   UNL     1       5.058   6.000  16.115  0.00  0.00    +0.000 A 
ATOM      6  N   UNL     1       4.512   5.808  17.361  0.00  0.00    +0.000 N 
ATOM      7  H   UNL     1       3.868   2.874  18.672  0.00  0.00    +0.000 HD
ATOM      8  H   UNL     1       3.419   4.427  19.264  0.00  0.00    +0.000 HD
ENDROOT
BRANCH   4   9
ATOM      9  C   UNL     1       6.037   4.473  14.369  0.00  0.00    +0.000 A 
ATOM     10  C   UNL     1       5.499   3.570  13.440  0.00  0.00    +0.000 A 
ATOM     11  C   UNL     1       6.107   3.390  12.197  0.00  0.00    +0.000 A 
ATOM     12  C   UNL     1       7.272   4.106  11.870  0.00  0.00    +0.000 A 
ATOM     13  C   UNL     1       7.829   4.970  12.803  0.00  0.00    +0.000 A 
ATOM     14  C   UNL     1       7.214   5.156  14.044  0.00  0.00    +0.000 A 
ENDBRANCH   4   9
BRANCH   6  15
ATOM     15  N   UNL     1       3.958   6.703  18.244  0.00  0.00    +0.000 NA
ATOM     16  C   UNL     1       2.839   7.244  17.895  0.00  0.00    +0.000 C 
BRANCH  16  17
ATOM     17  C   UNL     1       2.092   8.088  18.832  0.00  0.00    +0.000 A 
ATOM     18  C   UNL     1       1.558   9.308  18.464  0.00  0.00    +0.000 A 
ATOM     19  C   UNL     1       0.703   9.907  19.394  0.00  0.00    +0.000 A 
ATOM     20  C   UNL     1      -0.500  10.524  19.047  0.00  0.00    +0.000 A 
ATOM     21  C   UNL     1      -1.315  11.047  20.050  0.00  0.00    +0.000 A 
ATOM     22  C   UNL     1      -0.815  11.162  21.344  0.00  0.00    +0.000 A 
ATOM     23  C   UNL     1       0.347  10.482  21.684  0.00  0.00    +0.000 A 
ATOM     24  C   UNL     1       0.931   9.649  20.749  0.00  0.00    +0.000 A 
ATOM     25  N   UNL     1       1.506   8.505  21.126  0.00  0.00    +0.000 NA
ATOM     26  C   UNL     1       1.866   7.668  20.131  0.00  0.00    +0.000 A 
ATOM     27 CL   UNL     1       1.579   6.008  20.514  0.00  0.00    +0.000 Cl
ENDBRANCH  16  17
ENDBRANCH   6  15
TORSDOF 3
ENDMDL
MODEL 2
REMARK VINA RESULT:      -8.0      2.088      3.285
REMARK  Name = 
REMARK  3 active torsions:
REMARK  status: ('A' for Active; 'I' for Inactive)
REMARK    1  A    between atoms: C_4  and  C_5
REMARK    2  A    between atoms: N_12  and  N_13
REMARK    3  A    between atoms: C_14  and  C_15
REMARK                            x       y       z     vdW  Elec       q    Type
REMARK                         _______ _______ _______ _____ _____    ______ ____
ROOT
ATOM      1  N   UNL     1       2.337   5.153  21.075  0.00  0.00    +0.000 N 
ATOM      2  C   UNL     1       2.859   5.539  19.882  0.00  0.00    +0.000 A 
ATOM      3  N   UNL     1       3.605   4.805  19.106  0.00  0.00    +0.000 NA
ATOM      4  C   UNL     1       3.898   5.584  18.021  0.00  0.00    +0.000 A 
ATOM      5  C   UNL     1       3.316   6.833  18.159  0.00  0.00    +0.000 A 
ATOM      6  N   UNL     1       2.663   6.816  19.367  0.00  0.00    +0.000 N 
ATOM      7  H   UNL     1       2.308   4.156  21.248  0.00  0.00    +0.000 HD
ATOM      8  H   UNL     1       1.570   5.701  21.437  0.00  0.00    +0.000 HD
ENDROOT
BRANCH   4   9
ATOM      9  C   UNL     1       4.704   5.161  16.886  0.00  0.00    +0.000 A 
ATOM     10  C   UNL     1       5.034   3.818  16.653  0.00  0.00    +0.000 A 
ATOM     11  C   UNL     1       5.761   3.457  15.518  0.00  0.00    +0.000 A 
ATOM     12  C   UNL     1       6.176   4.439  14.603  0.00  0.00    +0.000 A 
ATOM     13  C   UNL     1       5.886   5.774  14.852  0.00  0.00    +0.000 A 
ATOM     14  C   UNL     1       5.151   6.134  15.985  0.00  0.00    +0.000 A 
ENDBRANCH   4   9
BRANCH   6  15
ATOM     15  N   UNL     1       1.885   7.770  19.977  0.00  0.00    +0.000 NA
ATOM     16  C   UNL     1       1.630   8.835  19.293  0.00  0.00    +0.000 C 
BRANCH  16  17
ATOM     17  C   UNL     1       0.683   9.836  19.793  0.00  0.00    +0.000 A 
ATOM     18  C   UNL     1      -0.099   9.620  20.911  0.00  0.00    +0.000 A 
ATOM     19  C   UNL     1      -0.802  10.729  21.389  0.00  0.00    +0.000 A 
ATOM     20  C   UNL     1      -0.902  11.051  22.744  0.00  0.00    +0.000 A 
ATOM     21  C   UNL     1      -1.579  12.209  23.124  0.00  0.00    +0.000 A 
ATOM     22  C   UNL     1      -2.343  12.892  22.183  0.00  0.00    +0.000 A 
ATOM     23  C   UNL     1      -2.175  12.602  20.835  0.00  0.00    +0.000 A 
ATOM     24  C   UNL     1      -1.200  11.698  20.463  0.00  0.00    +0.000 A 
ATOM     25  N   UNL     1      -0.497  11.881  19.343  0.00  0.00    +0.000 NA
ATOM     26  C   UNL     1       0.563  11.065  19.168  0.00  0.00    +0.000 A 
ATOM     27 CL   UNL     1       1.925  11.873  18.477  0.00  0.00    +0.000 Cl
ENDBRANCH  16  17
ENDBRANCH   6  15
TORSDOF 3
ENDMDL
MODEL 3
REMARK VINA RESULT:      -8.0      1.419      2.057
REMARK  Name = 
REMARK  3 active torsions:
REMARK  status: ('A' for Active; 'I' for Inactive)
REMARK    1  A    between atoms: C_4  and  C_5
REMARK    2  A    between atoms: N_12  and  N_13
REMARK    3  A    between atoms: C_14  and  C_15
REMARK                            x       y       z     vdW  Elec       q    Type
REMARK                         _______ _______ _______ _____ _____    ______ ____
ROOT
ATOM      1  N   UNL     1       7.723   6.676  17.095  0.00  0.00    +0.000 N 
ATOM      2  C   UNL     1       6.924   6.036  16.201  0.00  0.00    +0.000 A 
ATOM      3  N   UNL     1       7.334   5.347  15.174  0.00  0.00    +0.000 NA
ATOM      4  C   UNL     1       6.205   4.881  14.560  0.00  0.00    +0.000 A 
ATOM      5  C   UNL     1       5.078   5.315  15.239  0.00  0.00    +0.000 A 
ATOM      6  N   UNL     1       5.536   6.078  16.285  0.00  0.00    +0.000 N 
ATOM      7  H   UNL     1       8.692   6.388  17.114  0.00  0.00    +0.000 HD
ATOM      8  H   UNL     1       7.305   6.934  17.977  0.00  0.00    +0.000 HD
ENDROOT
BRANCH   4   9
ATOM      9  C   UNL     1       6.188   4.047  13.368  0.00  0.00    +0.000 A 
ATOM     10  C   UNL     1       7.354   3.716  12.663  0.00  0.00    +0.000 A 
ATOM     11  C   UNL     1       7.293   2.865  11.559  0.00  0.00    +0.000 A 
ATOM     12  C   UNL     1       6.059   2.341  11.138  0.00  0.00    +0.000 A 
ATOM     13  C   UNL     1       4.898   2.699  11.810  0.00  0.00    +0.000 A 
ATOM     14  C   UNL     1       4.961   3.544  12.921  0.00  0.00    +0.000 A 
ENDBRANCH   4   9
BRANCH   6  15
ATOM     15  N   UNL     1       4.855   6.710  17.298  0.00  0.00    +0.000 NA
ATOM     16  C   UNL     1       3.677   7.154  17.014  0.00  0.00    +0.000 C 
BRANCH  16  17
ATOM     17  C   UNL     1       2.811   7.700  18.064  0.00  0.00    +0.000 A 
ATOM     18  C   UNL     1       2.313   8.989  18.016  0.00  0.00    +0.000 A 
ATOM     19  C   UNL     1       1.345   9.306  18.972  0.00  0.00    +0.000 A 
ATOM     20  C   UNL     1       0.186  10.031  18.683  0.00  0.00    +0.000 A 
ATOM     21  C   UNL     1      -0.751  10.253  19.690  0.00  0.00    +0.000 A 
ATOM     22  C   UNL     1      -0.415   9.964  21.010  0.00  0.00    +0.000 A 
ATOM     23  C   UNL     1       0.704   9.182  21.269  0.00  0.00    +0.000 A 
ATOM     24  C   UNL     1       1.408   8.651  20.205  0.00  0.00    +0.000 A 
ATOM     25  N   UNL     1       1.944   7.432  20.289  0.00  0.00    +0.000 NA
ATOM     26  C   UNL     1       2.432   6.919  19.141  0.00  0.00    +0.000 A 
ATOM     27 CL   UNL     1       2.118   5.228  18.973  0.00  0.00    +0.000 Cl
ENDBRANCH  16  17
ENDBRANCH   6  15
TORSDOF 3
ENDMDL
MODEL 4
REMARK VINA RESULT:      -7.9      2.303      9.670
REMARK  Name = 
REMARK  3 active torsions:
REMARK  status: ('A' for Active; 'I' for Inactive)
REMARK    1  A    between atoms: C_4  and  C_5
REMARK    2  A    between atoms: N_12  and  N_13
REMARK    3  A    between atoms: C_14  and  C_15
REMARK                            x       y       z     vdW  Elec       q    Type
REMARK                         _______ _______ _______ _____ _____    ______ ____
ROOT
ATOM      1  N   UNL     1       2.090  12.209  17.931  0.00  0.00    +0.000 N 
ATOM      2  C   UNL     1       1.151  11.739  18.794  0.00  0.00    +0.000 A 
ATOM      3  N   UNL     1       0.296  12.467  19.455  0.00  0.00    +0.000 NA
ATOM      4  C   UNL     1      -0.452  11.590  20.191  0.00  0.00    +0.000 A 
ATOM      5  C   UNL     1      -0.021  10.293  19.971  0.00  0.00    +0.000 A 
ATOM      6  N   UNL     1       1.027  10.386  19.088  0.00  0.00    +0.000 N 
ATOM      7  H   UNL     1       1.946  13.148  17.583  0.00  0.00    +0.000 HD
ATOM      8  H   UNL     1       2.495  11.542  17.291  0.00  0.00    +0.000 HD
ENDROOT
BRANCH   4   9
ATOM      9  C   UNL     1      -1.543  11.966  21.077  0.00  0.00    +0.000 A 
ATOM     10  C   UNL     1      -2.700  12.611  20.617  0.00  0.00    +0.000 A 
ATOM     11  C   UNL     1      -3.745  12.898  21.496  0.00  0.00    +0.000 A 
ATOM     12  C   UNL     1      -3.641  12.552  22.854  0.00  0.00    +0.000 A 
ATOM     13  C   UNL     1      -2.480  11.950  23.320  0.00  0.00    +0.000 A 
ATOM     14  C   UNL     1      -1.438  11.655  22.437  0.00  0.00    +0.000 A 
ENDBRANCH   4   9
BRANCH   6  15
ATOM     15  N   UNL     1       1.789   9.407  18.497  0.00  0.00    +0.000 NA
ATOM     16  C   UNL     1       1.977   8.327  19.180  0.00  0.00    +0.000 C 
BRANCH  16  17
ATOM     17  C   UNL     1       2.640   7.167  18.576  0.00  0.00    +0.000 A 
ATOM     18  C   UNL     1       3.592   7.294  17.582  0.00  0.00    +0.000 A 
ATOM     19  C   UNL     1       4.282   6.126  17.245  0.00  0.00    +0.000 A 
ATOM     20  C   UNL     1       5.661   6.084  17.026  0.00  0.00    +0.000 A 
ATOM     21  C   UNL     1       6.272   4.862  16.748  0.00  0.00    +0.000 A 
ATOM     22  C   UNL     1       5.481   3.755  16.455  0.00  0.00    +0.000 A 
ATOM     23  C   UNL     1       4.123   3.797  16.746  0.00  0.00    +0.000 A 
ATOM     24  C   UNL     1       3.611   4.909  17.387  0.00  0.00    +0.000 A 
ATOM     25  N   UNL     1       2.642   4.780  18.295  0.00  0.00    +0.000 NA
ATOM     26  C   UNL     1       2.351   5.887  19.011  0.00  0.00    +0.000 A 
ATOM     27 CL   UNL     1       2.013   5.543  20.670  0.00  0.00    +0.000 Cl
ENDBRANCH  16  17
ENDBRANCH   6  15
TORSDOF 3
ENDMDL
MODEL 5
REMARK VINA RESULT:      -7.9      2.220      9.654
REMARK  Name = 
REMARK  3 active torsions:
REMARK  status: ('A' for Active; 'I' for Inactive)
REMARK    1  A    between atoms: C_4  and  C_5
REMARK    2  A    between atoms: N_12  and  N_13
REMARK    3  A    between atoms: C_14  and  C_15
REMARK                            x       y       z     vdW  Elec       q    Type
REMARK                         _______ _______ _______ _____ _____    ______ ____
ROOT
ATOM      1  N   UNL     1      -1.038   9.922  17.278  0.00  0.00    +0.000 N 
ATOM      2  C   UNL     1      -0.624  10.432  18.468  0.00  0.00    +0.000 A 
ATOM      3  N   UNL     1      -1.310  11.238  19.228  0.00  0.00    +0.000 NA
ATOM      4  C   UNL     1      -0.521  11.490  20.316  0.00  0.00    +0.000 A 
ATOM      5  C   UNL     1       0.684  10.818  20.197  0.00  0.00    +0.000 A 
ATOM      6  N   UNL     1       0.631  10.153  18.997  0.00  0.00    +0.000 N 
ATOM      7  H   UNL     1      -2.033   9.962  17.097  0.00  0.00    +0.000 HD
ATOM      8  H   UNL     1      -0.543   9.114  16.932  0.00  0.00    +0.000 HD
ENDROOT
BRANCH   4   9
ATOM      9  C   UNL     1      -0.894  12.339  21.437  0.00  0.00    +0.000 A 
ATOM     10  C   UNL     1      -1.897  11.985  22.351  0.00  0.00    +0.000 A 
ATOM     11  C   UNL     1      -2.178  12.805  23.443  0.00  0.00    +0.000 A 
ATOM     12  C   UNL     1      -1.463  14.001  23.631  0.00  0.00    +0.000 A 
ATOM     13  C   UNL     1      -0.498  14.374  22.706  0.00  0.00    +0.000 A 
ATOM     14  C   UNL     1      -0.211  13.547  21.617  0.00  0.00    +0.000 A 
ENDBRANCH   4   9
BRANCH   6  15
ATOM     15  N   UNL     1       1.532   9.300  18.405  0.00  0.00    +0.000 NA
ATOM     16  C   UNL     1       1.848   8.239  19.069  0.00  0.00    +0.000 C 
BRANCH  16  17
ATOM     17  C   UNL     1       2.676   7.194  18.458  0.00  0.00    +0.000 A 
ATOM     18  C   UNL     1       3.636   7.475  17.504  0.00  0.00    +0.000 A 
ATOM     19  C   UNL     1       4.483   6.418  17.160  0.00  0.00    +0.000 A 
ATOM     20  C   UNL     1       5.863   6.561  16.992  0.00  0.00    +0.000 A 
ATOM     21  C   UNL     1       6.636   5.439  16.702  0.00  0.00    +0.000 A 
ATOM     22  C   UNL     1       6.006   4.249  16.350  0.00  0.00    +0.000 A 
ATOM     23  C   UNL     1       4.646   4.106  16.591  0.00  0.00    +0.000 A 
ATOM     24  C   UNL     1       3.973   5.120  17.244  0.00  0.00    +0.000 A 
ATOM     25  N   UNL     1       2.999   4.838  18.111  0.00  0.00    +0.000 NA
ATOM     26  C   UNL     1       2.542   5.874  18.846  0.00  0.00    +0.000 A 
ATOM     27 CL   UNL     1       2.197   5.435  20.482  0.00  0.00    +0.000 Cl
ENDBRANCH  16  17
ENDBRANCH   6  15
TORSDOF 3
ENDMDL
MODEL 6
REMARK VINA RESULT:      -7.8      3.368      5.405
REMARK  Name = 
REMARK  3 active torsions:
REMARK  status: ('A' for Active; 'I' for Inactive)
REMARK    1  A    between atoms: C_4  and  C_5
REMARK    2  A    between atoms: N_12  and  N_13
REMARK    3  A    between atoms: C_14  and  C_15
REMARK                            x       y       z     vdW  Elec       q    Type
REMARK                         _______ _______ _______ _____ _____    ______ ____
ROOT
ATOM      1  N   UNL     1       2.050  10.807  17.588  0.00  0.00    +0.000 N 
ATOM      2  C   UNL     1       2.104   9.543  18.083  0.00  0.00    +0.000 A 
ATOM      3  N   UNL     1       2.615   8.511  17.474  0.00  0.00    +0.000 NA
ATOM      4  C   UNL     1       2.460   7.456  18.331  0.00  0.00    +0.000 A 
ATOM      5  C   UNL     1       1.826   7.871  19.490  0.00  0.00    +0.000 A 
ATOM      6  N   UNL     1       1.574   9.211  19.326  0.00  0.00    +0.000 N 
ATOM      7  H   UNL     1       2.672  11.012  16.816  0.00  0.00    +0.000 HD
ATOM      8  H   UNL     1       1.887  11.550  18.251  0.00  0.00    +0.000 HD
ENDROOT
BRANCH   4   9
ATOM      9  C   UNL     1       2.901   6.095  18.065  0.00  0.00    +0.000 A 
ATOM     10  C   UNL     1       4.256   5.745  17.976  0.00  0.00    +0.000 A 
ATOM     11  C   UNL     1       4.630   4.415  17.777  0.00  0.00    +0.000 A 
ATOM     12  C   UNL     1       3.648   3.417  17.654  0.00  0.00    +0.000 A 
ATOM     13  C   UNL     1       2.305   3.767  17.702  0.00  0.00    +0.000 A 
ATOM     14  C   UNL     1       1.933   5.097  17.910  0.00  0.00    +0.000 A 
ENDBRANCH   4   9
BRANCH   6  15
ATOM     15  N   UNL     1       1.011  10.128  20.180  0.00  0.00    +0.000 NA
ATOM     16  C   UNL     1      -0.265  10.303  20.083  0.00  0.00    +0.000 C 
BRANCH  16  17
ATOM     17  C   UNL     1      -0.981  11.138  21.052  0.00  0.00    +0.000 A 
ATOM     18  C   UNL     1      -1.948  12.049  20.671  0.00  0.00    +0.000 A 
ATOM     19  C   UNL     1      -2.686  12.625  21.708  0.00  0.00    +0.000 A 
ATOM     20  C   UNL     1      -4.071  12.808  21.658  0.00  0.00    +0.000 A 
ATOM     21  C   UNL     1      -4.730  13.343  22.763  0.00  0.00    +0.000 A 
ATOM     22  C   UNL     1      -3.986  13.904  23.796  0.00  0.00    +0.000 A 
ATOM     23  C   UNL     1      -2.621  13.651  23.863  0.00  0.00    +0.000 A 
ATOM     24  C   UNL     1      -2.057  12.786  22.946  0.00  0.00    +0.000 A 
ATOM     25  N   UNL     1      -1.075  11.959  23.309  0.00  0.00    +0.000 NA
ATOM     26  C   UNL     1      -0.729  11.017  22.407  0.00  0.00    +0.000 A 
ATOM     27 CL   UNL     1      -0.370   9.491  23.134  0.00  0.00    +0.000 Cl
ENDBRANCH  16  17
ENDBRANCH   6  15
TORSDOF 3
ENDMDL
MODEL 7
REMARK VINA RESULT:      -7.8      4.012      9.402
REMARK  Name = 
REMARK  3 active torsions:
REMARK  status: ('A' for Active; 'I' for Inactive)
REMARK    1  A    between atoms: C_4  and  C_5
REMARK    2  A    between atoms: N_12  and  N_13
REMARK    3  A    between atoms: C_14  and  C_15
REMARK                            x       y       z     vdW  Elec       q    Type
REMARK                         _______ _______ _______ _____ _____    ______ ____
ROOT
ATOM      1  N   UNL     1      -0.427   9.279  23.596  0.00  0.00    +0.000 N 
ATOM      2  C   UNL     1      -0.061  10.124  22.597  0.00  0.00    +0.000 A 
ATOM      3  N   UNL     1      -0.222  11.417  22.599  0.00  0.00    +0.000 NA
ATOM      4  C   UNL     1       0.288  11.861  21.411  0.00  0.00    +0.000 A 
ATOM      5  C   UNL     1       0.763  10.794  20.667  0.00  0.00    +0.000 A 
ATOM      6  N   UNL     1       0.520   9.670  21.418  0.00  0.00    +0.000 N 
ATOM      7  H   UNL     1      -0.597   9.702  24.499  0.00  0.00    +0.000 HD
ATOM      8  H   UNL     1      -0.008   8.361  23.593  0.00  0.00    +0.000 HD
ENDROOT
BRANCH   4   9
ATOM      9  C   UNL     1       0.329  13.253  20.990  0.00  0.00    +0.000 A 
ATOM     10  C   UNL     1       0.730  13.641  19.704  0.00  0.00    +0.000 A 
ATOM     11  C   UNL     1       0.697  14.985  19.329  0.00  0.00    +0.000 A 
ATOM     12  C   UNL     1       0.269  15.963  20.244  0.00  0.00    +0.000 A 
ATOM     13  C   UNL     1      -0.090  15.585  21.531  0.00  0.00    +0.000 A 
ATOM     14  C   UNL     1      -0.064  14.239  21.902  0.00  0.00    +0.000 A 
ENDBRANCH   4   9
BRANCH   6  15
ATOM     15  N   UNL     1       0.829   8.352  21.182  0.00  0.00    +0.000 NA
ATOM     16  C   UNL     1       1.635   8.112  20.203  0.00  0.00    +0.000 C 
BRANCH  16  17
ATOM     17  C   UNL     1       2.148   6.758  19.972  0.00  0.00    +0.000 A 
ATOM     18  C   UNL     1       1.596   5.645  20.578  0.00  0.00    +0.000 A 
ATOM     19  C   UNL     1       2.050   4.408  20.113  0.00  0.00    +0.000 A 
ATOM     20  C   UNL     1       1.206   3.322  19.867  0.00  0.00    +0.000 A 
ATOM     21  C   UNL     1       1.741   2.143  19.351  0.00  0.00    +0.000 A 
ATOM     22  C   UNL     1       3.123   1.980  19.315  0.00  0.00    +0.000 A 
ATOM     23  C   UNL     1       3.941   3.088  19.494  0.00  0.00    +0.000 A 
ATOM     24  C   UNL     1       3.358   4.334  19.626  0.00  0.00    +0.000 A 
ATOM     25  N   UNL     1       3.937   5.413  19.096  0.00  0.00    +0.000 NA
ATOM     26  C   UNL     1       3.199   6.542  19.099  0.00  0.00    +0.000 A 
ATOM     27 CL   UNL     1       3.388   7.471  17.654  0.00  0.00    +0.000 Cl
ENDBRANCH  16  17
ENDBRANCH   6  15
TORSDOF 3
ENDMDL
MODEL 8
REMARK VINA RESULT:      -7.7      2.541      9.474
REMARK  Name = 
REMARK  3 active torsions:
REMARK  status: ('A' for Active; 'I' for Inactive)
REMARK    1  A    between atoms: C_4  and  C_5
REMARK    2  A    between atoms: N_12  and  N_13
REMARK    3  A    between atoms: C_14  and  C_15
REMARK                            x       y       z     vdW  Elec       q    Type
REMARK                         _______ _______ _______ _____ _____    ______ ____
ROOT
ATOM      1  N   UNL     1       2.149  12.047  18.772  0.00  0.00    +0.000 N 
ATOM      2  C   UNL     1       0.862  11.615  18.706  0.00  0.00    +0.000 A 
ATOM      3  N   UNL     1      -0.189  12.307  19.044  0.00  0.00    +0.000 NA
ATOM      4  C   UNL     1      -1.263  11.492  18.814  0.00  0.00    +0.000 A 
ATOM      5  C   UNL     1      -0.839  10.266  18.332  0.00  0.00    +0.000 A 
ATOM      6  N   UNL     1       0.532  10.332  18.282  0.00  0.00    +0.000 N 
ATOM      7  H   UNL     1       2.280  13.048  18.839  0.00  0.00    +0.000 HD
ATOM      8  H   UNL     1       2.830  11.532  18.236  0.00  0.00    +0.000 HD
ENDROOT
BRANCH   4   9
ATOM      9  C   UNL     1      -2.652  11.862  19.042  0.00  0.00    +0.000 A 
ATOM     10  C   UNL     1      -3.691  11.450  18.195  0.00  0.00    +0.000 A 
ATOM     11  C   UNL     1      -5.014  11.782  18.488  0.00  0.00    +0.000 A 
ATOM     12  C   UNL     1      -5.315  12.541  19.632  0.00  0.00    +0.000 A 
ATOM     13  C   UNL     1      -4.285  12.984  20.450  0.00  0.00    +0.000 A 
ATOM     14  C   UNL     1      -2.961  12.644  20.160  0.00  0.00    +0.000 A 
ENDBRANCH   4   9
BRANCH   6  15
ATOM     15  N   UNL     1       1.457   9.418  17.839  0.00  0.00    +0.000 NA
ATOM     16  C   UNL     1       1.804   8.494  18.671  0.00  0.00    +0.000 C 
BRANCH  16  17
ATOM     17  C   UNL     1       2.661   7.384  18.242  0.00  0.00    +0.000 A 
ATOM     18  C   UNL     1       3.726   7.564  17.380  0.00  0.00    +0.000 A 
ATOM     19  C   UNL     1       4.573   6.464  17.218  0.00  0.00    +0.000 A 
ATOM     20  C   UNL     1       5.966   6.564  17.191  0.00  0.00    +0.000 A 
ATOM     21  C   UNL     1       6.733   5.405  17.080  0.00  0.00    +0.000 A 
ATOM     22  C   UNL     1       6.109   4.203  16.760  0.00  0.00    +0.000 A 
ATOM     23  C   UNL     1       4.727   4.108  16.862  0.00  0.00    +0.000 A 
ATOM     24  C   UNL     1       4.018   5.188  17.351  0.00  0.00    +0.000 A 
ATOM     25  N   UNL     1       2.949   5.001  18.128  0.00  0.00    +0.000 NA
ATOM     26  C   UNL     1       2.447   6.105  18.721  0.00  0.00    +0.000 A 
ATOM     27 CL   UNL     1       1.916   5.814  20.339  0.00  0.00    +0.000 Cl
ENDBRANCH  16  17
ENDBRANCH   6  15
TORSDOF 3
ENDMDL
MODEL 9
REMARK VINA RESULT:      -7.7      3.619      8.605
REMARK  Name = 
REMARK  3 active torsions:
REMARK  status: ('A' for Active; 'I' for Inactive)
REMARK    1  A    between atoms: C_4  and  C_5
REMARK    2  A    between atoms: N_12  and  N_13
REMARK    3  A    between atoms: C_14  and  C_15
REMARK                            x       y       z     vdW  Elec       q    Type
REMARK                         _______ _______ _______ _____ _____    ______ ____
ROOT
ATOM      1  N   UNL     1      -0.808  10.088  19.362  0.00  0.00    +0.000 N 
ATOM      2  C   UNL     1       0.285  10.796  18.977  0.00  0.00    +0.000 A 
ATOM      3  N   UNL     1       0.395  12.095  18.999  0.00  0.00    +0.000 NA
ATOM      4  C   UNL     1       1.650  12.372  18.534  0.00  0.00    +0.000 A 
ATOM      5  C   UNL     1       2.311  11.199  18.212  0.00  0.00    +0.000 A 
ATOM      6  N   UNL     1       1.427  10.182  18.475  0.00  0.00    +0.000 N 
ATOM      7  H   UNL     1      -1.477  10.579  19.943  0.00  0.00    +0.000 HD
ATOM      8  H   UNL     1      -0.672   9.107  19.554  0.00  0.00    +0.000 HD
ENDROOT
BRANCH   4   9
ATOM      9  C   UNL     1       2.212  13.708  18.399  0.00  0.00    +0.000 A 
ATOM     10  C   UNL     1       3.530  13.933  17.978  0.00  0.00    +0.000 A 
ATOM     11  C   UNL     1       4.004  15.235  17.808  0.00  0.00    +0.000 A 
ATOM     12  C   UNL     1       3.165  16.332  18.068  0.00  0.00    +0.000 A 
ATOM     13  C   UNL     1       1.871  16.111  18.523  0.00  0.00    +0.000 A 
ATOM     14  C   UNL     1       1.395  14.808  18.684  0.00  0.00    +0.000 A 
ENDBRANCH   4   9
BRANCH   6  15
ATOM     15  N   UNL     1       1.577   8.819  18.382  0.00  0.00    +0.000 NA
ATOM     16  C   UNL     1       2.744   8.386  18.040  0.00  0.00    +0.000 C 
BRANCH  16  17
ATOM     17  C   UNL     1       3.047   6.952  18.066  0.00  0.00    +0.000 A 
ATOM     18  C   UNL     1       2.216   6.032  18.677  0.00  0.00    +0.000 A 
ATOM     19  C   UNL     1       2.523   4.687  18.451  0.00  0.00    +0.000 A 
ATOM     20  C   UNL     1       1.559   3.715  18.172  0.00  0.00    +0.000 A 
ATOM     21  C   UNL     1       1.963   2.408  17.906  0.00  0.00    +0.000 A 
ATOM     22  C   UNL     1       3.281   2.038  18.155  0.00  0.00    +0.000 A 
ATOM     23  C   UNL     1       4.235   3.026  18.360  0.00  0.00    +0.000 A 
ATOM     24  C   UNL     1       3.862   4.351  18.236  0.00  0.00    +0.000 A 
ATOM     25  N   UNL     1       4.700   5.244  17.708  0.00  0.00    +0.000 NA
ATOM     26  C   UNL     1       4.179   6.460  17.441  0.00  0.00    +0.000 A 
ATOM     27 CL   UNL     1       4.770   7.134  15.964  0.00  0.00    +0.000 Cl
ENDBRANCH  16  17
ENDBRANCH   6  15
TORSDOF 3
ENDMDL
