MODEL 1
REMARK VINA RESULT:      -8.4      0.000      0.000
REMARK  Name = 
REMARK  5 active torsions:
REMARK  status: ('A' for Active; 'I' for Inactive)
REMARK    1  A    between atoms: C_2  and  C_3
REMARK    2  A    between atoms: C_3  and  O_4
REMARK    3  A    between atoms: O_4  and  C_5
REMARK    4  A    between atoms: C_18  and  C_19
REMARK    5  A    between atoms: C_19  and  C_20
REMARK                            x       y       z     vdW  Elec       q    Type
REMARK                         _______ _______ _______ _____ _____    ______ ____
ROOT
ATOM      1  O   UNL     1       2.605   4.052  21.470  0.00  0.00    +0.000 OA
ATOM      2  C   UNL     1       2.554   4.870  20.543  0.00  0.00    +0.000 C 
ATOM      3  N   UNL     1       2.035   6.100  20.821  0.00  0.00    +0.000 N 
ATOM      4  C   UNL     1       1.916   7.150  19.961  0.00  0.00    +0.000 A 
ATOM      5  N   UNL     1       2.321   7.276  18.723  0.00  0.00    +0.000 NA
ATOM      6  N   UNL     1       2.023   8.520  18.207  0.00  0.00    +0.000 NA
ATOM      7  C   UNL     1       1.379   9.277  19.073  0.00  0.00    +0.000 A 
ATOM      8  S   UNL     1       1.140   8.528  20.606  0.00  0.00    +0.000 S 
ATOM      9  H   UNL     1       1.705   6.227  21.766  0.00  0.00    +0.000 HD
ENDROOT
BRANCH   2  10
ATOM     10  C   UNL     1       3.080   4.505  19.156  0.00  0.00    +0.000 C 
BRANCH  10  11
ATOM     11  O   UNL     1       4.363   3.889  19.207  0.00  0.00    +0.000 OA
BRANCH  11  12
ATOM     12  C   UNL     1       5.260   4.297  18.247  0.00  0.00    +0.000 A 
ATOM     13  C   UNL     1       6.417   5.061  18.502  0.00  0.00    +0.000 A 
ATOM     14  C   UNL     1       7.269   5.454  17.464  0.00  0.00    +0.000 A 
ATOM     15  C   UNL     1       6.940   5.070  16.187  0.00  0.00    +0.000 A 
ATOM     16  C   UNL     1       5.815   4.323  15.924  0.00  0.00    +0.000 A 
ATOM     17  C   UNL     1       4.956   3.921  16.930  0.00  0.00    +0.000 A 
ATOM     18  O   UNL     1       5.679   4.057  14.596  0.00  0.00    +0.000 OA
ATOM     19  C   UNL     1       6.843   4.724  14.060  0.00  0.00    +0.000 C 
ATOM     20  O   UNL     1       7.648   5.369  15.067  0.00  0.00    +0.000 OA
ENDBRANCH  11  12
ENDBRANCH  10  11
ENDBRANCH   2  10
BRANCH   7  21
ATOM     21  C   UNL     1       0.925  10.677  18.800  0.00  0.00    +0.000 C 
BRANCH  21  22
ATOM     22  C   UNL     1      -0.566  10.810  18.571  0.00  0.00    +0.000 A 
ATOM     23  C   UNL     1      -1.310  11.763  19.278  0.00  0.00    +0.000 A 
ATOM     24  C   UNL     1      -2.676  11.930  19.026  0.00  0.00    +0.000 A 
ATOM     25  C   UNL     1      -3.310  11.144  18.066  0.00  0.00    +0.000 A 
ATOM     26  C   UNL     1      -2.583  10.188  17.362  0.00  0.00    +0.000 A 
ATOM     27  C   UNL     1      -1.219  10.022  17.609  0.00  0.00    +0.000 A 
ENDBRANCH  21  22
ENDBRANCH   7  21
TORSDOF 5
ENDMDL
MODEL 2
REMARK VINA RESULT:      -8.4      0.727      1.226
REMARK  Name = 
REMARK  5 active torsions:
REMARK  status: ('A' for Active; 'I' for Inactive)
REMARK    1  A    between atoms: C_2  and  C_3
REMARK    2  A    between atoms: C_3  and  O_4
REMARK    3  A    between atoms: O_4  and  C_5
REMARK    4  A    between atoms: C_18  and  C_19
REMARK    5  A    between atoms: C_19  and  C_20
REMARK                            x       y       z     vdW  Elec       q    Type
REMARK                         _______ _______ _______ _____ _____    ______ ____
ROOT
ATOM      1  O   UNL     1       2.304   3.692  21.820  0.00  0.00    +0.000 OA
ATOM      2  C   UNL     1       2.396   4.367  20.787  0.00  0.00    +0.000 C 
ATOM      3  N   UNL     1       2.043   5.682  20.864  0.00  0.00    +0.000 N 
ATOM      4  C   UNL     1       2.099   6.603  19.861  0.00  0.00    +0.000 A 
ATOM      5  N   UNL     1       2.556   6.493  18.640  0.00  0.00    +0.000 NA
ATOM      6  N   UNL     1       2.451   7.677  17.941  0.00  0.00    +0.000 NA
ATOM      7  C   UNL     1       1.889   8.630  18.658  0.00  0.00    +0.000 A 
ATOM      8  S   UNL     1       1.499   8.150  20.266  0.00  0.00    +0.000 S 
ATOM      9  H   UNL     1       1.703   5.988  21.764  0.00  0.00    +0.000 HD
ENDROOT
BRANCH   2  10
ATOM     10  C   UNL     1       2.911   3.738  19.493  0.00  0.00    +0.000 C 
BRANCH  10  11
ATOM     11  O   UNL     1       4.287   3.378  19.575  0.00  0.00    +0.000 OA
BRANCH  11  12
ATOM     12  C   UNL     1       5.128   4.033  18.706  0.00  0.00    +0.000 A 
ATOM     13  C   UNL     1       6.028   5.054  19.074  0.00  0.00    +0.000 A 
ATOM     14  C   UNL     1       6.836   5.685  18.122  0.00  0.00    +0.000 A 
ATOM     15  C   UNL     1       6.723   5.276  16.815  0.00  0.00    +0.000 A 
ATOM     16  C   UNL     1       5.851   4.280  16.443  0.00  0.00    +0.000 A 
ATOM     17  C   UNL     1       5.041   3.640  17.362  0.00  0.00    +0.000 A 
ATOM     18  O   UNL     1       5.898   4.036  15.105  0.00  0.00    +0.000 OA
ATOM     19  C   UNL     1       6.895   4.993  14.684  0.00  0.00    +0.000 C 
ATOM     20  O   UNL     1       7.423   5.783  15.768  0.00  0.00    +0.000 OA
ENDBRANCH  11  12
ENDBRANCH  10  11
ENDBRANCH   2  10
BRANCH   7  21
ATOM     21  C   UNL     1       1.642  10.023  18.170  0.00  0.00    +0.000 C 
BRANCH  21  22
ATOM     22  C   UNL     1       0.233  10.522  18.410  0.00  0.00    +0.000 A 
ATOM     23  C   UNL     1      -0.847   9.959  17.718  0.00  0.00    +0.000 A 
ATOM     24  C   UNL     1      -2.156  10.376  17.982  0.00  0.00    +0.000 A 
ATOM     25  C   UNL     1      -2.397  11.360  18.938  0.00  0.00    +0.000 A 
ATOM     26  C   UNL     1      -1.331  11.933  19.626  0.00  0.00    +0.000 A 
ATOM     27  C   UNL     1      -0.024  11.517  19.369  0.00  0.00    +0.000 A 
ENDBRANCH  21  22
ENDBRANCH   7  21
TORSDOF 5
ENDMDL
MODEL 3
REMARK VINA RESULT:      -8.1      1.187      1.859
REMARK  Name = 
REMARK  5 active torsions:
REMARK  status: ('A' for Active; 'I' for Inactive)
REMARK    1  A    between atoms: C_2  and  C_3
REMARK    2  A    between atoms: C_3  and  O_4
REMARK    3  A    between atoms: O_4  and  C_5
REMARK    4  A    between atoms: C_18  and  C_19
REMARK    5  A    between atoms: C_19  and  C_20
REMARK                            x       y       z     vdW  Elec       q    Type
REMARK                         _______ _______ _______ _____ _____    ______ ____
ROOT
ATOM      1  O   UNL     1       2.529   3.290  21.572  0.00  0.00    +0.000 OA
ATOM      2  C   UNL     1       2.503   4.021  20.574  0.00  0.00    +0.000 C 
ATOM      3  N   UNL     1       2.233   5.343  20.773  0.00  0.00    +0.000 N 
ATOM      4  C   UNL     1       2.188   6.319  19.823  0.00  0.00    +0.000 A 
ATOM      5  N   UNL     1       2.455   6.263  18.543  0.00  0.00    +0.000 NA
ATOM      6  N   UNL     1       2.309   7.491  17.932  0.00  0.00    +0.000 NA
ATOM      7  C   UNL     1       1.908   8.422  18.774  0.00  0.00    +0.000 A 
ATOM      8  S   UNL     1       1.735   7.863  20.395  0.00  0.00    +0.000 S 
ATOM      9  H   UNL     1       2.045   5.608  21.728  0.00  0.00    +0.000 HD
ENDROOT
BRANCH   2  10
ATOM     10  C   UNL     1       2.789   3.450  19.186  0.00  0.00    +0.000 C 
BRANCH  10  11
ATOM     11  O   UNL     1       4.153   3.071  19.026  0.00  0.00    +0.000 OA
BRANCH  11  12
ATOM     12  C   UNL     1       4.916   3.905  18.243  0.00  0.00    +0.000 A 
ATOM     13  C   UNL     1       4.973   3.857  16.835  0.00  0.00    +0.000 A 
ATOM     14  C   UNL     1       5.794   4.730  16.113  0.00  0.00    +0.000 A 
ATOM     15  C   UNL     1       6.543   5.637  16.822  0.00  0.00    +0.000 A 
ATOM     16  C   UNL     1       6.496   5.697  18.195  0.00  0.00    +0.000 A 
ATOM     17  C   UNL     1       5.695   4.846  18.934  0.00  0.00    +0.000 A 
ATOM     18  O   UNL     1       7.316   6.663  18.692  0.00  0.00    +0.000 OA
ATOM     19  C   UNL     1       7.882   7.196  17.475  0.00  0.00    +0.000 C 
ATOM     20  O   UNL     1       7.394   6.549  16.284  0.00  0.00    +0.000 OA
ENDBRANCH  11  12
ENDBRANCH  10  11
ENDBRANCH   2  10
BRANCH   7  21
ATOM     21  C   UNL     1       1.664   9.852  18.403  0.00  0.00    +0.000 C 
BRANCH  21  22
ATOM     22  C   UNL     1       0.225  10.295  18.563  0.00  0.00    +0.000 A 
ATOM     23  C   UNL     1      -0.121  11.242  19.535  0.00  0.00    +0.000 A 
ATOM     24  C   UNL     1      -1.439  11.699  19.646  0.00  0.00    +0.000 A 
ATOM     25  C   UNL     1      -2.422  11.210  18.788  0.00  0.00    +0.000 A 
ATOM     26  C   UNL     1      -2.092  10.261  17.825  0.00  0.00    +0.000 A 
ATOM     27  C   UNL     1      -0.777   9.807  17.708  0.00  0.00    +0.000 A 
ENDBRANCH  21  22
ENDBRANCH   7  21
TORSDOF 5
ENDMDL
MODEL 4
REMARK VINA RESULT:      -7.9      6.932      9.325
REMARK  Name = 
REMARK  5 active torsions:
REMARK  status: ('A' for Active; 'I' for Inactive)
REMARK    1  A    between atoms: C_2  and  C_3
REMARK    2  A    between atoms: C_3  and  O_4
REMARK    3  A    between atoms: O_4  and  C_5
REMARK    4  A    between atoms: C_18  and  C_19
REMARK    5  A    between atoms: C_19  and  C_20
REMARK                            x       y       z     vdW  Elec       q    Type
REMARK                         _______ _______ _______ _____ _____    ______ ____
ROOT
ATOM      1  O   UNL     1       9.827  10.335  20.107  0.00  0.00    +0.000 OA
ATOM      2  C   UNL     1       9.231   9.838  19.143  0.00  0.00    +0.000 C 
ATOM      3  N   UNL     1       8.792   8.554  19.273  0.00  0.00    +0.000 N 
ATOM      4  C   UNL     1       8.091   7.833  18.352  0.00  0.00    +0.000 A 
ATOM      5  N   UNL     1       7.611   8.191  17.189  0.00  0.00    +0.000 NA
ATOM      6  N   UNL     1       6.937   7.160  16.569  0.00  0.00    +0.000 NA
ATOM      7  C   UNL     1       6.959   6.052  17.282  0.00  0.00    +0.000 A 
ATOM      8  S   UNL     1       7.768   6.215  18.794  0.00  0.00    +0.000 S 
ATOM      9  H   UNL     1       9.021   8.103  20.146  0.00  0.00    +0.000 HD
ENDROOT
BRANCH   2  10
ATOM     10  C   UNL     1       8.985  10.657  17.877  0.00  0.00    +0.000 C 
BRANCH  10  11
ATOM     11  O   UNL     1      10.091  11.492  17.547  0.00  0.00    +0.000 OA
BRANCH  11  12
ATOM     12  C   UNL     1       9.884  12.843  17.696  0.00  0.00    +0.000 A 
ATOM     13  C   UNL     1       8.744  13.422  18.291  0.00  0.00    +0.000 A 
ATOM     14  C   UNL     1       8.601  14.810  18.384  0.00  0.00    +0.000 A 
ATOM     15  C   UNL     1       9.609  15.592  17.876  0.00  0.00    +0.000 A 
ATOM     16  C   UNL     1      10.728  15.042  17.295  0.00  0.00    +0.000 A 
ATOM     17  C   UNL     1      10.895  13.674  17.189  0.00  0.00    +0.000 A 
ATOM     18  O   UNL     1      11.595  15.995  16.858  0.00  0.00    +0.000 OA
ATOM     19  C   UNL     1      10.892  17.200  17.229  0.00  0.00    +0.000 C 
ATOM     20  O   UNL     1       9.630  16.951  17.877  0.00  0.00    +0.000 OA
ENDBRANCH  11  12
ENDBRANCH  10  11
ENDBRANCH   2  10
BRANCH   7  21
ATOM     21  C   UNL     1       6.312   4.766  16.870  0.00  0.00    +0.000 C 
BRANCH  21  22
ATOM     22  C   UNL     1       4.833   4.689  17.186  0.00  0.00    +0.000 A 
ATOM     23  C   UNL     1       4.172   3.454  17.191  0.00  0.00    +0.000 A 
ATOM     24  C   UNL     1       2.820   3.372  17.541  0.00  0.00    +0.000 A 
ATOM     25  C   UNL     1       2.117   4.524  17.887  0.00  0.00    +0.000 A 
ATOM     26  C   UNL     1       2.761   5.758  17.877  0.00  0.00    +0.000 A 
ATOM     27  C   UNL     1       4.110   5.843  17.533  0.00  0.00    +0.000 A 
ENDBRANCH  21  22
ENDBRANCH   7  21
TORSDOF 5
ENDMDL
MODEL 5
REMARK VINA RESULT:      -7.8      5.097     10.490
REMARK  Name = 
REMARK  5 active torsions:
REMARK  status: ('A' for Active; 'I' for Inactive)
REMARK    1  A    between atoms: C_2  and  C_3
REMARK    2  A    between atoms: C_3  and  O_4
REMARK    3  A    between atoms: O_4  and  C_5
REMARK    4  A    between atoms: C_18  and  C_19
REMARK    5  A    between atoms: C_19  and  C_20
REMARK                            x       y       z     vdW  Elec       q    Type
REMARK                         _______ _______ _______ _____ _____    ______ ____
ROOT
ATOM      1  O   UNL     1      -0.843  12.717  18.082  0.00  0.00    +0.000 OA
ATOM      2  C   UNL     1      -0.504  11.749  18.774  0.00  0.00    +0.000 C 
ATOM      3  N   UNL     1       0.400  10.881  18.237  0.00  0.00    +0.000 N 
ATOM      4  C   UNL     1       0.927   9.777  18.837  0.00  0.00    +0.000 A 
ATOM      5  N   UNL     1       0.772   9.324  20.055  0.00  0.00    +0.000 NA
ATOM      6  N   UNL     1       1.505   8.177  20.275  0.00  0.00    +0.000 NA
ATOM      7  C   UNL     1       2.165   7.793  19.201  0.00  0.00    +0.000 A 
ATOM      8  S   UNL     1       1.972   8.851  17.854  0.00  0.00    +0.000 S 
ATOM      9  H   UNL     1       0.695  11.090  17.295  0.00  0.00    +0.000 HD
ENDROOT
BRANCH   2  10
ATOM     10  C   UNL     1      -1.069  11.567  20.182  0.00  0.00    +0.000 C 
BRANCH  10  11
ATOM     11  O   UNL     1      -1.453  12.804  20.777  0.00  0.00    +0.000 OA
BRANCH  11  12
ATOM     12  C   UNL     1      -2.516  12.743  21.647  0.00  0.00    +0.000 A 
ATOM     13  C   UNL     1      -2.406  12.532  23.037  0.00  0.00    +0.000 A 
ATOM     14  C   UNL     1      -3.542  12.462  23.851  0.00  0.00    +0.000 A 
ATOM     15  C   UNL     1      -4.769  12.606  23.251  0.00  0.00    +0.000 A 
ATOM     16  C   UNL     1      -4.890  12.814  21.896  0.00  0.00    +0.000 A 
ATOM     17  C   UNL     1      -3.786  12.887  21.069  0.00  0.00    +0.000 A 
ATOM     18  O   UNL     1      -6.192  12.926  21.514  0.00  0.00    +0.000 OA
ATOM     19  C   UNL     1      -6.867  12.761  22.779  0.00  0.00    +0.000 C 
ATOM     20  O   UNL     1      -5.968  12.559  23.887  0.00  0.00    +0.000 OA
ENDBRANCH  11  12
ENDBRANCH  10  11
ENDBRANCH   2  10
BRANCH   7  21
ATOM     21  C   UNL     1       3.047   6.585  19.134  0.00  0.00    +0.000 C 
BRANCH  21  22
ATOM     22  C   UNL     1       2.308   5.272  19.283  0.00  0.00    +0.000 A 
ATOM     23  C   UNL     1       1.955   4.797  20.552  0.00  0.00    +0.000 A 
ATOM     24  C   UNL     1       1.220   3.614  20.691  0.00  0.00    +0.000 A 
ATOM     25  C   UNL     1       0.835   2.895  19.561  0.00  0.00    +0.000 A 
ATOM     26  C   UNL     1       1.188   3.353  18.295  0.00  0.00    +0.000 A 
ATOM     27  C   UNL     1       1.917   4.534  18.153  0.00  0.00    +0.000 A 
ENDBRANCH  21  22
ENDBRANCH   7  21
TORSDOF 5
ENDMDL
MODEL 6
REMARK VINA RESULT:      -7.7      4.031      8.989
REMARK  Name = 
REMARK  5 active torsions:
REMARK  status: ('A' for Active; 'I' for Inactive)
REMARK    1  A    between atoms: C_2  and  C_3
REMARK    2  A    between atoms: C_3  and  O_4
REMARK    3  A    between atoms: O_4  and  C_5
REMARK    4  A    between atoms: C_18  and  C_19
REMARK    5  A    between atoms: C_19  and  C_20
REMARK                            x       y       z     vdW  Elec       q    Type
REMARK                         _______ _______ _______ _____ _____    ______ ____
ROOT
ATOM      1  O   UNL     1      -0.433   9.879  22.234  0.00  0.00    +0.000 OA
ATOM      2  C   UNL     1       0.195   9.763  21.174  0.00  0.00    +0.000 C 
ATOM      3  N   UNL     1       0.832   8.579  20.949  0.00  0.00    +0.000 N 
ATOM      4  C   UNL     1       1.547   8.235  19.841  0.00  0.00    +0.000 A 
ATOM      5  N   UNL     1       1.738   8.887  18.723  0.00  0.00    +0.000 NA
ATOM      6  N   UNL     1       2.514   8.173  17.835  0.00  0.00    +0.000 NA
ATOM      7  C   UNL     1       2.903   7.016  18.332  0.00  0.00    +0.000 A 
ATOM      8  S   UNL     1       2.294   6.700  19.912  0.00  0.00    +0.000 S 
ATOM      9  H   UNL     1       0.760   7.900  21.691  0.00  0.00    +0.000 HD
ENDROOT
BRANCH   2  10
ATOM     10  C   UNL     1       0.221  10.907  20.160  0.00  0.00    +0.000 C 
BRANCH  10  11
ATOM     11  O   UNL     1      -0.878  11.798  20.319  0.00  0.00    +0.000 OA
BRANCH  11  12
ATOM     12  C   UNL     1      -1.871  11.696  19.373  0.00  0.00    +0.000 A 
ATOM     13  C   UNL     1      -3.207  12.105  19.563  0.00  0.00    +0.000 A 
ATOM     14  C   UNL     1      -4.163  11.946  18.554  0.00  0.00    +0.000 A 
ATOM     15  C   UNL     1      -3.757  11.378  17.371  0.00  0.00    +0.000 A 
ATOM     16  C   UNL     1      -2.456  10.977  17.172  0.00  0.00    +0.000 A 
ATOM     17  C   UNL     1      -1.492  11.121  18.151  0.00  0.00    +0.000 A 
ATOM     18  O   UNL     1      -2.274  10.439  15.935  0.00  0.00    +0.000 OA
ATOM     19  C   UNL     1      -3.605  10.548  15.386  0.00  0.00    +0.000 C 
ATOM     20  O   UNL     1      -4.552  11.145  16.295  0.00  0.00    +0.000 OA
ENDBRANCH  11  12
ENDBRANCH  10  11
ENDBRANCH   2  10
BRANCH   7  21
ATOM     21  C   UNL     1       3.753   6.024  17.602  0.00  0.00    +0.000 C 
BRANCH  21  22
ATOM     22  C   UNL     1       5.231   6.126  17.915  0.00  0.00    +0.000 A 
ATOM     23  C   UNL     1       6.053   6.993  17.183  0.00  0.00    +0.000 A 
ATOM     24  C   UNL     1       7.406   7.135  17.509  0.00  0.00    +0.000 A 
ATOM     25  C   UNL     1       7.949   6.411  18.568  0.00  0.00    +0.000 A 
ATOM     26  C   UNL     1       7.144   5.541  19.297  0.00  0.00    +0.000 A 
ATOM     27  C   UNL     1       5.793   5.399  18.978  0.00  0.00    +0.000 A 
ENDBRANCH  21  22
ENDBRANCH   7  21
TORSDOF 5
ENDMDL
MODEL 7
REMARK VINA RESULT:      -7.7      7.164      9.601
REMARK  Name = 
REMARK  5 active torsions:
REMARK  status: ('A' for Active; 'I' for Inactive)
REMARK    1  A    between atoms: C_2  and  C_3
REMARK    2  A    between atoms: C_3  and  O_4
REMARK    3  A    between atoms: O_4  and  C_5
REMARK    4  A    between atoms: C_18  and  C_19
REMARK    5  A    between atoms: C_19  and  C_20
REMARK                            x       y       z     vdW  Elec       q    Type
REMARK                         _______ _______ _______ _____ _____    ______ ____
ROOT
ATOM      1  O   UNL     1       9.828  10.708  20.162  0.00  0.00    +0.000 OA
ATOM      2  C   UNL     1       9.264  10.144  19.216  0.00  0.00    +0.000 C 
ATOM      3  N   UNL     1       8.934   8.831  19.376  0.00  0.00    +0.000 N 
ATOM      4  C   UNL     1       8.285   8.036  18.479  0.00  0.00    +0.000 A 
ATOM      5  N   UNL     1       7.764   8.329  17.315  0.00  0.00    +0.000 NA
ATOM      6  N   UNL     1       7.170   7.233  16.725  0.00  0.00    +0.000 NA
ATOM      7  C   UNL     1       7.293   6.145  17.459  0.00  0.00    +0.000 A 
ATOM      8  S   UNL     1       8.103   6.407  18.957  0.00  0.00    +0.000 S 
ATOM      9  H   UNL     1       9.210   8.419  20.255  0.00  0.00    +0.000 HD
ENDROOT
BRANCH   2  10
ATOM     10  C   UNL     1       8.936  10.914  17.937  0.00  0.00    +0.000 C 
BRANCH  10  11
ATOM     11  O   UNL     1       8.648  12.286  18.188  0.00  0.00    +0.000 OA
BRANCH  11  12
ATOM     12  C   UNL     1       9.631  13.178  17.829  0.00  0.00    +0.000 A 
ATOM     13  C   UNL     1      10.863  12.823  17.242  0.00  0.00    +0.000 A 
ATOM     14  C   UNL     1      11.821  13.793  16.925  0.00  0.00    +0.000 A 
ATOM     15  C   UNL     1      11.520  15.104  17.204  0.00  0.00    +0.000 A 
ATOM     16  C   UNL     1      10.321  15.464  17.775  0.00  0.00    +0.000 A 
ATOM     17  C   UNL     1       9.358  14.527  18.099  0.00  0.00    +0.000 A 
ATOM     18  O   UNL     1      10.233  16.809  17.968  0.00  0.00    +0.000 OA
ATOM     19  C   UNL     1      11.511  17.246  17.456  0.00  0.00    +0.000 C 
ATOM     20  O   UNL     1      12.333  16.166  16.969  0.00  0.00    +0.000 OA
ENDBRANCH  11  12
ENDBRANCH  10  11
ENDBRANCH   2  10
BRANCH   7  21
ATOM     21  C   UNL     1       6.749   4.803  17.080  0.00  0.00    +0.000 C 
BRANCH  21  22
ATOM     22  C   UNL     1       5.365   4.520  17.624  0.00  0.00    +0.000 A 
ATOM     23  C   UNL     1       4.380   3.960  16.801  0.00  0.00    +0.000 A 
ATOM     24  C   UNL     1       3.118   3.642  17.315  0.00  0.00    +0.000 A 
ATOM     25  C   UNL     1       2.830   3.884  18.657  0.00  0.00    +0.000 A 
ATOM     26  C   UNL     1       3.798   4.448  19.483  0.00  0.00    +0.000 A 
ATOM     27  C   UNL     1       5.059   4.762  18.974  0.00  0.00    +0.000 A 
ENDBRANCH  21  22
ENDBRANCH   7  21
TORSDOF 5
ENDMDL
MODEL 8
REMARK VINA RESULT:      -7.6      4.957     10.445
REMARK  Name = 
REMARK  5 active torsions:
REMARK  status: ('A' for Active; 'I' for Inactive)
REMARK    1  A    between atoms: C_2  and  C_3
REMARK    2  A    between atoms: C_3  and  O_4
REMARK    3  A    between atoms: O_4  and  C_5
REMARK    4  A    between atoms: C_18  and  C_19
REMARK    5  A    between atoms: C_19  and  C_20
REMARK                            x       y       z     vdW  Elec       q    Type
REMARK                         _______ _______ _______ _____ _____    ______ ____
ROOT
ATOM      1  O   UNL     1      -0.181  12.792  18.338  0.00  0.00    +0.000 OA
ATOM      2  C   UNL     1       0.072  11.755  18.965  0.00  0.00    +0.000 C 
ATOM      3  N   UNL     1       0.874  10.835  18.359  0.00  0.00    +0.000 N 
ATOM      4  C   UNL     1       1.298   9.650  18.882  0.00  0.00    +0.000 A 
ATOM      5  N   UNL     1       1.120   9.143  20.075  0.00  0.00    +0.000 NA
ATOM      6  N   UNL     1       1.738   7.918  20.212  0.00  0.00    +0.000 NA
ATOM      7  C   UNL     1       2.337   7.536  19.102  0.00  0.00    +0.000 A 
ATOM      8  S   UNL     1       2.228   8.685  17.823  0.00  0.00    +0.000 S 
ATOM      9  H   UNL     1       1.172  11.070  17.424  0.00  0.00    +0.000 HD
ENDROOT
BRANCH   2  10
ATOM     10  C   UNL     1      -0.484  11.547  20.374  0.00  0.00    +0.000 C 
BRANCH  10  11
ATOM     11  O   UNL     1      -0.972  12.756  20.949  0.00  0.00    +0.000 OA
BRANCH  11  12
ATOM     12  C   UNL     1      -2.284  12.733  21.362  0.00  0.00    +0.000 A 
ATOM     13  C   UNL     1      -3.394  12.962  20.523  0.00  0.00    +0.000 A 
ATOM     14  C   UNL     1      -4.699  12.942  21.028  0.00  0.00    +0.000 A 
ATOM     15  C   UNL     1      -4.862  12.693  22.368  0.00  0.00    +0.000 A 
ATOM     16  C   UNL     1      -3.788  12.467  23.197  0.00  0.00    +0.000 A 
ATOM     17  C   UNL     1      -2.489  12.481  22.726  0.00  0.00    +0.000 A 
ATOM     18  O   UNL     1      -4.176  12.245  24.483  0.00  0.00    +0.000 OA
ATOM     19  C   UNL     1      -5.610  12.361  24.364  0.00  0.00    +0.000 C 
ATOM     20  O   UNL     1      -6.052  12.645  23.022  0.00  0.00    +0.000 OA
ENDBRANCH  11  12
ENDBRANCH  10  11
ENDBRANCH   2  10
BRANCH   7  21
ATOM     21  C   UNL     1       3.092   6.252  18.946  0.00  0.00    +0.000 C 
BRANCH  21  22
ATOM     22  C   UNL     1       2.289   5.017  19.294  0.00  0.00    +0.000 A 
ATOM     23  C   UNL     1       1.712   4.238  18.282  0.00  0.00    +0.000 A 
ATOM     24  C   UNL     1       1.021   3.063  18.596  0.00  0.00    +0.000 A 
ATOM     25  C   UNL     1       0.898   2.658  19.923  0.00  0.00    +0.000 A 
ATOM     26  C   UNL     1       1.460   3.428  20.938  0.00  0.00    +0.000 A 
ATOM     27  C   UNL     1       2.154   4.598  20.628  0.00  0.00    +0.000 A 
ENDBRANCH  21  22
ENDBRANCH   7  21
TORSDOF 5
ENDMDL
MODEL 9
REMARK VINA RESULT:      -7.6      5.040     10.628
REMARK  Name = 
REMARK  5 active torsions:
REMARK  status: ('A' for Active; 'I' for Inactive)
REMARK    1  A    between atoms: C_2  and  C_3
REMARK    2  A    between atoms: C_3  and  O_4
REMARK    3  A    between atoms: O_4  and  C_5
REMARK    4  A    between atoms: C_18  and  C_19
REMARK    5  A    between atoms: C_19  and  C_20
REMARK                            x       y       z     vdW  Elec       q    Type
REMARK                         _______ _______ _______ _____ _____    ______ ____
ROOT
ATOM      1  O   UNL     1      -0.967  12.616  18.104  0.00  0.00    +0.000 OA
ATOM      2  C   UNL     1      -0.594  11.674  18.813  0.00  0.00    +0.000 C 
ATOM      3  N   UNL     1       0.311  10.806  18.277  0.00  0.00    +0.000 N 
ATOM      4  C   UNL     1       0.873   9.728  18.893  0.00  0.00    +0.000 A 
ATOM      5  N   UNL     1       0.757   9.306  20.126  0.00  0.00    +0.000 NA
ATOM      6  N   UNL     1       1.515   8.178  20.359  0.00  0.00    +0.000 NA
ATOM      7  C   UNL     1       2.155   7.777  19.278  0.00  0.00    +0.000 A 
ATOM      8  S   UNL     1       1.909   8.793  17.909  0.00  0.00    +0.000 S 
ATOM      9  H   UNL     1       0.579  10.994  17.323  0.00  0.00    +0.000 HD
ENDROOT
BRANCH   2  10
ATOM     10  C   UNL     1      -1.120  11.521  20.240  0.00  0.00    +0.000 C 
BRANCH  10  11
ATOM     11  O   UNL     1      -1.429  12.774  20.842  0.00  0.00    +0.000 OA
BRANCH  11  12
ATOM     12  C   UNL     1      -2.729  12.931  21.263  0.00  0.00    +0.000 A 
ATOM     13  C   UNL     1      -3.761  13.503  20.490  0.00  0.00    +0.000 A 
ATOM     14  C   UNL     1      -5.055  13.645  21.003  0.00  0.00    +0.000 A 
ATOM     15  C   UNL     1      -5.287  13.209  22.284  0.00  0.00    +0.000 A 
ATOM     16  C   UNL     1      -4.290  12.647  23.048  0.00  0.00    +0.000 A 
ATOM     17  C   UNL     1      -3.003  12.495  22.568  0.00  0.00    +0.000 A 
ATOM     18  O   UNL     1      -4.736  12.289  24.283  0.00  0.00    +0.000 OA
ATOM     19  C   UNL     1      -6.121  12.692  24.205  0.00  0.00    +0.000 C 
ATOM     20  O   UNL     1      -6.477  13.276  22.936  0.00  0.00    +0.000 OA
ENDBRANCH  11  12
ENDBRANCH  10  11
ENDBRANCH   2  10
BRANCH   7  21
ATOM     21  C   UNL     1       3.056   6.582  19.222  0.00  0.00    +0.000 C 
BRANCH  21  22
ATOM     22  C   UNL     1       2.333   5.257  19.331  0.00  0.00    +0.000 A 
ATOM     23  C   UNL     1       1.912   4.778  20.579  0.00  0.00    +0.000 A 
ATOM     24  C   UNL     1       1.191   3.584  20.677  0.00  0.00    +0.000 A 
ATOM     25  C   UNL     1       0.887   2.855  19.529  0.00  0.00    +0.000 A 
ATOM     26  C   UNL     1       1.307   3.316  18.284  0.00  0.00    +0.000 A 
ATOM     27  C   UNL     1       2.022   4.510  18.182  0.00  0.00    +0.000 A 
ENDBRANCH  21  22
ENDBRANCH   7  21
TORSDOF 5
ENDMDL
