MODEL 1
REMARK VINA RESULT:      -7.1      0.000      0.000
REMARK  Name = 
REMARK  10 active torsions:
REMARK  status: ('A' for Active; 'I' for Inactive)
REMARK    1  A    between atoms: C_1  and  O_2
REMARK    2  A    between atoms: O_2  and  C_3
REMARK    3  A    between atoms: C_3  and  C_5
REMARK    4  A    between atoms: C_5  and  C_6
REMARK    5  A    between atoms: C_5  and  N_13
REMARK    6  A    between atoms: C_6  and  C_7
REMARK    7  A    between atoms: C_14  and  C_16
REMARK    8  A    between atoms: C_16  and  C_17
REMARK    9  A    between atoms: C_16  and  C_23
REMARK   10  A    between atoms: C_16  and  C_29
REMARK                            x       y       z     vdW  Elec       q    Type
REMARK                         _______ _______ _______ _____ _____    ______ ____
ROOT
ATOM      1  C   UNL     1      -1.616  12.848  20.635  0.00  0.00    +0.000 C 
ENDROOT
BRANCH   1   2
ATOM      2  C   UNL     1      -1.089  11.491  21.239  0.00  0.00    +0.000 A 
ATOM      3  C   UNL     1      -1.076  11.275  22.636  0.00  0.00    +0.000 A 
ATOM      4  C   UNL     1      -0.593  10.091  23.195  0.00  0.00    +0.000 A 
ATOM      5  C   UNL     1      -0.033   9.120  22.377  0.00  0.00    +0.000 A 
ATOM      6  C   UNL     1       0.034   9.335  21.002  0.00  0.00    +0.000 A 
ATOM      7  C   UNL     1      -0.493  10.503  20.434  0.00  0.00    +0.000 A 
ENDBRANCH   1   2
BRANCH   1   8
ATOM      8  C   UNL     1      -0.496  13.984  20.623  0.00  0.00    +0.000 A 
ATOM      9  C   UNL     1      -0.497  14.994  19.646  0.00  0.00    +0.000 A 
ATOM     10  C   UNL     1       0.505  15.964  19.566  0.00  0.00    +0.000 A 
ATOM     11  C   UNL     1       1.551  15.952  20.475  0.00  0.00    +0.000 A 
ATOM     12  C   UNL     1       1.563  15.001  21.488  0.00  0.00    +0.000 A 
ATOM     13  C   UNL     1       0.536  14.052  21.583  0.00  0.00    +0.000 A 
ENDBRANCH   1   8
BRANCH   1  14
ATOM     14  C   UNL     1      -2.831  13.441  21.457  0.00  0.00    +0.000 A 
ATOM     15  C   UNL     1      -3.129  14.810  21.587  0.00  0.00    +0.000 A 
ATOM     16  C   UNL     1      -4.218  15.273  22.340  0.00  0.00    +0.000 A 
ATOM     17  C   UNL     1      -5.018  14.380  23.038  0.00  0.00    +0.000 A 
ATOM     18  C   UNL     1      -4.737  13.023  22.968  0.00  0.00    +0.000 A 
ATOM     19  C   UNL     1      -3.674  12.562  22.178  0.00  0.00    +0.000 A 
ENDBRANCH   1  14
BRANCH   1  21
ATOM     20  N   UNL     1      -3.180  11.908  18.784  0.00  0.00    +0.000 N 
ATOM     21  C   UNL     1      -1.941  12.430  19.104  0.00  0.00    +0.000 C 
ATOM     22  O   UNL     1      -1.090  12.511  18.206  0.00  0.00    +0.000 OA
ATOM     23  H   UNL     1      -3.730  11.481  19.528  0.00  0.00    +0.000 HD
BRANCH  20  24
ATOM     24  C   UNL     1      -3.603  11.614  17.398  0.00  0.00    +0.000 C 
BRANCH  24  25
ATOM     25  C   UNL     1      -3.180  10.175  17.050  0.00  0.00    +0.000 C 
ATOM     26  O   UNL     1      -3.510   9.187  17.699  0.00  0.00    +0.000 OA
BRANCH  25  28
ATOM     27  C   UNL     1      -3.061  10.119  14.687  0.00  0.00    +0.000 C 
ATOM     28  O   UNL     1      -2.378  10.141  15.945  0.00  0.00    +0.000 OA
ENDBRANCH  25  28
ENDBRANCH  24  25
BRANCH  24  29
ATOM     29  C   UNL     1      -5.118  11.835  17.126  0.00  0.00    +0.000 C 
BRANCH  29  30
ATOM     30  C   UNL     1      -6.005  11.841  18.353  0.00  0.00    +0.000 A 
ATOM     31  C   UNL     1      -6.318  13.047  18.984  0.00  0.00    +0.000 A 
ATOM     32  C   UNL     1      -7.041  13.087  20.175  0.00  0.00    +0.000 A 
ATOM     33  C   UNL     1      -7.489  11.904  20.746  0.00  0.00    +0.000 A 
ATOM     34  C   UNL     1      -7.244  10.695  20.103  0.00  0.00    +0.000 A 
ATOM     35  C   UNL     1      -6.518  10.666  18.908  0.00  0.00    +0.000 A 
ENDBRANCH  29  30
ENDBRANCH  24  29
ENDBRANCH  20  24
ENDBRANCH   1  21
TORSDOF 9
ENDMDL
MODEL 2
REMARK VINA RESULT:      -7.0      0.477      3.959
REMARK  Name = 
REMARK  10 active torsions:
REMARK  status: ('A' for Active; 'I' for Inactive)
REMARK    1  A    between atoms: C_1  and  O_2
REMARK    2  A    between atoms: O_2  and  C_3
REMARK    3  A    between atoms: C_3  and  C_5
REMARK    4  A    between atoms: C_5  and  C_6
REMARK    5  A    between atoms: C_5  and  N_13
REMARK    6  A    between atoms: C_6  and  C_7
REMARK    7  A    between atoms: C_14  and  C_16
REMARK    8  A    between atoms: C_16  and  C_17
REMARK    9  A    between atoms: C_16  and  C_23
REMARK   10  A    between atoms: C_16  and  C_29
REMARK                            x       y       z     vdW  Elec       q    Type
REMARK                         _______ _______ _______ _____ _____    ______ ____
ROOT
ATOM      1  C   UNL     1      -1.437  12.647  20.321  0.00  0.00    +0.000 C 
ENDROOT
BRANCH   1   2
ATOM      2  C   UNL     1      -0.272  13.690  20.118  0.00  0.00    +0.000 A 
ATOM      3  C   UNL     1       0.913  13.612  20.886  0.00  0.00    +0.000 A 
ATOM      4  C   UNL     1       1.948  14.536  20.741  0.00  0.00    +0.000 A 
ATOM      5  C   UNL     1       1.794  15.614  19.881  0.00  0.00    +0.000 A 
ATOM      6  C   UNL     1       0.609  15.759  19.164  0.00  0.00    +0.000 A 
ATOM      7  C   UNL     1      -0.413  14.806  19.274  0.00  0.00    +0.000 A 
ENDBRANCH   1   2
BRANCH   1   8
ATOM      8  C   UNL     1      -2.697  13.281  21.065  0.00  0.00    +0.000 A 
ATOM      9  C   UNL     1      -3.615  12.471  21.755  0.00  0.00    +0.000 A 
ATOM     10  C   UNL     1      -4.765  12.984  22.361  0.00  0.00    +0.000 A 
ATOM     11  C   UNL     1      -5.031  14.343  22.295  0.00  0.00    +0.000 A 
ATOM     12  C   UNL     1      -4.122  15.186  21.666  0.00  0.00    +0.000 A 
ATOM     13  C   UNL     1      -2.954  14.668  21.090  0.00  0.00    +0.000 A 
ENDBRANCH   1   8
BRANCH   1  14
ATOM     14  C   UNL     1      -0.990  11.407  21.195  0.00  0.00    +0.000 A 
ATOM     15  C   UNL     1      -0.993  11.365  22.601  0.00  0.00    +0.000 A 
ATOM     16  C   UNL     1      -0.574  10.235  23.319  0.00  0.00    +0.000 A 
ATOM     17  C   UNL     1      -0.084   9.123  22.653  0.00  0.00    +0.000 A 
ATOM     18  C   UNL     1      -0.028   9.136  21.266  0.00  0.00    +0.000 A 
ATOM     19  C   UNL     1      -0.490  10.251  20.551  0.00  0.00    +0.000 A 
ENDBRANCH   1  14
BRANCH   1  21
ATOM     20  N   UNL     1      -3.138  11.875  18.513  0.00  0.00    +0.000 N 
ATOM     21  C   UNL     1      -1.857  12.314  18.791  0.00  0.00    +0.000 C 
ATOM     22  O   UNL     1      -1.046  12.386  17.856  0.00  0.00    +0.000 OA
ATOM     23  H   UNL     1      -3.675  11.447  19.265  0.00  0.00    +0.000 HD
BRANCH  20  24
ATOM     24  C   UNL     1      -3.641  11.664  17.139  0.00  0.00    +0.000 C 
BRANCH  24  25
ATOM     25  C   UNL     1      -3.211  10.264  16.667  0.00  0.00    +0.000 C 
ATOM     26  O   UNL     1      -3.390   9.236  17.315  0.00  0.00    +0.000 OA
BRANCH  25  28
ATOM     27  C   UNL     1      -3.440  10.119  14.316  0.00  0.00    +0.000 C 
ATOM     28  O   UNL     1      -2.590  10.312  15.452  0.00  0.00    +0.000 OA
ENDBRANCH  25  28
ENDBRANCH  24  25
BRANCH  24  29
ATOM     29  C   UNL     1      -5.175  11.864  16.977  0.00  0.00    +0.000 C 
BRANCH  29  30
ATOM     30  C   UNL     1      -5.982  11.767  18.255  0.00  0.00    +0.000 A 
ATOM     31  C   UNL     1      -6.283  10.516  18.798  0.00  0.00    +0.000 A 
ATOM     32  C   UNL     1      -7.112  10.379  19.911  0.00  0.00    +0.000 A 
ATOM     33  C   UNL     1      -7.636  11.511  20.520  0.00  0.00    +0.000 A 
ATOM     34  C   UNL     1      -7.299  12.771  20.035  0.00  0.00    +0.000 A 
ATOM     35  C   UNL     1      -6.467  12.897  18.919  0.00  0.00    +0.000 A 
ENDBRANCH  29  30
ENDBRANCH  24  29
ENDBRANCH  20  24
ENDBRANCH   1  21
TORSDOF 9
ENDMDL
MODEL 3
REMARK VINA RESULT:      -7.0      0.243      1.179
REMARK  Name = 
REMARK  10 active torsions:
REMARK  status: ('A' for Active; 'I' for Inactive)
REMARK    1  A    between atoms: C_1  and  O_2
REMARK    2  A    between atoms: O_2  and  C_3
REMARK    3  A    between atoms: C_3  and  C_5
REMARK    4  A    between atoms: C_5  and  C_6
REMARK    5  A    between atoms: C_5  and  N_13
REMARK    6  A    between atoms: C_6  and  C_7
REMARK    7  A    between atoms: C_14  and  C_16
REMARK    8  A    between atoms: C_16  and  C_17
REMARK    9  A    between atoms: C_16  and  C_23
REMARK   10  A    between atoms: C_16  and  C_29
REMARK                            x       y       z     vdW  Elec       q    Type
REMARK                         _______ _______ _______ _____ _____    ______ ____
ROOT
ATOM      1  C   UNL     1      -1.540  12.819  20.605  0.00  0.00    +0.000 C 
ENDROOT
BRANCH   1   2
ATOM      2  C   UNL     1      -0.999  11.465  21.203  0.00  0.00    +0.000 A 
ATOM      3  C   UNL     1      -1.059  11.210  22.593  0.00  0.00    +0.000 A 
ATOM      4  C   UNL     1      -0.566  10.029  23.148  0.00  0.00    +0.000 A 
ATOM      5  C   UNL     1       0.076   9.102  22.339  0.00  0.00    +0.000 A 
ATOM      6  C   UNL     1       0.215   9.357  20.977  0.00  0.00    +0.000 A 
ATOM      7  C   UNL     1      -0.321  10.522  20.410  0.00  0.00    +0.000 A 
ENDBRANCH   1   2
BRANCH   1   8
ATOM      8  C   UNL     1      -0.421  13.956  20.567  0.00  0.00    +0.000 A 
ATOM      9  C   UNL     1      -0.434  14.953  19.576  0.00  0.00    +0.000 A 
ATOM     10  C   UNL     1       0.566  15.923  19.473  0.00  0.00    +0.000 A 
ATOM     11  C   UNL     1       1.621  15.925  20.371  0.00  0.00    +0.000 A 
ATOM     12  C   UNL     1       1.644  14.987  21.397  0.00  0.00    +0.000 A 
ATOM     13  C   UNL     1       0.620  14.038  21.515  0.00  0.00    +0.000 A 
ENDBRANCH   1   8
BRANCH   1  14
ATOM     14  C   UNL     1      -2.739  13.414  21.448  0.00  0.00    +0.000 A 
ATOM     15  C   UNL     1      -3.763  12.656  22.045  0.00  0.00    +0.000 A 
ATOM     16  C   UNL     1      -4.807  13.247  22.772  0.00  0.00    +0.000 A 
ATOM     17  C   UNL     1      -4.892  14.626  22.882  0.00  0.00    +0.000 A 
ATOM     18  C   UNL     1      -3.923  15.414  22.277  0.00  0.00    +0.000 A 
ATOM     19  C   UNL     1      -2.858  14.817  21.588  0.00  0.00    +0.000 A 
ENDBRANCH   1  14
BRANCH   1  21
ATOM     20  N   UNL     1      -3.138  11.869  18.789  0.00  0.00    +0.000 N 
ATOM     21  C   UNL     1      -1.894  12.395  19.081  0.00  0.00    +0.000 C 
ATOM     22  O   UNL     1      -1.061  12.474  18.167  0.00  0.00    +0.000 OA
ATOM     23  H   UNL     1      -3.673  11.444  19.545  0.00  0.00    +0.000 HD
BRANCH  20  24
ATOM     24  C   UNL     1      -3.587  11.569  17.412  0.00  0.00    +0.000 C 
BRANCH  24  25
ATOM     25  C   UNL     1      -3.200  10.119  17.073  0.00  0.00    +0.000 C 
ATOM     26  O   UNL     1      -3.563   9.142  17.722  0.00  0.00    +0.000 OA
BRANCH  25  28
ATOM     27  C   UNL     1      -3.049  10.158  14.713  0.00  0.00    +0.000 C 
ATOM     28  O   UNL     1      -2.387  10.059  15.977  0.00  0.00    +0.000 OA
ENDBRANCH  25  28
ENDBRANCH  24  25
BRANCH  24  29
ATOM     29  C   UNL     1      -5.102  11.819  17.160  0.00  0.00    +0.000 C 
BRANCH  29  30
ATOM     30  C   UNL     1      -5.933  12.080  18.399  0.00  0.00    +0.000 A 
ATOM     31  C   UNL     1      -6.455  11.011  19.130  0.00  0.00    +0.000 A 
ATOM     32  C   UNL     1      -7.311  11.210  20.212  0.00  0.00    +0.000 A 
ATOM     33  C   UNL     1      -7.641  12.501  20.598  0.00  0.00    +0.000 A 
ATOM     34  C   UNL     1      -7.082  13.583  19.925  0.00  0.00    +0.000 A 
ATOM     35  C   UNL     1      -6.224  13.373  18.842  0.00  0.00    +0.000 A 
ENDBRANCH  29  30
ENDBRANCH  24  29
ENDBRANCH  20  24
ENDBRANCH   1  21
TORSDOF 9
ENDMDL
MODEL 4
REMARK VINA RESULT:      -7.0      0.672      4.109
REMARK  Name = 
REMARK  10 active torsions:
REMARK  status: ('A' for Active; 'I' for Inactive)
REMARK    1  A    between atoms: C_1  and  O_2
REMARK    2  A    between atoms: O_2  and  C_3
REMARK    3  A    between atoms: C_3  and  C_5
REMARK    4  A    between atoms: C_5  and  C_6
REMARK    5  A    between atoms: C_5  and  N_13
REMARK    6  A    between atoms: C_6  and  C_7
REMARK    7  A    between atoms: C_14  and  C_16
REMARK    8  A    between atoms: C_16  and  C_17
REMARK    9  A    between atoms: C_16  and  C_23
REMARK   10  A    between atoms: C_16  and  C_29
REMARK                            x       y       z     vdW  Elec       q    Type
REMARK                         _______ _______ _______ _____ _____    ______ ____
ROOT
ATOM      1  C   UNL     1      -1.321  12.742  20.526  0.00  0.00    +0.000 C 
ENDROOT
BRANCH   1   2
ATOM      2  C   UNL     1      -2.596  13.357  21.221  0.00  0.00    +0.000 A 
ATOM      3  C   UNL     1      -3.017  14.674  20.928  0.00  0.00    +0.000 A 
ATOM      4  C   UNL     1      -4.129  15.248  21.548  0.00  0.00    +0.000 A 
ATOM      5  C   UNL     1      -4.803  14.548  22.538  0.00  0.00    +0.000 A 
ATOM      6  C   UNL     1      -4.368  13.275  22.900  0.00  0.00    +0.000 A 
ATOM      7  C   UNL     1      -3.281  12.680  22.246  0.00  0.00    +0.000 A 
ENDBRANCH   1   2
BRANCH   1   8
ATOM      8  C   UNL     1      -0.850  11.382  21.213  0.00  0.00    +0.000 A 
ATOM      9  C   UNL     1      -0.412  10.293  20.441  0.00  0.00    +0.000 A 
ATOM     10  C   UNL     1      -0.055   9.066  21.005  0.00  0.00    +0.000 A 
ATOM     11  C   UNL     1      -0.128   8.891  22.378  0.00  0.00    +0.000 A 
ATOM     12  C   UNL     1      -0.508   9.959  23.182  0.00  0.00    +0.000 A 
ATOM     13  C   UNL     1      -0.831  11.198  22.612  0.00  0.00    +0.000 A 
ENDBRANCH   1   8
BRANCH   1  14
ATOM     14  C   UNL     1      -0.075  13.716  20.583  0.00  0.00    +0.000 A 
ATOM     15  C   UNL     1       0.809  13.962  19.517  0.00  0.00    +0.000 A 
ATOM     16  C   UNL     1       1.904  14.831  19.636  0.00  0.00    +0.000 A 
ATOM     17  C   UNL     1       2.185  15.443  20.848  0.00  0.00    +0.000 A 
ATOM     18  C   UNL     1       1.359  15.199  21.936  0.00  0.00    +0.000 A 
ATOM     19  C   UNL     1       0.240  14.364  21.800  0.00  0.00    +0.000 A 
ENDBRANCH   1  14
BRANCH   1  21
ATOM     20  N   UNL     1      -3.146  11.868  18.893  0.00  0.00    +0.000 N 
ATOM     21  C   UNL     1      -1.880  12.403  19.042  0.00  0.00    +0.000 C 
ATOM     22  O   UNL     1      -1.184  12.556  18.027  0.00  0.00    +0.000 OA
ATOM     23  H   UNL     1      -3.563  11.387  19.687  0.00  0.00    +0.000 HD
BRANCH  20  24
ATOM     24  C   UNL     1      -3.779  11.642  17.576  0.00  0.00    +0.000 C 
BRANCH  24  25
ATOM     25  C   UNL     1      -3.541  10.179  17.161  0.00  0.00    +0.000 C 
ATOM     26  O   UNL     1      -3.140   9.305  17.925  0.00  0.00    +0.000 OA
BRANCH  25  28
ATOM     27  C   UNL     1      -2.916  10.622  14.923  0.00  0.00    +0.000 C 
ATOM     28  O   UNL     1      -3.811   9.982  15.837  0.00  0.00    +0.000 OA
ENDBRANCH  25  28
ENDBRANCH  24  25
BRANCH  24  29
ATOM     29  C   UNL     1      -5.290  12.003  17.517  0.00  0.00    +0.000 C 
BRANCH  29  30
ATOM     30  C   UNL     1      -6.079  11.707  18.776  0.00  0.00    +0.000 A 
ATOM     31  C   UNL     1      -6.508  10.405  19.041  0.00  0.00    +0.000 A 
ATOM     32  C   UNL     1      -7.326  10.109  20.131  0.00  0.00    +0.000 A 
ATOM     33  C   UNL     1      -7.710  11.124  20.997  0.00  0.00    +0.000 A 
ATOM     34  C   UNL     1      -7.242  12.418  20.788  0.00  0.00    +0.000 A 
ATOM     35  C   UNL     1      -6.422  12.703  19.693  0.00  0.00    +0.000 A 
ENDBRANCH  29  30
ENDBRANCH  24  29
ENDBRANCH  20  24
ENDBRANCH   1  21
TORSDOF 9
ENDMDL
MODEL 5
REMARK VINA RESULT:      -6.9      0.648      3.845
REMARK  Name = 
REMARK  10 active torsions:
REMARK  status: ('A' for Active; 'I' for Inactive)
REMARK    1  A    between atoms: C_1  and  O_2
REMARK    2  A    between atoms: O_2  and  C_3
REMARK    3  A    between atoms: C_3  and  C_5
REMARK    4  A    between atoms: C_5  and  C_6
REMARK    5  A    between atoms: C_5  and  N_13
REMARK    6  A    between atoms: C_6  and  C_7
REMARK    7  A    between atoms: C_14  and  C_16
REMARK    8  A    between atoms: C_16  and  C_17
REMARK    9  A    between atoms: C_16  and  C_23
REMARK   10  A    between atoms: C_16  and  C_29
REMARK                            x       y       z     vdW  Elec       q    Type
REMARK                         _______ _______ _______ _____ _____    ______ ____
ROOT
ATOM      1  C   UNL     1      -1.496  12.577  20.229  0.00  0.00    +0.000 C 
ENDROOT
BRANCH   1   2
ATOM      2  C   UNL     1      -0.338  13.605  19.931  0.00  0.00    +0.000 A 
ATOM      3  C   UNL     1       0.933  13.460  20.533  0.00  0.00    +0.000 A 
ATOM      4  C   UNL     1       1.967  14.369  20.302  0.00  0.00    +0.000 A 
ATOM      5  C   UNL     1       1.733  15.496  19.527  0.00  0.00    +0.000 A 
ATOM      6  C   UNL     1       0.469  15.705  18.979  0.00  0.00    +0.000 A 
ATOM      7  C   UNL     1      -0.556  14.768  19.171  0.00  0.00    +0.000 A 
ENDBRANCH   1   2
BRANCH   1   8
ATOM      8  C   UNL     1      -2.669  13.219  21.100  0.00  0.00    +0.000 A 
ATOM      9  C   UNL     1      -2.878  14.608  21.123  0.00  0.00    +0.000 A 
ATOM     10  C   UNL     1      -3.852  15.209  21.925  0.00  0.00    +0.000 A 
ATOM     11  C   UNL     1      -4.657  14.425  22.736  0.00  0.00    +0.000 A 
ATOM     12  C   UNL     1      -4.516  13.042  22.705  0.00  0.00    +0.000 A 
ATOM     13  C   UNL     1      -3.560  12.444  21.872  0.00  0.00    +0.000 A 
ENDBRANCH   1   8
BRANCH   1  14
ATOM     14  C   UNL     1      -0.989  11.317  21.040  0.00  0.00    +0.000 A 
ATOM     15  C   UNL     1      -0.573  10.100  20.469  0.00  0.00    +0.000 A 
ATOM     16  C   UNL     1      -0.144   9.014  21.246  0.00  0.00    +0.000 A 
ATOM     17  C   UNL     1      -0.167   9.090  22.630  0.00  0.00    +0.000 A 
ATOM     18  C   UNL     1      -0.605  10.259  23.236  0.00  0.00    +0.000 A 
ATOM     19  C   UNL     1      -0.992  11.357  22.454  0.00  0.00    +0.000 A 
ENDBRANCH   1  14
BRANCH   1  21
ATOM     20  N   UNL     1      -3.399  11.955  18.572  0.00  0.00    +0.000 N 
ATOM     21  C   UNL     1      -2.065  12.274  18.742  0.00  0.00    +0.000 C 
ATOM     22  O   UNL     1      -1.328  12.263  17.746  0.00  0.00    +0.000 OA
ATOM     23  H   UNL     1      -3.913  11.586  19.370  0.00  0.00    +0.000 HD
BRANCH  20  24
ATOM     24  C   UNL     1      -4.027  11.783  17.244  0.00  0.00    +0.000 C 
BRANCH  24  25
ATOM     25  C   UNL     1      -3.744  10.354  16.748  0.00  0.00    +0.000 C 
ATOM     26  O   UNL     1      -3.292   9.458  17.455  0.00  0.00    +0.000 OA
BRANCH  25  28
ATOM     27  C   UNL     1      -2.911  10.059  14.553  0.00  0.00    +0.000 C 
ATOM     28  O   UNL     1      -4.038  10.216  15.421  0.00  0.00    +0.000 OA
ENDBRANCH  25  28
ENDBRANCH  24  25
BRANCH  24  29
ATOM     29  C   UNL     1      -5.550  12.098  17.207  0.00  0.00    +0.000 C 
BRANCH  29  30
ATOM     30  C   UNL     1      -6.302  11.825  18.492  0.00  0.00    +0.000 A 
ATOM     31  C   UNL     1      -6.655  12.882  19.334  0.00  0.00    +0.000 A 
ATOM     32  C   UNL     1      -7.252  12.664  20.575  0.00  0.00    +0.000 A 
ATOM     33  C   UNL     1      -7.532  11.368  20.984  0.00  0.00    +0.000 A 
ATOM     34  C   UNL     1      -7.248  10.303  20.135  0.00  0.00    +0.000 A 
ATOM     35  C   UNL     1      -6.649  10.533  18.893  0.00  0.00    +0.000 A 
ENDBRANCH  29  30
ENDBRANCH  24  29
ENDBRANCH  20  24
ENDBRANCH   1  21
TORSDOF 9
ENDMDL
MODEL 6
REMARK VINA RESULT:      -6.8      3.842      6.643
REMARK  Name = 
REMARK  10 active torsions:
REMARK  status: ('A' for Active; 'I' for Inactive)
REMARK    1  A    between atoms: C_1  and  O_2
REMARK    2  A    between atoms: O_2  and  C_3
REMARK    3  A    between atoms: C_3  and  C_5
REMARK    4  A    between atoms: C_5  and  C_6
REMARK    5  A    between atoms: C_5  and  N_13
REMARK    6  A    between atoms: C_6  and  C_7
REMARK    7  A    between atoms: C_14  and  C_16
REMARK    8  A    between atoms: C_16  and  C_17
REMARK    9  A    between atoms: C_16  and  C_23
REMARK   10  A    between atoms: C_16  and  C_29
REMARK                            x       y       z     vdW  Elec       q    Type
REMARK                         _______ _______ _______ _____ _____    ______ ____
ROOT
ATOM      1  C   UNL     1      -0.359  10.826  19.059  0.00  0.00    +0.000 C 
ENDROOT
BRANCH   1   2
ATOM      2  C   UNL     1      -0.402  10.458  20.591  0.00  0.00    +0.000 A 
ATOM      3  C   UNL     1      -0.408   9.109  21.013  0.00  0.00    +0.000 A 
ATOM      4  C   UNL     1      -0.469   8.759  22.363  0.00  0.00    +0.000 A 
ATOM      5  C   UNL     1      -0.609   9.748  23.326  0.00  0.00    +0.000 A 
ATOM      6  C   UNL     1      -0.679  11.083  22.936  0.00  0.00    +0.000 A 
ATOM      7  C   UNL     1      -0.571  11.439  21.585  0.00  0.00    +0.000 A 
ENDBRANCH   1   2
BRANCH   1   8
ATOM      8  C   UNL     1       0.545  12.107  18.766  0.00  0.00    +0.000 A 
ATOM      9  C   UNL     1       1.908  11.977  18.452  0.00  0.00    +0.000 A 
ATOM     10  C   UNL     1       2.744  13.079  18.256  0.00  0.00    +0.000 A 
ATOM     11  C   UNL     1       2.231  14.362  18.368  0.00  0.00    +0.000 A 
ATOM     12  C   UNL     1       0.876  14.534  18.628  0.00  0.00    +0.000 A 
ATOM     13  C   UNL     1       0.037  13.423  18.790  0.00  0.00    +0.000 A 
ENDBRANCH   1   8
BRANCH   1  14
ATOM     14  C   UNL     1      -1.792  11.160  18.478  0.00  0.00    +0.000 A 
ATOM     15  C   UNL     1      -2.884  11.625  19.234  0.00  0.00    +0.000 A 
ATOM     16  C   UNL     1      -4.135  11.893  18.659  0.00  0.00    +0.000 A 
ATOM     17  C   UNL     1      -4.354  11.652  17.312  0.00  0.00    +0.000 A 
ATOM     18  C   UNL     1      -3.315  11.157  16.536  0.00  0.00    +0.000 A 
ATOM     19  C   UNL     1      -2.053  10.932  17.106  0.00  0.00    +0.000 A 
ENDBRANCH   1  14
BRANCH   1  21
ATOM     20  N   UNL     1       1.391   8.905  19.118  0.00  0.00    +0.000 N 
ATOM     21  C   UNL     1       0.371   9.525  18.423  0.00  0.00    +0.000 C 
ATOM     22  O   UNL     1       0.081   9.094  17.298  0.00  0.00    +0.000 OA
ATOM     23  H   UNL     1       1.893   9.443  19.822  0.00  0.00    +0.000 HD
BRANCH  20  24
ATOM     24  C   UNL     1       2.028   7.647  18.671  0.00  0.00    +0.000 C 
BRANCH  24  25
ATOM     25  C   UNL     1       3.229   7.995  17.774  0.00  0.00    +0.000 C 
ATOM     26  O   UNL     1       3.303   9.013  17.090  0.00  0.00    +0.000 OA
BRANCH  25  28
ATOM     27  C   UNL     1       4.908   6.812  16.599  0.00  0.00    +0.000 C 
ATOM     28  O   UNL     1       4.187   7.024  17.818  0.00  0.00    +0.000 OA
ENDBRANCH  25  28
ENDBRANCH  24  25
BRANCH  24  29
ATOM     29  C   UNL     1       2.448   6.692  19.825  0.00  0.00    +0.000 C 
BRANCH  29  30
ATOM     30  C   UNL     1       1.973   5.261  19.691  0.00  0.00    +0.000 A 
ATOM     31  C   UNL     1       1.876   4.672  18.429  0.00  0.00    +0.000 A 
ATOM     32  C   UNL     1       1.342   3.396  18.253  0.00  0.00    +0.000 A 
ATOM     33  C   UNL     1       0.916   2.672  19.357  0.00  0.00    +0.000 A 
ATOM     34  C   UNL     1       1.061   3.213  20.631  0.00  0.00    +0.000 A 
ATOM     35  C   UNL     1       1.598   4.493  20.796  0.00  0.00    +0.000 A 
ENDBRANCH  29  30
ENDBRANCH  24  29
ENDBRANCH  20  24
ENDBRANCH   1  21
TORSDOF 9
ENDMDL
MODEL 7
REMARK VINA RESULT:      -6.7      1.966      5.001
REMARK  Name = 
REMARK  10 active torsions:
REMARK  status: ('A' for Active; 'I' for Inactive)
REMARK    1  A    between atoms: C_1  and  O_2
REMARK    2  A    between atoms: O_2  and  C_3
REMARK    3  A    between atoms: C_3  and  C_5
REMARK    4  A    between atoms: C_5  and  C_6
REMARK    5  A    between atoms: C_5  and  N_13
REMARK    6  A    between atoms: C_6  and  C_7
REMARK    7  A    between atoms: C_14  and  C_16
REMARK    8  A    between atoms: C_16  and  C_17
REMARK    9  A    between atoms: C_16  and  C_23
REMARK   10  A    between atoms: C_16  and  C_29
REMARK                            x       y       z     vdW  Elec       q    Type
REMARK                         _______ _______ _______ _____ _____    ______ ____
ROOT
ATOM      1  C   UNL     1      -1.667  12.579  21.166  0.00  0.00    +0.000 C 
ENDROOT
BRANCH   1   2
ATOM      2  C   UNL     1      -0.706  13.623  20.480  0.00  0.00    +0.000 A 
ATOM      3  C   UNL     1       0.699  13.483  20.568  0.00  0.00    +0.000 A 
ATOM      4  C   UNL     1       1.571  14.406  19.989  0.00  0.00    +0.000 A 
ATOM      5  C   UNL     1       1.062  15.542  19.374  0.00  0.00    +0.000 A 
ATOM      6  C   UNL     1      -0.315  15.745  19.334  0.00  0.00    +0.000 A 
ATOM      7  C   UNL     1      -1.193  14.795  19.874  0.00  0.00    +0.000 A 
ENDBRANCH   1   2
BRANCH   1   8
ATOM      8  C   UNL     1      -2.252  13.111  22.552  0.00  0.00    +0.000 A 
ATOM      9  C   UNL     1      -3.368  12.501  23.149  0.00  0.00    +0.000 A 
ATOM     10  C   UNL     1      -3.946  12.981  24.327  0.00  0.00    +0.000 A 
ATOM     11  C   UNL     1      -3.416  14.100  24.950  0.00  0.00    +0.000 A 
ATOM     12  C   UNL     1      -2.282  14.703  24.418  0.00  0.00    +0.000 A 
ATOM     13  C   UNL     1      -1.686  14.195  23.256  0.00  0.00    +0.000 A 
ENDBRANCH   1   8
BRANCH   1  14
ATOM     14  C   UNL     1      -0.938  11.214  21.494  0.00  0.00    +0.000 A 
ATOM     15  C   UNL     1      -0.704  10.711  22.787  0.00  0.00    +0.000 A 
ATOM     16  C   UNL     1      -0.041   9.496  23.010  0.00  0.00    +0.000 A 
ATOM     17  C   UNL     1       0.461   8.764  21.945  0.00  0.00    +0.000 A 
ATOM     18  C   UNL     1       0.285   9.242  20.654  0.00  0.00    +0.000 A 
ATOM     19  C   UNL     1      -0.417  10.436  20.433  0.00  0.00    +0.000 A 
ENDBRANCH   1  14
BRANCH   1  21
ATOM     20  N   UNL     1      -4.172  12.770  20.500  0.00  0.00    +0.000 N 
ATOM     21  C   UNL     1      -2.881  12.489  20.096  0.00  0.00    +0.000 C 
ATOM     22  O   UNL     1      -2.700  12.119  18.926  0.00  0.00    +0.000 OA
ATOM     23  H   UNL     1      -4.396  12.693  21.491  0.00  0.00    +0.000 HD
BRANCH  20  24
ATOM     24  C   UNL     1      -5.318  12.830  19.567  0.00  0.00    +0.000 C 
BRANCH  24  25
ATOM     25  C   UNL     1      -6.036  11.469  19.582  0.00  0.00    +0.000 C 
ATOM     26  O   UNL     1      -6.179  10.757  18.592  0.00  0.00    +0.000 OA
BRANCH  25  28
ATOM     27  C   UNL     1      -7.855  10.675  20.870  0.00  0.00    +0.000 C 
ATOM     28  O   UNL     1      -6.511  11.165  20.826  0.00  0.00    +0.000 OA
ENDBRANCH  25  28
ENDBRANCH  24  25
BRANCH  24  29
ATOM     29  C   UNL     1      -6.314  13.993  19.843  0.00  0.00    +0.000 C 
BRANCH  29  30
ATOM     30  C   UNL     1      -6.158  14.677  21.185  0.00  0.00    +0.000 A 
ATOM     31  C   UNL     1      -6.972  14.306  22.257  0.00  0.00    +0.000 A 
ATOM     32  C   UNL     1      -6.935  14.982  23.476  0.00  0.00    +0.000 A 
ATOM     33  C   UNL     1      -6.050  16.038  23.649  0.00  0.00    +0.000 A 
ATOM     34  C   UNL     1      -5.184  16.384  22.616  0.00  0.00    +0.000 A 
ATOM     35  C   UNL     1      -5.230  15.699  21.398  0.00  0.00    +0.000 A 
ENDBRANCH  29  30
ENDBRANCH  24  29
ENDBRANCH  20  24
ENDBRANCH   1  21
TORSDOF 9
ENDMDL
MODEL 8
REMARK VINA RESULT:      -6.7      2.425      7.041
REMARK  Name = 
REMARK  10 active torsions:
REMARK  status: ('A' for Active; 'I' for Inactive)
REMARK    1  A    between atoms: C_1  and  O_2
REMARK    2  A    between atoms: O_2  and  C_3
REMARK    3  A    between atoms: C_3  and  C_5
REMARK    4  A    between atoms: C_5  and  C_6
REMARK    5  A    between atoms: C_5  and  N_13
REMARK    6  A    between atoms: C_6  and  C_7
REMARK    7  A    between atoms: C_14  and  C_16
REMARK    8  A    between atoms: C_16  and  C_17
REMARK    9  A    between atoms: C_16  and  C_23
REMARK   10  A    between atoms: C_16  and  C_29
REMARK                            x       y       z     vdW  Elec       q    Type
REMARK                         _______ _______ _______ _____ _____    ______ ____
ROOT
ATOM      1  C   UNL     1      -5.353  12.255  19.257  0.00  0.00    +0.000 C 
ENDROOT
BRANCH   1   2
ATOM      2  C   UNL     1      -6.167  13.464  18.657  0.00  0.00    +0.000 A 
ATOM      3  C   UNL     1      -6.790  14.410  19.502  0.00  0.00    +0.000 A 
ATOM      4  C   UNL     1      -7.535  15.476  18.995  0.00  0.00    +0.000 A 
ATOM      5  C   UNL     1      -7.746  15.580  17.628  0.00  0.00    +0.000 A 
ATOM      6  C   UNL     1      -7.205  14.623  16.773  0.00  0.00    +0.000 A 
ATOM      7  C   UNL     1      -6.418  13.578  17.277  0.00  0.00    +0.000 A 
ENDBRANCH   1   2
BRANCH   1   8
ATOM      8  C   UNL     1      -4.371  11.594  18.188  0.00  0.00    +0.000 A 
ATOM      9  C   UNL     1      -3.096  11.135  18.561  0.00  0.00    +0.000 A 
ATOM     10  C   UNL     1      -2.185  10.612  17.640  0.00  0.00    +0.000 A 
ATOM     11  C   UNL     1      -2.530  10.530  16.300  0.00  0.00    +0.000 A 
ATOM     12  C   UNL     1      -3.800  10.926  15.897  0.00  0.00    +0.000 A 
ATOM     13  C   UNL     1      -4.720  11.418  16.833  0.00  0.00    +0.000 A 
ENDBRANCH   1   8
BRANCH   1  14
ATOM     14  C   UNL     1      -6.293  11.090  19.767  0.00  0.00    +0.000 A 
ATOM     15  C   UNL     1      -7.110  11.151  20.911  0.00  0.00    +0.000 A 
ATOM     16  C   UNL     1      -7.915  10.076  21.316  0.00  0.00    +0.000 A 
ATOM     17  C   UNL     1      -7.888   8.878  20.619  0.00  0.00    +0.000 A 
ATOM     18  C   UNL     1      -7.067   8.762  19.505  0.00  0.00    +0.000 A 
ATOM     19  C   UNL     1      -6.298   9.854  19.078  0.00  0.00    +0.000 A 
ENDBRANCH   1  14
BRANCH   1  21
ATOM     20  N   UNL     1      -4.218  12.343  21.594  0.00  0.00    +0.000 N 
ATOM     21  C   UNL     1      -4.459  12.986  20.394  0.00  0.00    +0.000 C 
ATOM     22  O   UNL     1      -4.021  14.136  20.248  0.00  0.00    +0.000 OA
ATOM     23  H   UNL     1      -4.860  11.606  21.884  0.00  0.00    +0.000 HD
BRANCH  20  24
ATOM     24  C   UNL     1      -3.317  12.881  22.636  0.00  0.00    +0.000 C 
BRANCH  24  25
ATOM     25  C   UNL     1      -4.134  13.117  23.919  0.00  0.00    +0.000 C 
ATOM     26  O   UNL     1      -4.660  12.221  24.572  0.00  0.00    +0.000 OA
BRANCH  25  28
ATOM     27  C   UNL     1      -3.335  15.303  23.491  0.00  0.00    +0.000 C 
ATOM     28  O   UNL     1      -4.216  14.446  24.224  0.00  0.00    +0.000 OA
ENDBRANCH  25  28
ENDBRANCH  24  25
BRANCH  24  29
ATOM     29  C   UNL     1      -2.065  12.003  22.920  0.00  0.00    +0.000 C 
BRANCH  29  30
ATOM     30  C   UNL     1      -1.133  11.800  21.745  0.00  0.00    +0.000 A 
ATOM     31  C   UNL     1      -0.664  10.521  21.437  0.00  0.00    +0.000 A 
ATOM     32  C   UNL     1       0.278  10.306  20.432  0.00  0.00    +0.000 A 
ATOM     33  C   UNL     1       0.751  11.382  19.694  0.00  0.00    +0.000 A 
ATOM     34  C   UNL     1       0.252  12.657  19.940  0.00  0.00    +0.000 A 
ATOM     35  C   UNL     1      -0.693  12.861  20.950  0.00  0.00    +0.000 A 
ENDBRANCH  29  30
ENDBRANCH  24  29
ENDBRANCH  20  24
ENDBRANCH   1  21
TORSDOF 9
ENDMDL
MODEL 9
REMARK VINA RESULT:      -6.7      0.976      4.090
REMARK  Name = 
REMARK  10 active torsions:
REMARK  status: ('A' for Active; 'I' for Inactive)
REMARK    1  A    between atoms: C_1  and  O_2
REMARK    2  A    between atoms: O_2  and  C_3
REMARK    3  A    between atoms: C_3  and  C_5
REMARK    4  A    between atoms: C_5  and  C_6
REMARK    5  A    between atoms: C_5  and  N_13
REMARK    6  A    between atoms: C_6  and  C_7
REMARK    7  A    between atoms: C_14  and  C_16
REMARK    8  A    between atoms: C_16  and  C_17
REMARK    9  A    between atoms: C_16  and  C_23
REMARK   10  A    between atoms: C_16  and  C_29
REMARK                            x       y       z     vdW  Elec       q    Type
REMARK                         _______ _______ _______ _____ _____    ______ ____
ROOT
ATOM      1  C   UNL     1      -1.141  12.441  20.691  0.00  0.00    +0.000 C 
ENDROOT
BRANCH   1   2
ATOM      2  C   UNL     1      -2.456  12.840  21.461  0.00  0.00    +0.000 A 
ATOM      3  C   UNL     1      -3.318  13.840  20.956  0.00  0.00    +0.000 A 
ATOM      4  C   UNL     1      -4.477  14.227  21.631  0.00  0.00    +0.000 A 
ATOM      5  C   UNL     1      -4.765  13.680  22.874  0.00  0.00    +0.000 A 
ATOM      6  C   UNL     1      -3.897  12.744  23.432  0.00  0.00    +0.000 A 
ATOM      7  C   UNL     1      -2.758  12.321  22.734  0.00  0.00    +0.000 A 
ENDBRANCH   1   2
BRANCH   1   8
ATOM      8  C   UNL     1      -0.533  11.057  21.201  0.00  0.00    +0.000 A 
ATOM      9  C   UNL     1      -0.519  10.731  22.568  0.00  0.00    +0.000 A 
ATOM     10  C   UNL     1       0.064   9.559  23.055  0.00  0.00    +0.000 A 
ATOM     11  C   UNL     1       0.657   8.666  22.177  0.00  0.00    +0.000 A 
ATOM     12  C   UNL     1       0.620   8.927  20.812  0.00  0.00    +0.000 A 
ATOM     13  C   UNL     1       0.003  10.088  20.327  0.00  0.00    +0.000 A 
ENDBRANCH   1   8
BRANCH   1  14
ATOM     14  C   UNL     1       0.009  13.514  20.866  0.00  0.00    +0.000 A 
ATOM     15  C   UNL     1       1.379  13.275  20.652  0.00  0.00    +0.000 A 
ATOM     16  C   UNL     1       2.351  14.269  20.835  0.00  0.00    +0.000 A 
ATOM     17  C   UNL     1       1.991  15.527  21.295  0.00  0.00    +0.000 A 
ATOM     18  C   UNL     1       0.654  15.794  21.555  0.00  0.00    +0.000 A 
ATOM     19  C   UNL     1      -0.319  14.811  21.328  0.00  0.00    +0.000 A 
ENDBRANCH   1  14
BRANCH   1  21
ATOM     20  N   UNL     1      -2.698  11.328  18.932  0.00  0.00    +0.000 N 
ATOM     21  C   UNL     1      -1.687  12.237  19.178  0.00  0.00    +0.000 C 
ATOM     22  O   UNL     1      -1.187  12.834  18.213  0.00  0.00    +0.000 OA
ATOM     23  H   UNL     1      -2.845  10.577  19.604  0.00  0.00    +0.000 HD
BRANCH  20  24
ATOM     24  C   UNL     1      -3.337  11.166  17.608  0.00  0.00    +0.000 C 
BRANCH  24  25
ATOM     25  C   UNL     1      -2.552  10.111  16.809  0.00  0.00    +0.000 C 
ATOM     26  O   UNL     1      -1.400   9.772  17.066  0.00  0.00    +0.000 OA
BRANCH  25  28
ATOM     27  C   UNL     1      -2.978  10.160  14.482  0.00  0.00    +0.000 C 
ATOM     28  O   UNL     1      -3.288   9.618  15.770  0.00  0.00    +0.000 OA
ENDBRANCH  25  28
ENDBRANCH  24  25
BRANCH  24  29
ATOM     29  C   UNL     1      -4.852  10.817  17.663  0.00  0.00    +0.000 C 
BRANCH  29  30
ATOM     30  C   UNL     1      -5.714  11.783  18.448  0.00  0.00    +0.000 A 
ATOM     31  C   UNL     1      -6.312  11.375  19.642  0.00  0.00    +0.000 A 
ATOM     32  C   UNL     1      -7.197  12.196  20.339  0.00  0.00    +0.000 A 
ATOM     33  C   UNL     1      -7.480  13.466  19.855  0.00  0.00    +0.000 A 
ATOM     34  C   UNL     1      -6.847  13.918  18.701  0.00  0.00    +0.000 A 
ATOM     35  C   UNL     1      -5.961  13.086  18.011  0.00  0.00    +0.000 A 
ENDBRANCH  29  30
ENDBRANCH  24  29
ENDBRANCH  20  24
ENDBRANCH   1  21
TORSDOF 9
ENDMDL
