MODEL 1
REMARK VINA RESULT:      -7.1      0.000      0.000
REMARK  Name = 
REMARK  10 active torsions:
REMARK  status: ('A' for Active; 'I' for Inactive)
REMARK    1  A    between atoms: C_1  and  C_2
REMARK    2  A    between atoms: C_2  and  C_3
REMARK    3  A    between atoms: N_9  and  S_10
REMARK    4  A    between atoms: S_10  and  C_13
REMARK    5  A    between atoms: C_15  and  C_16
REMARK    6  A    between atoms: C_17  and  C_18
REMARK    7  A    between atoms: C_18  and  C_19
REMARK    8  A    between atoms: C_19  and  O_20
REMARK    9  A    between atoms: C_23  and  O_24
REMARK   10  A    between atoms: O_24  and  C_25
REMARK                            x       y       z     vdW  Elec       q    Type
REMARK                         _______ _______ _______ _____ _____    ______ ____
ROOT
ATOM      1  C   UNL     1       2.445   5.155  19.837  0.00  0.00    +0.000 A 
ATOM      2  N   UNL     1       2.163   6.422  19.350  0.00  0.00    +0.000 NA
ATOM      3  C   UNL     1       3.005   6.753  18.424  0.00  0.00    +0.000 A 
ATOM      4  N   UNL     1       3.005   7.916  17.709  0.00  0.00    +0.000 N 
ATOM      5  C   UNL     1       2.207   8.983  18.048  0.00  0.00    +0.000 C 
ATOM      6  O   UNL     1       2.256   9.992  17.351  0.00  0.00    +0.000 OA
ATOM      7  N   UNL     1       1.381   8.896  19.158  0.00  0.00    +0.000 N 
ATOM      8  S   UNL     1       4.267   5.660  18.130  0.00  0.00    +0.000 S 
ATOM      9  C   UNL     1       3.635   4.605  19.363  0.00  0.00    +0.000 A 
ATOM     10  H   UNL     1       3.615   8.032  16.929  0.00  0.00    +0.000 HD
ATOM     11  H   UNL     1       1.422   8.062  19.744  0.00  0.00    +0.000 HD
ENDROOT
BRANCH   7  12
ATOM     12  S   UNL     1       0.504  10.151  19.769  0.00  0.00    +0.000 S 
ATOM     13  O   UNL     1       0.023   9.736  21.074  0.00  0.00    +0.000 OA
ATOM     14  O   UNL     1       1.287  11.363  19.633  0.00  0.00    +0.000 OA
BRANCH  12  15
ATOM     15  C   UNL     1      -0.958  10.449  18.798  0.00  0.00    +0.000 A 
ATOM     16  C   UNL     1      -1.281   9.986  17.543  0.00  0.00    +0.000 A 
ATOM     17  C   UNL     1      -2.515  10.496  17.034  0.00  0.00    +0.000 A 
ATOM     18  C   UNL     1      -3.010  10.111  15.675  0.00  0.00    +0.000 C 
ATOM     19  C   UNL     1      -3.121  11.345  17.956  0.00  0.00    +0.000 A 
ATOM     20  S   UNL     1      -2.172  11.481  19.401  0.00  0.00    +0.000 S 
BRANCH  19  21
ATOM     21  C   UNL     1      -4.448  12.075  17.867  0.00  0.00    +0.000 C 
BRANCH  21  22
ATOM     22  C   UNL     1      -5.671  11.198  18.151  0.00  0.00    +0.000 C 
BRANCH  22  23
ATOM     23  O   UNL     1      -6.799  11.582  17.373  0.00  0.00    +0.000 OA
ATOM     24  H   UNL     1      -6.468  12.192  16.690  0.00  0.00    +0.000 HD
ENDBRANCH  22  23
ENDBRANCH  21  22
ENDBRANCH  19  21
ENDBRANCH  12  15
ENDBRANCH   7  12
BRANCH   1  26
ATOM     25  C   UNL     1       0.774   3.300  20.223  0.00  0.00    +0.000 C 
ATOM     26  C   UNL     1       1.435   4.563  20.776  0.00  0.00    +0.000 C 
ENDBRANCH   1  26
BRANCH   9  27
ATOM     27  O   UNL     1       4.305   3.471  19.611  0.00  0.00    +0.000 OA
ATOM     28  C   UNL     1       3.952   2.317  18.860  0.00  0.00    +0.000 C 
ENDBRANCH   9  27
TORSDOF 7
ENDMDL
MODEL 2
REMARK VINA RESULT:      -6.9      3.605      6.023
REMARK  Name = 
REMARK  10 active torsions:
REMARK  status: ('A' for Active; 'I' for Inactive)
REMARK    1  A    between atoms: C_1  and  C_2
REMARK    2  A    between atoms: C_2  and  C_3
REMARK    3  A    between atoms: N_9  and  S_10
REMARK    4  A    between atoms: S_10  and  C_13
REMARK    5  A    between atoms: C_15  and  C_16
REMARK    6  A    between atoms: C_17  and  C_18
REMARK    7  A    between atoms: C_18  and  C_19
REMARK    8  A    between atoms: C_19  and  O_20
REMARK    9  A    between atoms: C_23  and  O_24
REMARK   10  A    between atoms: O_24  and  C_25
REMARK                            x       y       z     vdW  Elec       q    Type
REMARK                         _______ _______ _______ _____ _____    ______ ____
ROOT
ATOM      1  C   UNL     1       6.538   5.739  16.728  0.00  0.00    +0.000 A 
ATOM      2  N   UNL     1       5.572   4.984  17.375  0.00  0.00    +0.000 NA
ATOM      3  C   UNL     1       5.379   3.863  16.758  0.00  0.00    +0.000 A 
ATOM      4  N   UNL     1       4.522   2.870  17.134  0.00  0.00    +0.000 N 
ATOM      5  C   UNL     1       3.591   3.046  18.130  0.00  0.00    +0.000 C 
ATOM      6  O   UNL     1       2.860   2.103  18.418  0.00  0.00    +0.000 OA
ATOM      7  N   UNL     1       3.496   4.270  18.772  0.00  0.00    +0.000 N 
ATOM      8  S   UNL     1       6.225   3.650  15.304  0.00  0.00    +0.000 S 
ATOM      9  C   UNL     1       6.951   5.220  15.502  0.00  0.00    +0.000 A 
ATOM     10  H   UNL     1       4.530   1.988  16.668  0.00  0.00    +0.000 HD
ATOM     11  H   UNL     1       4.080   5.044  18.454  0.00  0.00    +0.000 HD
ENDROOT
BRANCH   7  12
ATOM     12  S   UNL     1       2.322   4.667  19.859  0.00  0.00    +0.000 S 
ATOM     13  O   UNL     1       1.089   4.061  19.391  0.00  0.00    +0.000 OA
ATOM     14  O   UNL     1       2.817   4.376  21.190  0.00  0.00    +0.000 OA
BRANCH  12  15
ATOM     15  C   UNL     1       2.015   6.420  19.866  0.00  0.00    +0.000 A 
ATOM     16  C   UNL     1       1.628   7.234  20.906  0.00  0.00    +0.000 A 
ATOM     17  C   UNL     1       1.397   8.593  20.527  0.00  0.00    +0.000 A 
ATOM     18  C   UNL     1       0.951   9.611  21.529  0.00  0.00    +0.000 C 
ATOM     19  C   UNL     1       1.640   8.779  19.169  0.00  0.00    +0.000 A 
ATOM     20  S   UNL     1       2.146   7.303  18.414  0.00  0.00    +0.000 S 
BRANCH  19  21
ATOM     21  C   UNL     1       1.566  10.049  18.343  0.00  0.00    +0.000 C 
BRANCH  21  22
ATOM     22  C   UNL     1       0.227  10.787  18.435  0.00  0.00    +0.000 C 
BRANCH  22  23
ATOM     23  O   UNL     1      -0.711  10.317  17.474  0.00  0.00    +0.000 OA
ATOM     24  H   UNL     1      -0.316  10.480  16.599  0.00  0.00    +0.000 HD
ENDBRANCH  22  23
ENDBRANCH  21  22
ENDBRANCH  19  21
ENDBRANCH  12  15
ENDBRANCH   7  12
BRANCH   1  26
ATOM     25  C   UNL     1       7.939   6.674  18.612  0.00  0.00    +0.000 C 
ATOM     26  C   UNL     1       7.005   6.975  17.439  0.00  0.00    +0.000 C 
ENDBRANCH   1  26
BRANCH   9  27
ATOM     27  O   UNL     1       7.789   5.640  14.543  0.00  0.00    +0.000 OA
ATOM     28  C   UNL     1       7.645   5.078  13.246  0.00  0.00    +0.000 C 
ENDBRANCH   9  27
TORSDOF 7
ENDMDL
MODEL 3
REMARK VINA RESULT:      -6.9      4.287      6.092
REMARK  Name = 
REMARK  10 active torsions:
REMARK  status: ('A' for Active; 'I' for Inactive)
REMARK    1  A    between atoms: C_1  and  C_2
REMARK    2  A    between atoms: C_2  and  C_3
REMARK    3  A    between atoms: N_9  and  S_10
REMARK    4  A    between atoms: S_10  and  C_13
REMARK    5  A    between atoms: C_15  and  C_16
REMARK    6  A    between atoms: C_17  and  C_18
REMARK    7  A    between atoms: C_18  and  C_19
REMARK    8  A    between atoms: C_19  and  O_20
REMARK    9  A    between atoms: C_23  and  O_24
REMARK   10  A    between atoms: O_24  and  C_25
REMARK                            x       y       z     vdW  Elec       q    Type
REMARK                         _______ _______ _______ _____ _____    ______ ____
ROOT
ATOM      1  C   UNL     1       6.674   5.709  16.655  0.00  0.00    +0.000 A 
ATOM      2  N   UNL     1       5.651   4.991  17.255  0.00  0.00    +0.000 NA
ATOM      3  C   UNL     1       5.376   3.928  16.569  0.00  0.00    +0.000 A 
ATOM      4  N   UNL     1       4.445   2.981  16.883  0.00  0.00    +0.000 N 
ATOM      5  C   UNL     1       3.525   3.165  17.888  0.00  0.00    +0.000 C 
ATOM      6  O   UNL     1       2.724   2.264  18.117  0.00  0.00    +0.000 OA
ATOM      7  N   UNL     1       3.520   4.351  18.605  0.00  0.00    +0.000 N 
ATOM      8  S   UNL     1       6.210   3.742  15.104  0.00  0.00    +0.000 S 
ATOM      9  C   UNL     1       7.052   5.238  15.399  0.00  0.00    +0.000 A 
ATOM     10  H   UNL     1       4.389   2.132  16.363  0.00  0.00    +0.000 HD
ATOM     11  H   UNL     1       4.162   5.097  18.335  0.00  0.00    +0.000 HD
ENDROOT
BRANCH   7  12
ATOM     12  S   UNL     1       2.375   4.766  19.714  0.00  0.00    +0.000 S 
ATOM     13  O   UNL     1       1.154   4.075  19.343  0.00  0.00    +0.000 OA
ATOM     14  O   UNL     1       2.938   4.591  21.038  0.00  0.00    +0.000 OA
BRANCH  12  15
ATOM     15  C   UNL     1       1.983   6.500  19.618  0.00  0.00    +0.000 A 
ATOM     16  C   UNL     1       2.266   7.404  18.619  0.00  0.00    +0.000 A 
ATOM     17  C   UNL     1       1.866   8.744  18.915  0.00  0.00    +0.000 A 
ATOM     18  C   UNL     1       2.115   9.859  17.948  0.00  0.00    +0.000 C 
ATOM     19  C   UNL     1       1.256   8.816  20.165  0.00  0.00    +0.000 A 
ATOM     20  S   UNL     1       1.186   7.257  20.920  0.00  0.00    +0.000 S 
BRANCH  19  21
ATOM     21  C   UNL     1       0.643  10.012  20.870  0.00  0.00    +0.000 C 
BRANCH  21  22
ATOM     22  C   UNL     1      -0.248   9.653  22.063  0.00  0.00    +0.000 C 
BRANCH  22  23
ATOM     23  O   UNL     1       0.331  10.046  23.302  0.00  0.00    +0.000 OA
ATOM     24  H   UNL     1       1.293   9.926  23.208  0.00  0.00    +0.000 HD
ENDBRANCH  22  23
ENDBRANCH  21  22
ENDBRANCH  19  21
ENDBRANCH  12  15
ENDBRANCH   7  12
BRANCH   1  26
ATOM     25  C   UNL     1       7.887   6.427  18.753  0.00  0.00    +0.000 C 
ATOM     26  C   UNL     1       7.229   6.860  17.442  0.00  0.00    +0.000 C 
ENDBRANCH   1  26
BRANCH   9  27
ATOM     27  O   UNL     1       7.924   5.652  14.468  0.00  0.00    +0.000 OA
ATOM     28  C   UNL     1       7.744   5.183  13.139  0.00  0.00    +0.000 C 
ENDBRANCH   9  27
TORSDOF 7
ENDMDL
MODEL 4
REMARK VINA RESULT:      -6.7      2.932      8.736
REMARK  Name = 
REMARK  10 active torsions:
REMARK  status: ('A' for Active; 'I' for Inactive)
REMARK    1  A    between atoms: C_1  and  C_2
REMARK    2  A    between atoms: C_2  and  C_3
REMARK    3  A    between atoms: N_9  and  S_10
REMARK    4  A    between atoms: S_10  and  C_13
REMARK    5  A    between atoms: C_15  and  C_16
REMARK    6  A    between atoms: C_17  and  C_18
REMARK    7  A    between atoms: C_18  and  C_19
REMARK    8  A    between atoms: C_19  and  O_20
REMARK    9  A    between atoms: C_23  and  O_24
REMARK   10  A    between atoms: O_24  and  C_25
REMARK                            x       y       z     vdW  Elec       q    Type
REMARK                         _______ _______ _______ _____ _____    ______ ____
ROOT
ATOM      1  C   UNL     1       0.758   9.493  19.312  0.00  0.00    +0.000 A 
ATOM      2  N   UNL     1       1.018   8.158  19.584  0.00  0.00    +0.000 NA
ATOM      3  C   UNL     1       1.332   7.998  20.829  0.00  0.00    +0.000 A 
ATOM      4  N   UNL     1       1.620   6.814  21.445  0.00  0.00    +0.000 N 
ATOM      5  C   UNL     1       1.814   5.651  20.739  0.00  0.00    +0.000 C 
ATOM      6  O   UNL     1       2.061   4.625  21.364  0.00  0.00    +0.000 OA
ATOM      7  N   UNL     1       1.733   5.667  19.356  0.00  0.00    +0.000 N 
ATOM      8  S   UNL     1       1.464   9.410  21.759  0.00  0.00    +0.000 S 
ATOM      9  C   UNL     1       1.049  10.363  20.361  0.00  0.00    +0.000 A 
ATOM     10  H   UNL     1       1.728   6.771  22.435  0.00  0.00    +0.000 HD
ATOM     11  H   UNL     1       1.590   6.556  18.876  0.00  0.00    +0.000 HD
ENDROOT
BRANCH   7  12
ATOM     12  S   UNL     1       2.106   4.389  18.384  0.00  0.00    +0.000 S 
ATOM     13  O   UNL     1       2.041   3.196  19.208  0.00  0.00    +0.000 OA
ATOM     14  O   UNL     1       1.308   4.485  17.178  0.00  0.00    +0.000 OA
BRANCH  12  15
ATOM     15  C   UNL     1       3.791   4.481  17.817  0.00  0.00    +0.000 A 
ATOM     16  C   UNL     1       4.303   4.248  16.561  0.00  0.00    +0.000 A 
ATOM     17  C   UNL     1       5.727   4.339  16.486  0.00  0.00    +0.000 A 
ATOM     18  C   UNL     1       6.452   4.096  15.199  0.00  0.00    +0.000 C 
ATOM     19  C   UNL     1       6.271   4.666  17.725  0.00  0.00    +0.000 A 
ATOM     20  S   UNL     1       5.032   4.857  18.923  0.00  0.00    +0.000 S 
BRANCH  19  21
ATOM     21  C   UNL     1       7.719   4.907  18.109  0.00  0.00    +0.000 C 
BRANCH  21  22
ATOM     22  C   UNL     1       7.919   5.994  19.169  0.00  0.00    +0.000 C 
BRANCH  22  23
ATOM     23  O   UNL     1       8.155   5.447  20.461  0.00  0.00    +0.000 OA
ATOM     24  H   UNL     1       7.306   5.079  20.764  0.00  0.00    +0.000 HD
ENDBRANCH  22  23
ENDBRANCH  21  22
ENDBRANCH  19  21
ENDBRANCH  12  15
ENDBRANCH   7  12
BRANCH   1  26
ATOM     25  C   UNL     1      -1.229  10.358  18.013  0.00  0.00    +0.000 C 
ATOM     26  C   UNL     1       0.193   9.799  17.956  0.00  0.00    +0.000 C 
ENDBRANCH   1  26
BRANCH   9  27
ATOM     27  O   UNL     1       1.013  11.695  20.509  0.00  0.00    +0.000 OA
ATOM     28  C   UNL     1       0.113  12.229  21.471  0.00  0.00    +0.000 C 
ENDBRANCH   9  27
TORSDOF 7
ENDMDL
MODEL 5
REMARK VINA RESULT:      -6.6      1.619      2.519
REMARK  Name = 
REMARK  10 active torsions:
REMARK  status: ('A' for Active; 'I' for Inactive)
REMARK    1  A    between atoms: C_1  and  C_2
REMARK    2  A    between atoms: C_2  and  C_3
REMARK    3  A    between atoms: N_9  and  S_10
REMARK    4  A    between atoms: S_10  and  C_13
REMARK    5  A    between atoms: C_15  and  C_16
REMARK    6  A    between atoms: C_17  and  C_18
REMARK    7  A    between atoms: C_18  and  C_19
REMARK    8  A    between atoms: C_19  and  O_20
REMARK    9  A    between atoms: C_23  and  O_24
REMARK   10  A    between atoms: O_24  and  C_25
REMARK                            x       y       z     vdW  Elec       q    Type
REMARK                         _______ _______ _______ _____ _____    ______ ____
ROOT
ATOM      1  C   UNL     1       3.227   6.231  18.510  0.00  0.00    +0.000 A 
ATOM      2  N   UNL     1       2.562   7.213  19.228  0.00  0.00    +0.000 NA
ATOM      3  C   UNL     1       1.998   6.707  20.278  0.00  0.00    +0.000 A 
ATOM      4  N   UNL     1       1.286   7.390  21.222  0.00  0.00    +0.000 N 
ATOM      5  C   UNL     1       0.907   8.700  21.045  0.00  0.00    +0.000 C 
ATOM      6  O   UNL     1       0.276   9.249  21.943  0.00  0.00    +0.000 OA
ATOM      7  N   UNL     1       1.236   9.357  19.871  0.00  0.00    +0.000 N 
ATOM      8  S   UNL     1       2.097   5.023  20.449  0.00  0.00    +0.000 S 
ATOM      9  C   UNL     1       3.005   4.932  18.965  0.00  0.00    +0.000 A 
ATOM     10  H   UNL     1       0.994   6.940  22.062  0.00  0.00    +0.000 HD
ATOM     11  H   UNL     1       1.704   8.840  19.127  0.00  0.00    +0.000 HD
ENDROOT
BRANCH   7  12
ATOM     12  S   UNL     1       0.704  10.863  19.462  0.00  0.00    +0.000 S 
ATOM     13  O   UNL     1       0.406  11.558  20.701  0.00  0.00    +0.000 OA
ATOM     14  O   UNL     1       1.637  11.435  18.513  0.00  0.00    +0.000 OA
BRANCH  12  15
ATOM     15  C   UNL     1      -0.841  10.783  18.582  0.00  0.00    +0.000 A 
ATOM     16  C   UNL     1      -1.164  10.070  17.450  0.00  0.00    +0.000 A 
ATOM     17  C   UNL     1      -2.489  10.308  16.970  0.00  0.00    +0.000 A 
ATOM     18  C   UNL     1      -3.000   9.630  15.737  0.00  0.00    +0.000 C 
ATOM     19  C   UNL     1      -3.161  11.211  17.789  0.00  0.00    +0.000 A 
ATOM     20  S   UNL     1      -2.160  11.725  19.109  0.00  0.00    +0.000 S 
BRANCH  19  21
ATOM     21  C   UNL     1      -4.586  11.723  17.694  0.00  0.00    +0.000 C 
BRANCH  21  22
ATOM     22  C   UNL     1      -5.211  12.106  19.039  0.00  0.00    +0.000 C 
BRANCH  22  23
ATOM     23  O   UNL     1      -5.290  13.516  19.211  0.00  0.00    +0.000 OA
ATOM     24  H   UNL     1      -5.162  13.910  18.330  0.00  0.00    +0.000 HD
ENDBRANCH  22  23
ENDBRANCH  21  22
ENDBRANCH  19  21
ENDBRANCH  12  15
ENDBRANCH   7  12
BRANCH   1  26
ATOM     25  C   UNL     1       5.541   6.239  17.495  0.00  0.00    +0.000 C 
ATOM     26  C   UNL     1       4.089   6.703  17.376  0.00  0.00    +0.000 C 
ENDBRANCH   1  26
BRANCH   9  27
ATOM     27  O   UNL     1       3.383   3.716  18.544  0.00  0.00    +0.000 OA
ATOM     28  C   UNL     1       2.693   3.156  17.436  0.00  0.00    +0.000 C 
ENDBRANCH   9  27
TORSDOF 7
ENDMDL
MODEL 6
REMARK VINA RESULT:      -6.5      1.712      2.549
REMARK  Name = 
REMARK  10 active torsions:
REMARK  status: ('A' for Active; 'I' for Inactive)
REMARK    1  A    between atoms: C_1  and  C_2
REMARK    2  A    between atoms: C_2  and  C_3
REMARK    3  A    between atoms: N_9  and  S_10
REMARK    4  A    between atoms: S_10  and  C_13
REMARK    5  A    between atoms: C_15  and  C_16
REMARK    6  A    between atoms: C_17  and  C_18
REMARK    7  A    between atoms: C_18  and  C_19
REMARK    8  A    between atoms: C_19  and  O_20
REMARK    9  A    between atoms: C_23  and  O_24
REMARK   10  A    between atoms: O_24  and  C_25
REMARK                            x       y       z     vdW  Elec       q    Type
REMARK                         _______ _______ _______ _____ _____    ______ ____
ROOT
ATOM      1  C   UNL     1       3.109   5.314  18.583  0.00  0.00    +0.000 A 
ATOM      2  N   UNL     1       2.610   6.479  19.145  0.00  0.00    +0.000 NA
ATOM      3  C   UNL     1       2.024   6.227  20.271  0.00  0.00    +0.000 A 
ATOM      4  N   UNL     1       1.447   7.142  21.104  0.00  0.00    +0.000 N 
ATOM      5  C   UNL     1       1.240   8.448  20.726  0.00  0.00    +0.000 C 
ATOM      6  O   UNL     1       0.723   9.213  21.534  0.00  0.00    +0.000 OA
ATOM      7  N   UNL     1       1.609   8.860  19.455  0.00  0.00    +0.000 N 
ATOM      8  S   UNL     1       1.903   4.594  20.709  0.00  0.00    +0.000 S 
ATOM      9  C   UNL     1       2.733   4.146  19.244  0.00  0.00    +0.000 A 
ATOM     10  H   UNL     1       1.130   6.874  22.010  0.00  0.00    +0.000 HD
ATOM     11  H   UNL     1       1.975   8.173  18.796  0.00  0.00    +0.000 HD
ENDROOT
BRANCH   7  12
ATOM     12  S   UNL     1       1.268  10.342  18.819  0.00  0.00    +0.000 S 
ATOM     13  O   UNL     1       1.496  11.317  19.869  0.00  0.00    +0.000 OA
ATOM     14  O   UNL     1       1.957  10.463  17.550  0.00  0.00    +0.000 OA
BRANCH  12  15
ATOM     15  C   UNL     1      -0.459  10.485  18.409  0.00  0.00    +0.000 A 
ATOM     16  C   UNL     1      -1.165   9.888  17.389  0.00  0.00    +0.000 A 
ATOM     17  C   UNL     1      -2.533  10.296  17.312  0.00  0.00    +0.000 A 
ATOM     18  C   UNL     1      -3.442   9.761  16.251  0.00  0.00    +0.000 C 
ATOM     19  C   UNL     1      -2.838  11.207  18.320  0.00  0.00    +0.000 A 
ATOM     20  S   UNL     1      -1.457  11.522  19.321  0.00  0.00    +0.000 S 
BRANCH  19  21
ATOM     21  C   UNL     1      -4.162  11.871  18.651  0.00  0.00    +0.000 C 
BRANCH  21  22
ATOM     22  C   UNL     1      -4.210  12.532  20.031  0.00  0.00    +0.000 C 
BRANCH  22  23
ATOM     23  O   UNL     1      -4.281  13.950  19.945  0.00  0.00    +0.000 OA
ATOM     24  H   UNL     1      -4.274  14.284  20.859  0.00  0.00    +0.000 HD
ENDBRANCH  22  23
ENDBRANCH  21  22
ENDBRANCH  19  21
ENDBRANCH  12  15
ENDBRANCH   7  12
BRANCH   1  26
ATOM     25  C   UNL     1       5.468   5.585  17.719  0.00  0.00    +0.000 C 
ATOM     26  C   UNL     1       3.983   5.478  17.374  0.00  0.00    +0.000 C 
ENDBRANCH   1  26
BRANCH   9  27
ATOM     27  O   UNL     1       2.928   2.839  19.018  0.00  0.00    +0.000 OA
ATOM     28  C   UNL     1       4.092   2.239  19.572  0.00  0.00    +0.000 C 
ENDBRANCH   9  27
TORSDOF 7
ENDMDL
MODEL 7
REMARK VINA RESULT:      -6.4      3.276      8.660
REMARK  Name = 
REMARK  10 active torsions:
REMARK  status: ('A' for Active; 'I' for Inactive)
REMARK    1  A    between atoms: C_1  and  C_2
REMARK    2  A    between atoms: C_2  and  C_3
REMARK    3  A    between atoms: N_9  and  S_10
REMARK    4  A    between atoms: S_10  and  C_13
REMARK    5  A    between atoms: C_15  and  C_16
REMARK    6  A    between atoms: C_17  and  C_18
REMARK    7  A    between atoms: C_18  and  C_19
REMARK    8  A    between atoms: C_19  and  O_20
REMARK    9  A    between atoms: C_23  and  O_24
REMARK   10  A    between atoms: O_24  and  C_25
REMARK                            x       y       z     vdW  Elec       q    Type
REMARK                         _______ _______ _______ _____ _____    ______ ____
ROOT
ATOM      1  C   UNL     1       0.194  10.040  21.050  0.00  0.00    +0.000 A 
ATOM      2  N   UNL     1       0.989   9.256  20.228  0.00  0.00    +0.000 NA
ATOM      3  C   UNL     1       1.183   9.840  19.089  0.00  0.00    +0.000 A 
ATOM      4  N   UNL     1       1.940   9.366  18.056  0.00  0.00    +0.000 N 
ATOM      5  C   UNL     1       2.425   8.080  18.035  0.00  0.00    +0.000 C 
ATOM      6  O   UNL     1       3.105   7.729  17.076  0.00  0.00    +0.000 OA
ATOM      7  N   UNL     1       2.135   7.220  19.082  0.00  0.00    +0.000 N 
ATOM      8  S   UNL     1       0.357  11.299  18.840  0.00  0.00    +0.000 S 
ATOM      9  C   UNL     1      -0.344  11.167  20.429  0.00  0.00    +0.000 A 
ATOM     10  H   UNL     1       2.135   9.940  17.265  0.00  0.00    +0.000 HD
ATOM     11  H   UNL     1       1.512   7.536  19.826  0.00  0.00    +0.000 HD
ENDROOT
BRANCH   7  12
ATOM     12  S   UNL     1       2.510   5.615  19.105  0.00  0.00    +0.000 S 
ATOM     13  O   UNL     1       2.472   5.190  20.491  0.00  0.00    +0.000 OA
ATOM     14  O   UNL     1       1.694   4.942  18.113  0.00  0.00    +0.000 OA
BRANCH  12  15
ATOM     15  C   UNL     1       4.186   5.338  18.571  0.00  0.00    +0.000 A 
ATOM     16  C   UNL     1       5.366   5.705  19.177  0.00  0.00    +0.000 A 
ATOM     17  C   UNL     1       6.534   5.384  18.420  0.00  0.00    +0.000 A 
ATOM     18  C   UNL     1       7.902   5.730  18.920  0.00  0.00    +0.000 C 
ATOM     19  C   UNL     1       6.196   4.746  17.229  0.00  0.00    +0.000 A 
ATOM     20  S   UNL     1       4.478   4.556  17.086  0.00  0.00    +0.000 S 
BRANCH  19  21
ATOM     21  C   UNL     1       7.098   4.191  16.143  0.00  0.00    +0.000 C 
BRANCH  21  22
ATOM     22  C   UNL     1       7.003   4.929  14.804  0.00  0.00    +0.000 C 
BRANCH  22  23
ATOM     23  O   UNL     1       6.389   4.136  13.796  0.00  0.00    +0.000 OA
ATOM     24  H   UNL     1       6.597   3.209  14.009  0.00  0.00    +0.000 HD
ENDBRANCH  22  23
ENDBRANCH  21  22
ENDBRANCH  19  21
ENDBRANCH  12  15
ENDBRANCH   7  12
BRANCH   1  26
ATOM     25  C   UNL     1      -1.057  10.318  23.228  0.00  0.00    +0.000 C 
ATOM     26  C   UNL     1       0.047   9.580  22.470  0.00  0.00    +0.000 C 
ENDBRANCH   1  26
BRANCH   9  27
ATOM     27  O   UNL     1      -1.189  12.133  20.816  0.00  0.00    +0.000 OA
ATOM     28  C   UNL     1      -0.636  13.394  21.165  0.00  0.00    +0.000 C 
ENDBRANCH   9  27
TORSDOF 7
ENDMDL
MODEL 8
REMARK VINA RESULT:      -6.4      1.916      3.002
REMARK  Name = 
REMARK  10 active torsions:
REMARK  status: ('A' for Active; 'I' for Inactive)
REMARK    1  A    between atoms: C_1  and  C_2
REMARK    2  A    between atoms: C_2  and  C_3
REMARK    3  A    between atoms: N_9  and  S_10
REMARK    4  A    between atoms: S_10  and  C_13
REMARK    5  A    between atoms: C_15  and  C_16
REMARK    6  A    between atoms: C_17  and  C_18
REMARK    7  A    between atoms: C_18  and  C_19
REMARK    8  A    between atoms: C_19  and  O_20
REMARK    9  A    between atoms: C_23  and  O_24
REMARK   10  A    between atoms: O_24  and  C_25
REMARK                            x       y       z     vdW  Elec       q    Type
REMARK                         _______ _______ _______ _____ _____    ______ ____
ROOT
ATOM      1  C   UNL     1       3.421   6.332  18.159  0.00  0.00    +0.000 A 
ATOM      2  N   UNL     1       2.797   7.246  18.994  0.00  0.00    +0.000 NA
ATOM      3  C   UNL     1       2.142   6.638  19.929  0.00  0.00    +0.000 A 
ATOM      4  N   UNL     1       1.438   7.228  20.939  0.00  0.00    +0.000 N 
ATOM      5  C   UNL     1       1.169   8.576  20.952  0.00  0.00    +0.000 C 
ATOM      6  O   UNL     1       0.537   9.035  21.898  0.00  0.00    +0.000 OA
ATOM      7  N   UNL     1       1.608   9.373  19.907  0.00  0.00    +0.000 N 
ATOM      8  S   UNL     1       2.104   4.945  19.842  0.00  0.00    +0.000 S 
ATOM      9  C   UNL     1       3.077   5.002  18.399  0.00  0.00    +0.000 A 
ATOM     10  H   UNL     1       1.069   6.682  21.687  0.00  0.00    +0.000 HD
ATOM     11  H   UNL     1       2.073   8.937  19.111  0.00  0.00    +0.000 HD
ENDROOT
BRANCH   7  12
ATOM     12  S   UNL     1       1.214  10.962  19.715  0.00  0.00    +0.000 S 
ATOM     13  O   UNL     1       1.370  11.597  21.011  0.00  0.00    +0.000 OA
ATOM     14  O   UNL     1       1.930  11.473  18.563  0.00  0.00    +0.000 OA
BRANCH  12  15
ATOM     15  C   UNL     1      -0.506  11.154  19.298  0.00  0.00    +0.000 A 
ATOM     16  C   UNL     1      -1.462  11.952  19.885  0.00  0.00    +0.000 A 
ATOM     17  C   UNL     1      -2.771  11.792  19.335  0.00  0.00    +0.000 A 
ATOM     18  C   UNL     1      -3.935  12.568  19.867  0.00  0.00    +0.000 C 
ATOM     19  C   UNL     1      -2.766  10.860  18.301  0.00  0.00    +0.000 A 
ATOM     20  S   UNL     1      -1.174  10.225  18.036  0.00  0.00    +0.000 S 
BRANCH  19  21
ATOM     21  C   UNL     1      -3.906  10.405  17.408  0.00  0.00    +0.000 C 
BRANCH  21  22
ATOM     22  C   UNL     1      -4.234  11.367  16.263  0.00  0.00    +0.000 C 
BRANCH  22  23
ATOM     23  O   UNL     1      -3.197  11.417  15.290  0.00  0.00    +0.000 OA
ATOM     24  H   UNL     1      -3.427  12.140  14.679  0.00  0.00    +0.000 HD
ENDBRANCH  22  23
ENDBRANCH  21  22
ENDBRANCH  19  21
ENDBRANCH  12  15
ENDBRANCH   7  12
BRANCH   1  26
ATOM     25  C   UNL     1       5.829   6.509  17.414  0.00  0.00    +0.000 C 
ATOM     26  C   UNL     1       4.374   6.896  17.147  0.00  0.00    +0.000 C 
ENDBRANCH   1  26
BRANCH   9  27
ATOM     27  O   UNL     1       3.382   3.837  17.811  0.00  0.00    +0.000 OA
ATOM     28  C   UNL     1       2.788   2.657  18.334  0.00  0.00    +0.000 C 
ENDBRANCH   9  27
TORSDOF 7
ENDMDL
MODEL 9
REMARK VINA RESULT:      -6.3      3.216      8.568
REMARK  Name = 
REMARK  10 active torsions:
REMARK  status: ('A' for Active; 'I' for Inactive)
REMARK    1  A    between atoms: C_1  and  C_2
REMARK    2  A    between atoms: C_2  and  C_3
REMARK    3  A    between atoms: N_9  and  S_10
REMARK    4  A    between atoms: S_10  and  C_13
REMARK    5  A    between atoms: C_15  and  C_16
REMARK    6  A    between atoms: C_17  and  C_18
REMARK    7  A    between atoms: C_18  and  C_19
REMARK    8  A    between atoms: C_19  and  O_20
REMARK    9  A    between atoms: C_23  and  O_24
REMARK   10  A    between atoms: O_24  and  C_25
REMARK                            x       y       z     vdW  Elec       q    Type
REMARK                         _______ _______ _______ _____ _____    ______ ____
ROOT
ATOM      1  C   UNL     1      -0.150   9.586  20.913  0.00  0.00    +0.000 A 
ATOM      2  N   UNL     1       0.733   8.877  20.113  0.00  0.00    +0.000 NA
ATOM      3  C   UNL     1       1.153   9.613  19.134  0.00  0.00    +0.000 A 
ATOM      4  N   UNL     1       2.052   9.245  18.174  0.00  0.00    +0.000 N 
ATOM      5  C   UNL     1       2.466   7.943  18.021  0.00  0.00    +0.000 C 
ATOM      6  O   UNL     1       3.283   7.692  17.140  0.00  0.00    +0.000 OA
ATOM      7  N   UNL     1       1.953   6.958  18.849  0.00  0.00    +0.000 N 
ATOM      8  S   UNL     1       0.460  11.154  18.999  0.00  0.00    +0.000 S 
ATOM      9  C   UNL     1      -0.513  10.834  20.408  0.00  0.00    +0.000 A 
ATOM     10  H   UNL     1       2.412   9.917  17.532  0.00  0.00    +0.000 HD
ATOM     11  H   UNL     1       1.228   7.203  19.523  0.00  0.00    +0.000 HD
ENDROOT
BRANCH   7  12
ATOM     12  S   UNL     1       2.235   5.344  18.666  0.00  0.00    +0.000 S 
ATOM     13  O   UNL     1       2.241   4.761  19.995  0.00  0.00    +0.000 OA
ATOM     14  O   UNL     1       1.333   4.836  17.651  0.00  0.00    +0.000 OA
BRANCH  12  15
ATOM     15  C   UNL     1       3.863   5.045  18.011  0.00  0.00    +0.000 A 
ATOM     16  C   UNL     1       4.234   4.624  16.754  0.00  0.00    +0.000 A 
ATOM     17  C   UNL     1       5.639   4.412  16.602  0.00  0.00    +0.000 A 
ATOM     18  C   UNL     1       6.215   3.934  15.306  0.00  0.00    +0.000 C 
ATOM     19  C   UNL     1       6.318   4.705  17.783  0.00  0.00    +0.000 A 
ATOM     20  S   UNL     1       5.223   5.232  19.020  0.00  0.00    +0.000 S 
BRANCH  19  21
ATOM     21  C   UNL     1       7.806   4.667  18.073  0.00  0.00    +0.000 C 
BRANCH  21  22
ATOM     22  C   UNL     1       8.279   5.712  19.088  0.00  0.00    +0.000 C 
BRANCH  22  23
ATOM     23  O   UNL     1       8.164   7.038  18.585  0.00  0.00    +0.000 OA
ATOM     24  H   UNL     1       7.565   6.992  17.818  0.00  0.00    +0.000 HD
ENDBRANCH  22  23
ENDBRANCH  21  22
ENDBRANCH  19  21
ENDBRANCH  12  15
ENDBRANCH   7  12
BRANCH   1  26
ATOM     25  C   UNL     1       0.052   9.576  23.432  0.00  0.00    +0.000 C 
ATOM     26  C   UNL     1      -0.566   8.925  22.194  0.00  0.00    +0.000 C 
ENDBRANCH   1  26
BRANCH   9  27
ATOM     27  O   UNL     1      -1.361  11.793  20.806  0.00  0.00    +0.000 OA
ATOM     28  C   UNL     1      -0.819  13.071  21.109  0.00  0.00    +0.000 C 
ENDBRANCH   9  27
TORSDOF 7
ENDMDL
