MODEL 1
REMARK VINA RESULT:      -8.4      0.000      0.000
REMARK  Name = 
REMARK  2 active torsions:
REMARK  status: ('A' for Active; 'I' for Inactive)
REMARK    1  A    between atoms: N_10  and  C_11
REMARK    2  A    between atoms: C_19  and  O_20
REMARK                            x       y       z     vdW  Elec       q    Type
REMARK                         _______ _______ _______ _____ _____    ______ ____
ROOT
ATOM      1  C   UNL     1       2.332   5.739  19.674  0.00  0.00    +0.000 A 
ATOM      2  C   UNL     1       1.350   5.279  20.572  0.00  0.00    +0.000 A 
ATOM      3  C   UNL     1       1.159   3.909  20.835  0.00  0.00    +0.000 A 
ATOM      4  C   UNL     1       1.916   2.956  20.171  0.00  0.00    +0.000 A 
ATOM      5  C   UNL     1       2.832   3.416  19.243  0.00  0.00    +0.000 A 
ATOM      6  C   UNL     1       3.063   4.781  18.982  0.00  0.00    +0.000 A 
ATOM      7  C   UNL     1       4.233   4.871  18.040  0.00  0.00    +0.000 C 
ATOM      8  C   UNL     1       4.229   5.862  16.888  0.00  0.00    +0.000 C 
ATOM      9  C   UNL     1       5.471   5.593  16.036  0.00  0.00    +0.000 C 
ATOM     10  C   UNL     1       5.375   4.203  15.414  0.00  0.00    +0.000 C 
ATOM     11  C   UNL     1       5.279   3.133  16.500  0.00  0.00    +0.000 C 
ATOM     12  N   UNL     1       4.330   3.504  17.531  0.00  0.00    +0.000 N 
ATOM     13  C   UNL     1       3.677   2.606  18.353  0.00  0.00    +0.000 C 
ATOM     14  O   UNL     1       3.737   1.393  18.354  0.00  0.00    +0.000 OA
ENDROOT
BRANCH   1  24
ATOM     15  O   UNL     1       2.015   9.272  19.205  0.00  0.00    +0.000 OA
ATOM     16  C   UNL     1       1.803   8.212  19.788  0.00  0.00    +0.000 C 
ATOM     17  N   UNL     1       0.978   8.069  20.860  0.00  0.00    +0.000 N 
ATOM     18  C   UNL     1       0.235   9.107  21.417  0.00  0.00    +0.000 A 
ATOM     19  C   UNL     1      -0.393  10.105  20.676  0.00  0.00    +0.000 A 
ATOM     20  N   UNL     1      -1.093  11.113  21.255  0.00  0.00    +0.000 NA
ATOM     21  C   UNL     1      -1.114  11.087  22.611  0.00  0.00    +0.000 A 
ATOM     22  C   UNL     1      -0.499  10.092  23.343  0.00  0.00    +0.000 A 
ATOM     23  N   UNL     1       0.158   9.063  22.766  0.00  0.00    +0.000 NA
ATOM     24  N   UNL     1       2.530   7.110  19.428  0.00  0.00    +0.000 N 
ATOM     25  H   UNL     1       1.281   7.404  21.556  0.00  0.00    +0.000 HD
ATOM     26  H   UNL     1       3.286   7.379  18.817  0.00  0.00    +0.000 HD
ENDBRANCH   1  24
BRANCH   9  27
ATOM     27  O   UNL     1       5.579   6.581  15.022  0.00  0.00    +0.000 OA
ATOM     28  H   UNL     1       5.175   6.221  14.213  0.00  0.00    +0.000 HD
ENDBRANCH   9  27
TORSDOF 2
ENDMDL
MODEL 2
REMARK VINA RESULT:      -8.0      2.742      7.967
REMARK  Name = 
REMARK  2 active torsions:
REMARK  status: ('A' for Active; 'I' for Inactive)
REMARK    1  A    between atoms: N_10  and  C_11
REMARK    2  A    between atoms: C_19  and  O_20
REMARK                            x       y       z     vdW  Elec       q    Type
REMARK                         _______ _______ _______ _____ _____    ______ ____
ROOT
ATOM      1  C   UNL     1       0.745   9.357  20.429  0.00  0.00    +0.000 A 
ATOM      2  C   UNL     1       0.378   8.471  21.460  0.00  0.00    +0.000 A 
ATOM      3  C   UNL     1      -0.282   8.910  22.623  0.00  0.00    +0.000 A 
ATOM      4  C   UNL     1      -0.553  10.257  22.809  0.00  0.00    +0.000 A 
ATOM      5  C   UNL     1      -0.129  11.126  21.820  0.00  0.00    +0.000 A 
ATOM      6  C   UNL     1       0.507  10.710  20.635  0.00  0.00    +0.000 A 
ATOM      7  C   UNL     1       0.662  11.921  19.755  0.00  0.00    +0.000 C 
ATOM      8  C   UNL     1       1.942  12.152  18.967  0.00  0.00    +0.000 C 
ATOM      9  C   UNL     1       1.845  13.531  18.313  0.00  0.00    +0.000 C 
ATOM     10  C   UNL     1       1.799  14.609  19.392  0.00  0.00    +0.000 C 
ATOM     11  C   UNL     1       0.588  14.408  20.302  0.00  0.00    +0.000 C 
ATOM     12  N   UNL     1       0.441  13.020  20.694  0.00  0.00    +0.000 N 
ATOM     13  C   UNL     1      -0.215  12.593  21.832  0.00  0.00    +0.000 C 
ATOM     14  O   UNL     1      -0.741  13.259  22.702  0.00  0.00    +0.000 OA
ENDROOT
BRANCH   1  24
ATOM     15  O   UNL     1       2.907   7.860  18.001  0.00  0.00    +0.000 OA
ATOM     16  C   UNL     1       2.247   7.867  19.038  0.00  0.00    +0.000 C 
ATOM     17  N   UNL     1       2.208   6.850  19.939  0.00  0.00    +0.000 N 
ATOM     18  C   UNL     1       2.944   5.672  19.819  0.00  0.00    +0.000 A 
ATOM     19  C   UNL     1       4.251   5.612  19.343  0.00  0.00    +0.000 A 
ATOM     20  N   UNL     1       4.931   4.443  19.222  0.00  0.00    +0.000 NA
ATOM     21  C   UNL     1       4.231   3.338  19.578  0.00  0.00    +0.000 A 
ATOM     22  C   UNL     1       2.939   3.400  20.059  0.00  0.00    +0.000 A 
ATOM     23  N   UNL     1       2.279   4.567  20.224  0.00  0.00    +0.000 NA
ATOM     24  N   UNL     1       1.390   8.911  19.260  0.00  0.00    +0.000 N 
ATOM     25  H   UNL     1       1.314   6.694  20.380  0.00  0.00    +0.000 HD
ATOM     26  H   UNL     1       1.300   9.468  18.425  0.00  0.00    +0.000 HD
ENDBRANCH   1  24
BRANCH   9  27
ATOM     27  O   UNL     1       2.961  13.736  17.460  0.00  0.00    +0.000 OA
ATOM     28  H   UNL     1       2.870  13.131  16.702  0.00  0.00    +0.000 HD
ENDBRANCH   9  27
TORSDOF 2
ENDMDL
MODEL 3
REMARK VINA RESULT:      -8.0      3.418      8.334
REMARK  Name = 
REMARK  2 active torsions:
REMARK  status: ('A' for Active; 'I' for Inactive)
REMARK    1  A    between atoms: N_10  and  C_11
REMARK    2  A    between atoms: C_19  and  O_20
REMARK                            x       y       z     vdW  Elec       q    Type
REMARK                         _______ _______ _______ _____ _____    ______ ____
ROOT
ATOM      1  C   UNL     1       0.588  10.975  19.037  0.00  0.00    +0.000 A 
ATOM      2  C   UNL     1       1.436  11.643  19.941  0.00  0.00    +0.000 A 
ATOM      3  C   UNL     1       0.942  12.529  20.915  0.00  0.00    +0.000 A 
ATOM      4  C   UNL     1      -0.414  12.810  20.985  0.00  0.00    +0.000 A 
ATOM      5  C   UNL     1      -1.230  12.200  20.050  0.00  0.00    +0.000 A 
ATOM      6  C   UNL     1      -0.766  11.287  19.083  0.00  0.00    +0.000 A 
ATOM      7  C   UNL     1      -1.968  10.730  18.371  0.00  0.00    +0.000 C 
ATOM      8  C   UNL     1      -1.953  10.522  16.865  0.00  0.00    +0.000 C 
ATOM      9  C   UNL     1      -3.360  10.104  16.437  0.00  0.00    +0.000 C 
ATOM     10  C   UNL     1      -4.339  11.243  16.709  0.00  0.00    +0.000 C 
ATOM     11  C   UNL     1      -4.358  11.592  18.195  0.00  0.00    +0.000 C 
ATOM     12  N   UNL     1      -3.017  11.679  18.740  0.00  0.00    +0.000 N 
ATOM     13  C   UNL     1      -2.673  12.409  19.861  0.00  0.00    +0.000 C 
ATOM     14  O   UNL     1      -3.378  13.113  20.556  0.00  0.00    +0.000 OA
ENDROOT
BRANCH   1  24
ATOM     15  O   UNL     1       2.367   8.463  17.212  0.00  0.00    +0.000 OA
ATOM     16  C   UNL     1       1.790   8.910  18.201  0.00  0.00    +0.000 C 
ATOM     17  N   UNL     1       1.694   8.271  19.397  0.00  0.00    +0.000 N 
ATOM     18  C   UNL     1       2.270   7.031  19.668  0.00  0.00    +0.000 A 
ATOM     19  C   UNL     1       3.522   6.633  19.205  0.00  0.00    +0.000 A 
ATOM     20  N   UNL     1       4.043   5.408  19.473  0.00  0.00    +0.000 NA
ATOM     21  C   UNL     1       3.242   4.596  20.206  0.00  0.00    +0.000 A 
ATOM     22  C   UNL     1       2.006   4.996  20.672  0.00  0.00    +0.000 A 
ATOM     23  N   UNL     1       1.507   6.230  20.445  0.00  0.00    +0.000 NA
ATOM     24  N   UNL     1       1.086  10.077  18.075  0.00  0.00    +0.000 N 
ATOM     25  H   UNL     1       0.822   8.399  19.889  0.00  0.00    +0.000 HD
ATOM     26  H   UNL     1       1.002  10.328  17.102  0.00  0.00    +0.000 HD
ENDBRANCH   1  24
BRANCH   9  27
ATOM     27  O   UNL     1      -3.362   9.771  15.057  0.00  0.00    +0.000 OA
ATOM     28  H   UNL     1      -4.283   9.588  14.797  0.00  0.00    +0.000 HD
ENDBRANCH   9  27
TORSDOF 2
ENDMDL
MODEL 4
REMARK VINA RESULT:      -7.8      1.350      1.357
REMARK  Name = 
REMARK  2 active torsions:
REMARK  status: ('A' for Active; 'I' for Inactive)
REMARK    1  A    between atoms: N_10  and  C_11
REMARK    2  A    between atoms: C_19  and  O_20
REMARK                            x       y       z     vdW  Elec       q    Type
REMARK                         _______ _______ _______ _____ _____    ______ ____
ROOT
ATOM      1  C   UNL     1       2.361   6.254  19.676  0.00  0.00    +0.000 A 
ATOM      2  C   UNL     1       1.192   5.661  20.192  0.00  0.00    +0.000 A 
ATOM      3  C   UNL     1       1.153   4.314  20.597  0.00  0.00    +0.000 A 
ATOM      4  C   UNL     1       2.271   3.506  20.455  0.00  0.00    +0.000 A 
ATOM      5  C   UNL     1       3.392   4.081  19.886  0.00  0.00    +0.000 A 
ATOM      6  C   UNL     1       3.468   5.433  19.499  0.00  0.00    +0.000 A 
ATOM      7  C   UNL     1       4.886   5.706  19.079  0.00  0.00    +0.000 C 
ATOM      8  C   UNL     1       5.186   6.562  17.859  0.00  0.00    +0.000 C 
ATOM      9  C   UNL     1       6.695   6.513  17.613  0.00  0.00    +0.000 C 
ATOM     10  C   UNL     1       7.110   5.088  17.257  0.00  0.00    +0.000 C 
ATOM     11  C   UNL     1       6.763   4.127  18.392  0.00  0.00    +0.000 C 
ATOM     12  N   UNL     1       5.423   4.359  18.896  0.00  0.00    +0.000 N 
ATOM     13  C   UNL     1       4.657   3.412  19.547  0.00  0.00    +0.000 C 
ATOM     14  O   UNL     1       4.923   2.250  19.784  0.00  0.00    +0.000 OA
ENDROOT
BRANCH   1  24
ATOM     15  O   UNL     1       1.650   9.675  18.901  0.00  0.00    +0.000 OA
ATOM     16  C   UNL     1       1.586   8.663  19.596  0.00  0.00    +0.000 C 
ATOM     17  N   UNL     1       0.852   8.550  20.734  0.00  0.00    +0.000 N 
ATOM     18  C   UNL     1       0.043   9.562  21.245  0.00  0.00    +0.000 A 
ATOM     19  C   UNL     1      -0.732  10.414  20.461  0.00  0.00    +0.000 A 
ATOM     20  N   UNL     1      -1.494  11.404  20.994  0.00  0.00    +0.000 NA
ATOM     21  C   UNL     1      -1.425  11.513  22.344  0.00  0.00    +0.000 A 
ATOM     22  C   UNL     1      -0.664  10.661  23.119  0.00  0.00    +0.000 A 
ATOM     23  N   UNL     1       0.057   9.647  22.594  0.00  0.00    +0.000 NA
ATOM     24  N   UNL     1       2.399   7.606  19.288  0.00  0.00    +0.000 N 
ATOM     25  H   UNL     1       1.266   7.991  21.465  0.00  0.00    +0.000 HD
ATOM     26  H   UNL     1       3.083   7.884  18.600  0.00  0.00    +0.000 HD
ENDBRANCH   1  24
BRANCH   9  27
ATOM     27  O   UNL     1       7.038   7.403  16.562  0.00  0.00    +0.000 OA
ATOM     28  H   UNL     1       6.249   7.933  16.352  0.00  0.00    +0.000 HD
ENDBRANCH   9  27
TORSDOF 2
ENDMDL
MODEL 5
REMARK VINA RESULT:      -7.8      1.978      4.023
REMARK  Name = 
REMARK  2 active torsions:
REMARK  status: ('A' for Active; 'I' for Inactive)
REMARK    1  A    between atoms: N_10  and  C_11
REMARK    2  A    between atoms: C_19  and  O_20
REMARK                            x       y       z     vdW  Elec       q    Type
REMARK                         _______ _______ _______ _____ _____    ______ ____
ROOT
ATOM      1  C   UNL     1       2.485   7.131  19.314  0.00  0.00    +0.000 A 
ATOM      2  C   UNL     1       3.163   8.073  18.518  0.00  0.00    +0.000 A 
ATOM      3  C   UNL     1       3.837   7.709  17.338  0.00  0.00    +0.000 A 
ATOM      4  C   UNL     1       3.892   6.380  16.943  0.00  0.00    +0.000 A 
ATOM      5  C   UNL     1       3.279   5.455  17.768  0.00  0.00    +0.000 A 
ATOM      6  C   UNL     1       2.573   5.796  18.938  0.00  0.00    +0.000 A 
ATOM      7  C   UNL     1       1.925   4.542  19.459  0.00  0.00    +0.000 C 
ATOM      8  C   UNL     1       1.905   4.238  20.948  0.00  0.00    +0.000 C 
ATOM      9  C   UNL     1       1.327   2.834  21.130  0.00  0.00    +0.000 C 
ATOM     10  C   UNL     1       2.257   1.807  20.489  0.00  0.00    +0.000 C 
ATOM     11  C   UNL     1       2.418   2.086  18.996  0.00  0.00    +0.000 C 
ATOM     12  N   UNL     1       2.646   3.495  18.738  0.00  0.00    +0.000 N 
ATOM     13  C   UNL     1       3.281   3.993  17.616  0.00  0.00    +0.000 C 
ATOM     14  O   UNL     1       3.777   3.383  16.690  0.00  0.00    +0.000 OA
ENDROOT
BRANCH   1  24
ATOM     15  O   UNL     1       0.832   8.851  21.982  0.00  0.00    +0.000 OA
ATOM     16  C   UNL     1       1.086   8.629  20.800  0.00  0.00    +0.000 C 
ATOM     17  N   UNL     1       0.609   9.356  19.755  0.00  0.00    +0.000 N 
ATOM     18  C   UNL     1      -0.209  10.476  19.893  0.00  0.00    +0.000 A 
ATOM     19  C   UNL     1      -0.061  11.434  20.893  0.00  0.00    +0.000 A 
ATOM     20  N   UNL     1      -0.890  12.503  21.007  0.00  0.00    +0.000 NA
ATOM     21  C   UNL     1      -1.885  12.554  20.088  0.00  0.00    +0.000 A 
ATOM     22  C   UNL     1      -2.023  11.610  19.091  0.00  0.00    +0.000 A 
ATOM     23  N   UNL     1      -1.171  10.571  18.948  0.00  0.00    +0.000 NA
ATOM     24  N   UNL     1       1.798   7.504  20.484  0.00  0.00    +0.000 N 
ATOM     25  H   UNL     1       0.392   8.830  18.922  0.00  0.00    +0.000 HD
ATOM     26  H   UNL     1       1.875   6.905  21.292  0.00  0.00    +0.000 HD
ENDBRANCH   1  24
BRANCH   9  27
ATOM     27  O   UNL     1       1.166   2.556  22.513  0.00  0.00    +0.000 OA
ATOM     28  H   UNL     1       0.373   3.029  22.821  0.00  0.00    +0.000 HD
ENDBRANCH   9  27
TORSDOF 2
ENDMDL
MODEL 6
REMARK VINA RESULT:      -7.8      1.581      1.685
REMARK  Name = 
REMARK  2 active torsions:
REMARK  status: ('A' for Active; 'I' for Inactive)
REMARK    1  A    between atoms: N_10  and  C_11
REMARK    2  A    between atoms: C_19  and  O_20
REMARK                            x       y       z     vdW  Elec       q    Type
REMARK                         _______ _______ _______ _____ _____    ______ ____
ROOT
ATOM      1  C   UNL     1       2.584   6.682  19.172  0.00  0.00    +0.000 A 
ATOM      2  C   UNL     1       1.623   6.443  20.173  0.00  0.00    +0.000 A 
ATOM      3  C   UNL     1       1.670   5.305  20.999  0.00  0.00    +0.000 A 
ATOM      4  C   UNL     1       2.657   4.348  20.818  0.00  0.00    +0.000 A 
ATOM      5  C   UNL     1       3.556   4.560  19.789  0.00  0.00    +0.000 A 
ATOM      6  C   UNL     1       3.549   5.703  18.967  0.00  0.00    +0.000 A 
ATOM      7  C   UNL     1       4.767   5.637  18.087  0.00  0.00    +0.000 C 
ATOM      8  C   UNL     1       4.689   6.026  16.619  0.00  0.00    +0.000 C 
ATOM      9  C   UNL     1       6.037   5.698  15.977  0.00  0.00    +0.000 C 
ATOM     10  C   UNL     1       6.270   4.189  16.015  0.00  0.00    +0.000 C 
ATOM     11  C   UNL     1       6.273   3.682  17.455  0.00  0.00    +0.000 C 
ATOM     12  N   UNL     1       5.173   4.239  18.218  0.00  0.00    +0.000 N 
ATOM     13  C   UNL     1       4.624   3.653  19.343  0.00  0.00    +0.000 C 
ATOM     14  O   UNL     1       4.913   2.596  19.868  0.00  0.00    +0.000 OA
ENDROOT
BRANCH   1  24
ATOM     15  O   UNL     1       1.706   9.681  17.427  0.00  0.00    +0.000 OA
ATOM     16  C   UNL     1       1.765   8.956  18.417  0.00  0.00    +0.000 C 
ATOM     17  N   UNL     1       1.210   9.246  19.624  0.00  0.00    +0.000 N 
ATOM     18  C   UNL     1       0.469  10.396  19.886  0.00  0.00    +0.000 A 
ATOM     19  C   UNL     1      -0.429  10.970  18.988  0.00  0.00    +0.000 A 
ATOM     20  N   UNL     1      -1.120  12.103  19.271  0.00  0.00    +0.000 NA
ATOM     21  C   UNL     1      -0.852  12.647  20.484  0.00  0.00    +0.000 A 
ATOM     22  C   UNL     1       0.030  12.072  21.376  0.00  0.00    +0.000 A 
ATOM     23  N   UNL     1       0.683  10.919  21.114  0.00  0.00    +0.000 NA
ATOM     24  N   UNL     1       2.541   7.830  18.359  0.00  0.00    +0.000 N 
ATOM     25  H   UNL     1       1.739   8.945  20.429  0.00  0.00    +0.000 HD
ATOM     26  H   UNL     1       3.109   7.844  17.526  0.00  0.00    +0.000 HD
ENDBRANCH   1  24
BRANCH   9  27
ATOM     27  O   UNL     1       6.056   6.165  14.636  0.00  0.00    +0.000 OA
ATOM     28  H   UNL     1       5.188   5.968  14.241  0.00  0.00    +0.000 HD
ENDBRANCH   9  27
TORSDOF 2
ENDMDL
MODEL 7
REMARK VINA RESULT:      -7.5      1.914      2.027
REMARK  Name = 
REMARK  2 active torsions:
REMARK  status: ('A' for Active; 'I' for Inactive)
REMARK    1  A    between atoms: N_10  and  C_11
REMARK    2  A    between atoms: C_19  and  O_20
REMARK                            x       y       z     vdW  Elec       q    Type
REMARK                         _______ _______ _______ _____ _____    ______ ____
ROOT
ATOM      1  C   UNL     1       2.519   6.160  18.434  0.00  0.00    +0.000 A 
ATOM      2  C   UNL     1       1.296   5.503  18.668  0.00  0.00    +0.000 A 
ATOM      3  C   UNL     1       1.234   4.218  19.239  0.00  0.00    +0.000 A 
ATOM      4  C   UNL     1       2.399   3.533  19.552  0.00  0.00    +0.000 A 
ATOM      5  C   UNL     1       3.595   4.161  19.256  0.00  0.00    +0.000 A 
ATOM      6  C   UNL     1       3.685   5.457  18.712  0.00  0.00    +0.000 A 
ATOM      7  C   UNL     1       5.139   5.840  18.690  0.00  0.00    +0.000 C 
ATOM      8  C   UNL     1       5.733   6.573  17.498  0.00  0.00    +0.000 C 
ATOM      9  C   UNL     1       7.244   6.668  17.713  0.00  0.00    +0.000 C 
ATOM     10  C   UNL     1       7.853   5.268  17.709  0.00  0.00    +0.000 C 
ATOM     11  C   UNL     1       7.248   4.416  18.823  0.00  0.00    +0.000 C 
ATOM     12  N   UNL     1       5.805   4.551  18.873  0.00  0.00    +0.000 N 
ATOM     13  C   UNL     1       4.948   3.607  19.405  0.00  0.00    +0.000 C 
ATOM     14  O   UNL     1       5.214   2.520  19.879  0.00  0.00    +0.000 OA
ENDROOT
BRANCH   1  24
ATOM     15  O   UNL     1       1.891   9.510  17.343  0.00  0.00    +0.000 OA
ATOM     16  C   UNL     1       1.875   8.593  18.161  0.00  0.00    +0.000 C 
ATOM     17  N   UNL     1       1.311   8.666  19.396  0.00  0.00    +0.000 N 
ATOM     18  C   UNL     1       0.643   9.787  19.884  0.00  0.00    +0.000 A 
ATOM     19  C   UNL     1      -0.191  10.597  19.115  0.00  0.00    +0.000 A 
ATOM     20  N   UNL     1      -0.811  11.694  19.620  0.00  0.00    +0.000 NA
ATOM     21  C   UNL     1      -0.538  11.954  20.923  0.00  0.00    +0.000 A 
ATOM     22  C   UNL     1       0.281  11.145  21.685  0.00  0.00    +0.000 A 
ATOM     23  N   UNL     1       0.860  10.028  21.196  0.00  0.00    +0.000 NA
ATOM     24  N   UNL     1       2.574   7.451  17.878  0.00  0.00    +0.000 N 
ATOM     25  H   UNL     1       1.797   8.168  20.126  0.00  0.00    +0.000 HD
ATOM     26  H   UNL     1       3.163   7.597  17.072  0.00  0.00    +0.000 HD
ENDBRANCH   1  24
BRANCH   9  27
ATOM     27  O   UNL     1       7.825   7.461  16.688  0.00  0.00    +0.000 OA
ATOM     28  H   UNL     1       7.115   7.724  16.078  0.00  0.00    +0.000 HD
ENDBRANCH   9  27
TORSDOF 2
ENDMDL
MODEL 8
REMARK VINA RESULT:      -7.5      1.938      4.051
REMARK  Name = 
REMARK  2 active torsions:
REMARK  status: ('A' for Active; 'I' for Inactive)
REMARK    1  A    between atoms: N_10  and  C_11
REMARK    2  A    between atoms: C_19  and  O_20
REMARK                            x       y       z     vdW  Elec       q    Type
REMARK                         _______ _______ _______ _____ _____    ______ ____
ROOT
ATOM      1  C   UNL     1       1.729   7.714  19.611  0.00  0.00    +0.000 A 
ATOM      2  C   UNL     1       2.081   8.896  18.931  0.00  0.00    +0.000 A 
ATOM      3  C   UNL     1       2.884   8.883  17.775  0.00  0.00    +0.000 A 
ATOM      4  C   UNL     1       3.396   7.689  17.290  0.00  0.00    +0.000 A 
ATOM      5  C   UNL     1       3.098   6.543  18.004  0.00  0.00    +0.000 A 
ATOM      6  C   UNL     1       2.274   6.524  19.146  0.00  0.00    +0.000 A 
ATOM      7  C   UNL     1       2.065   5.085  19.531  0.00  0.00    +0.000 C 
ATOM      8  C   UNL     1       2.092   4.658  20.990  0.00  0.00    +0.000 C 
ATOM      9  C   UNL     1       2.011   3.131  21.031  0.00  0.00    +0.000 C 
ATOM     10  C   UNL     1       3.256   2.533  20.381  0.00  0.00    +0.000 C 
ATOM     11  C   UNL     1       3.371   2.983  18.926  0.00  0.00    +0.000 C 
ATOM     12  N   UNL     1       3.123   4.405  18.786  0.00  0.00    +0.000 N 
ATOM     13  C   UNL     1       3.596   5.183  17.747  0.00  0.00    +0.000 C 
ATOM     14  O   UNL     1       4.303   4.859  16.814  0.00  0.00    +0.000 OA
ENDROOT
BRANCH   1  24
ATOM     15  O   UNL     1      -0.138   8.568  22.543  0.00  0.00    +0.000 OA
ATOM     16  C   UNL     1       0.268   8.755  21.398  0.00  0.00    +0.000 C 
ATOM     17  N   UNL     1       0.022   9.871  20.661  0.00  0.00    +0.000 N 
ATOM     18  C   UNL     1      -0.700  10.969  21.124  0.00  0.00    +0.000 A 
ATOM     19  C   UNL     1      -0.615  11.469  22.422  0.00  0.00    +0.000 A 
ATOM     20  N   UNL     1      -1.349  12.530  22.844  0.00  0.00    +0.000 NA
ATOM     21  C   UNL     1      -2.187  13.050  21.914  0.00  0.00    +0.000 A 
ATOM     22  C   UNL     1      -2.261  12.560  20.626  0.00  0.00    +0.000 A 
ATOM     23  N   UNL     1      -1.498  11.534  20.191  0.00  0.00    +0.000 NA
ATOM     24  N   UNL     1       0.912   7.732  20.756  0.00  0.00    +0.000 N 
ATOM     25  H   UNL     1      -0.115   9.718  19.673  0.00  0.00    +0.000 HD
ATOM     26  H   UNL     1       0.812   6.877  21.282  0.00  0.00    +0.000 HD
ENDBRANCH   1  24
BRANCH   9  27
ATOM     27  O   UNL     1       1.900   2.693  22.377  0.00  0.00    +0.000 OA
ATOM     28  H   UNL     1       2.640   2.085  22.553  0.00  0.00    +0.000 HD
ENDBRANCH   9  27
TORSDOF 2
ENDMDL
MODEL 9
REMARK VINA RESULT:      -7.3      6.439      8.779
REMARK  Name = 
REMARK  2 active torsions:
REMARK  status: ('A' for Active; 'I' for Inactive)
REMARK    1  A    between atoms: N_10  and  C_11
REMARK    2  A    between atoms: C_19  and  O_20
REMARK                            x       y       z     vdW  Elec       q    Type
REMARK                         _______ _______ _______ _____ _____    ______ ____
ROOT
ATOM      1  C   UNL     1      -1.626  13.425  20.420  0.00  0.00    +0.000 A 
ATOM      2  C   UNL     1      -0.712  13.593  21.478  0.00  0.00    +0.000 A 
ATOM      3  C   UNL     1       0.444  12.799  21.600  0.00  0.00    +0.000 A 
ATOM      4  C   UNL     1       0.696  11.783  20.691  0.00  0.00    +0.000 A 
ATOM      5  C   UNL     1      -0.242  11.585  19.695  0.00  0.00    +0.000 A 
ATOM      6  C   UNL     1      -1.392  12.382  19.533  0.00  0.00    +0.000 A 
ATOM      7  C   UNL     1      -2.065  11.955  18.257  0.00  0.00    +0.000 C 
ATOM      8  C   UNL     1      -3.578  11.830  18.180  0.00  0.00    +0.000 C 
ATOM      9  C   UNL     1      -3.927  11.228  16.818  0.00  0.00    +0.000 C 
ATOM     10  C   UNL     1      -3.369   9.810  16.724  0.00  0.00    +0.000 C 
ATOM     11  C   UNL     1      -1.850   9.819  16.885  0.00  0.00    +0.000 C 
ATOM     12  N   UNL     1      -1.436  10.662  17.990  0.00  0.00    +0.000 N 
ATOM     13  C   UNL     1      -0.247  10.522  18.679  0.00  0.00    +0.000 C 
ATOM     14  O   UNL     1       0.625   9.689  18.530  0.00  0.00    +0.000 OA
ENDROOT
BRANCH   1  24
ATOM     15  O   UNL     1      -4.943  14.751  20.196  0.00  0.00    +0.000 OA
ATOM     16  C   UNL     1      -4.070  14.034  20.680  0.00  0.00    +0.000 C 
ATOM     17  N   UNL     1      -4.275  13.126  21.671  0.00  0.00    +0.000 N 
ATOM     18  C   UNL     1      -5.516  12.865  22.247  0.00  0.00    +0.000 A 
ATOM     19  C   UNL     1      -6.714  12.821  21.537  0.00  0.00    +0.000 A 
ATOM     20  N   UNL     1      -7.909  12.583  22.135  0.00  0.00    +0.000 NA
ATOM     21  C   UNL     1      -7.849  12.415  23.479  0.00  0.00    +0.000 A 
ATOM     22  C   UNL     1      -6.660  12.448  24.180  0.00  0.00    +0.000 A 
ATOM     23  N   UNL     1      -5.466  12.638  23.578  0.00  0.00    +0.000 NA
ATOM     24  N   UNL     1      -2.772  14.232  20.294  0.00  0.00    +0.000 N 
ATOM     25  H   UNL     1      -3.522  13.031  22.336  0.00  0.00    +0.000 HD
ATOM     26  H   UNL     1      -2.695  15.088  19.766  0.00  0.00    +0.000 HD
ENDBRANCH   1  24
BRANCH   9  27
ATOM     27  O   UNL     1      -5.337  11.214  16.648  0.00  0.00    +0.000 OA
ATOM     28  H   UNL     1      -5.742  11.149  17.530  0.00  0.00    +0.000 HD
ENDBRANCH   9  27
TORSDOF 2
ENDMDL
