MODEL 1
REMARK VINA RESULT:      -8.5      0.000      0.000
REMARK  Name = 
REMARK  9 active torsions:
REMARK  status: ('A' for Active; 'I' for Inactive)
REMARK    1  A    between atoms: C_1  and  C_2
REMARK    2  A    between atoms: C_2  and  C_3
REMARK    3  A    between atoms: C_2  and  N_4
REMARK    4  A    between atoms: C_8  and  C_9
REMARK    5  A    between atoms: N_11  and  C_12
REMARK    6  A    between atoms: C_12  and  C_13
REMARK    7  A    between atoms: C_13  and  C_14
REMARK    8  A    between atoms: C_14  and  N_15
REMARK    9  A    between atoms: C_25  and  C_26
REMARK                            x       y       z     vdW  Elec       q    Type
REMARK                         _______ _______ _______ _____ _____    ______ ____
ROOT
ATOM      1  C   UNL     1       2.122   8.182  18.447  0.00  0.00    +0.000 C 
ATOM      2  O   UNL     1       2.070   8.892  17.451  0.00  0.00    +0.000 OA
ATOM      3  N   UNL     1       1.687   8.594  19.689  0.00  0.00    +0.000 N 
ATOM      4  H   UNL     1       1.865   8.025  20.506  0.00  0.00    +0.000 HD
ENDROOT
BRANCH   1   9
ATOM      5  N   UNL     1       5.274   5.349  16.481  0.00  0.00    +0.000 N 
ATOM      6  N   UNL     1       5.525   6.605  16.032  0.00  0.00    +0.000 NA
ATOM      7  C   UNL     1       4.595   7.346  16.637  0.00  0.00    +0.000 A 
ATOM      8  C   UNL     1       3.769   6.591  17.495  0.00  0.00    +0.000 A 
ATOM      9  C   UNL     1       2.688   6.820  18.353  0.00  0.00    +0.000 A 
ATOM     10  C   UNL     1       2.155   5.719  19.034  0.00  0.00    +0.000 A 
ATOM     11  C   UNL     1       2.699   4.442  18.842  0.00  0.00    +0.000 A 
ATOM     12  N   UNL     1       3.758   4.207  18.023  0.00  0.00    +0.000 NA
ATOM     13  C   UNL     1       4.239   5.292  17.386  0.00  0.00    +0.000 A 
BRANCH   5  15
ATOM     14  C   UNL     1       5.950   4.183  14.425  0.00  0.00    +0.000 C 
ATOM     15  C   UNL     1       6.053   4.237  15.951  0.00  0.00    +0.000 C 
ATOM     16  C   UNL     1       7.516   4.320  16.390  0.00  0.00    +0.000 C 
ENDBRANCH   5  15
BRANCH  11  17
ATOM     17  C   UNL     1       2.111   3.252  19.579  0.00  0.00    +0.000 C 
ATOM     18  C   UNL     1       0.816   3.368  20.350  0.00  0.00    +0.000 C 
ATOM     19  C   UNL     1       0.843   2.618  19.055  0.00  0.00    +0.000 C 
ENDBRANCH  11  17
ENDBRANCH   1   9
BRANCH   3  20
ATOM     20  C   UNL     1       1.098   9.907  19.868  0.00  0.00    +0.000 C 
BRANCH  20  21
ATOM     21  C   UNL     1      -0.391   9.831  20.198  0.00  0.00    +0.000 C 
BRANCH  21  22
ATOM     22  C   UNL     1      -1.122  11.111  19.800  0.00  0.00    +0.000 C 
BRANCH  22  23
ATOM     23  N   UNL     1      -1.960  10.929  18.626  0.00  0.00    +0.000 N 
ATOM     24  C   UNL     1      -1.562  10.240  17.508  0.00  0.00    +0.000 A 
ATOM     25  C   UNL     1      -2.593  10.274  16.600  0.00  0.00    +0.000 A 
ATOM     26  C   UNL     1      -3.655  11.020  17.180  0.00  0.00    +0.000 A 
ATOM     27  C   UNL     1      -4.942  11.381  16.733  0.00  0.00    +0.000 A 
ATOM     28  C   UNL     1      -5.770  12.143  17.561  0.00  0.00    +0.000 A 
ATOM     29  C   UNL     1      -5.333  12.547  18.819  0.00  0.00    +0.000 A 
ATOM     30  C   UNL     1      -4.061  12.198  19.288  0.00  0.00    +0.000 A 
ATOM     31  C   UNL     1      -3.237  11.429  18.449  0.00  0.00    +0.000 A 
ENDBRANCH  22  23
ENDBRANCH  21  22
ENDBRANCH  20  21
ENDBRANCH   3  20
TORSDOF 7
ENDMDL
MODEL 2
REMARK VINA RESULT:      -8.3      0.837      1.631
REMARK  Name = 
REMARK  9 active torsions:
REMARK  status: ('A' for Active; 'I' for Inactive)
REMARK    1  A    between atoms: C_1  and  C_2
REMARK    2  A    between atoms: C_2  and  C_3
REMARK    3  A    between atoms: C_2  and  N_4
REMARK    4  A    between atoms: C_8  and  C_9
REMARK    5  A    between atoms: N_11  and  C_12
REMARK    6  A    between atoms: C_12  and  C_13
REMARK    7  A    between atoms: C_13  and  C_14
REMARK    8  A    between atoms: C_14  and  N_15
REMARK    9  A    between atoms: C_25  and  C_26
REMARK                            x       y       z     vdW  Elec       q    Type
REMARK                         _______ _______ _______ _____ _____    ______ ____
ROOT
ATOM      1  C   UNL     1       2.154   7.808  19.382  0.00  0.00    +0.000 C 
ATOM      2  O   UNL     1       2.167   8.720  18.565  0.00  0.00    +0.000 OA
ATOM      3  N   UNL     1       1.686   7.957  20.670  0.00  0.00    +0.000 N 
ATOM      4  H   UNL     1       1.810   7.216  21.347  0.00  0.00    +0.000 HD
ENDROOT
BRANCH   1   9
ATOM      5  N   UNL     1       5.057   5.318  16.699  0.00  0.00    +0.000 N 
ATOM      6  N   UNL     1       5.305   6.630  16.453  0.00  0.00    +0.000 NA
ATOM      7  C   UNL     1       4.449   7.266  17.253  0.00  0.00    +0.000 A 
ATOM      8  C   UNL     1       3.674   6.385  18.034  0.00  0.00    +0.000 A 
ATOM      9  C   UNL     1       2.671   6.475  19.007  0.00  0.00    +0.000 A 
ATOM     10  C   UNL     1       2.166   5.280  19.530  0.00  0.00    +0.000 A 
ATOM     11  C   UNL     1       2.656   4.049  19.077  0.00  0.00    +0.000 A 
ATOM     12  N   UNL     1       3.639   3.946  18.142  0.00  0.00    +0.000 NA
ATOM     13  C   UNL     1       4.097   5.118  17.664  0.00  0.00    +0.000 A 
BRANCH   5  15
ATOM     14  C   UNL     1       5.539   4.524  14.422  0.00  0.00    +0.000 C 
ATOM     15  C   UNL     1       5.760   4.305  15.921  0.00  0.00    +0.000 C 
ATOM     16  C   UNL     1       7.254   4.285  16.249  0.00  0.00    +0.000 C 
ENDBRANCH   5  15
BRANCH  11  17
ATOM     17  C   UNL     1       2.097   2.757  19.644  0.00  0.00    +0.000 C 
ATOM     18  C   UNL     1       0.870   2.754  20.528  0.00  0.00    +0.000 C 
ATOM     19  C   UNL     1       0.774   2.239  19.125  0.00  0.00    +0.000 C 
ENDBRANCH  11  17
ENDBRANCH   1   9
BRANCH   3  20
ATOM     20  C   UNL     1       1.139   9.224  21.116  0.00  0.00    +0.000 C 
BRANCH  20  21
ATOM     21  C   UNL     1      -0.239   9.500  20.521  0.00  0.00    +0.000 C 
BRANCH  21  22
ATOM     22  C   UNL     1      -0.190  10.612  19.476  0.00  0.00    +0.000 C 
BRANCH  22  23
ATOM     23  N   UNL     1      -1.508  11.132  19.155  0.00  0.00    +0.000 N 
ATOM     24  C   UNL     1      -2.230  11.942  19.994  0.00  0.00    +0.000 A 
ATOM     25  C   UNL     1      -3.424  12.234  19.377  0.00  0.00    +0.000 A 
ATOM     26  C   UNL     1      -3.435  11.570  18.121  0.00  0.00    +0.000 A 
ATOM     27  C   UNL     1      -4.372  11.500  17.071  0.00  0.00    +0.000 A 
ATOM     28  C   UNL     1      -4.080  10.739  15.936  0.00  0.00    +0.000 A 
ATOM     29  C   UNL     1      -2.875  10.050  15.839  0.00  0.00    +0.000 A 
ATOM     30  C   UNL     1      -1.925  10.107  16.866  0.00  0.00    +0.000 A 
ATOM     31  C   UNL     1      -2.227  10.877  18.001  0.00  0.00    +0.000 A 
ENDBRANCH  22  23
ENDBRANCH  21  22
ENDBRANCH  20  21
ENDBRANCH   3  20
TORSDOF 7
ENDMDL
MODEL 3
REMARK VINA RESULT:      -8.3      1.022      1.110
REMARK  Name = 
REMARK  9 active torsions:
REMARK  status: ('A' for Active; 'I' for Inactive)
REMARK    1  A    between atoms: C_1  and  C_2
REMARK    2  A    between atoms: C_2  and  C_3
REMARK    3  A    between atoms: C_2  and  N_4
REMARK    4  A    between atoms: C_8  and  C_9
REMARK    5  A    between atoms: N_11  and  C_12
REMARK    6  A    between atoms: C_12  and  C_13
REMARK    7  A    between atoms: C_13  and  C_14
REMARK    8  A    between atoms: C_14  and  N_15
REMARK    9  A    between atoms: C_25  and  C_26
REMARK                            x       y       z     vdW  Elec       q    Type
REMARK                         _______ _______ _______ _____ _____    ______ ____
ROOT
ATOM      1  C   UNL     1       2.178   7.728  18.874  0.00  0.00    +0.000 C 
ATOM      2  O   UNL     1       2.063   8.024  20.056  0.00  0.00    +0.000 OA
ATOM      3  N   UNL     1       1.783   8.559  17.848  0.00  0.00    +0.000 N 
ATOM      4  H   UNL     1       1.779   8.224  16.893  0.00  0.00    +0.000 HD
ENDROOT
BRANCH   1   9
ATOM      5  N   UNL     1       5.267   5.379  16.273  0.00  0.00    +0.000 N 
ATOM      6  N   UNL     1       5.490   6.702  16.068  0.00  0.00    +0.000 NA
ATOM      7  C   UNL     1       4.581   7.297  16.842  0.00  0.00    +0.000 A 
ATOM      8  C   UNL     1       3.796   6.377  17.567  0.00  0.00    +0.000 A 
ATOM      9  C   UNL     1       2.749   6.419  18.494  0.00  0.00    +0.000 A 
ATOM     10  C   UNL     1       2.253   5.199  18.967  0.00  0.00    +0.000 A 
ATOM     11  C   UNL     1       2.797   3.992  18.510  0.00  0.00    +0.000 A 
ATOM     12  N   UNL     1       3.823   3.937  17.620  0.00  0.00    +0.000 NA
ATOM     13  C   UNL     1       4.270   5.132  17.188  0.00  0.00    +0.000 A 
BRANCH   5  15
ATOM     14  C   UNL     1       5.368   4.137  14.153  0.00  0.00    +0.000 C 
ATOM     15  C   UNL     1       6.032   4.403  15.506  0.00  0.00    +0.000 C 
ATOM     16  C   UNL     1       7.482   4.853  15.317  0.00  0.00    +0.000 C 
ENDBRANCH   5  15
BRANCH  11  17
ATOM     17  C   UNL     1       2.248   2.673  19.023  0.00  0.00    +0.000 C 
ATOM     18  C   UNL     1       1.303   2.622  20.202  0.00  0.00    +0.000 C 
ATOM     19  C   UNL     1       0.782   2.361  18.823  0.00  0.00    +0.000 C 
ENDBRANCH  11  17
ENDBRANCH   1   9
BRANCH   3  20
ATOM     20  C   UNL     1       1.233   9.872  18.128  0.00  0.00    +0.000 C 
BRANCH  20  21
ATOM     21  C   UNL     1      -0.285   9.839  18.289  0.00  0.00    +0.000 C 
BRANCH  21  22
ATOM     22  C   UNL     1      -0.889  11.239  18.222  0.00  0.00    +0.000 C 
BRANCH  22  23
ATOM     23  N   UNL     1      -2.207  11.246  17.608  0.00  0.00    +0.000 N 
ATOM     24  C   UNL     1      -2.449  10.824  16.325  0.00  0.00    +0.000 A 
ATOM     25  C   UNL     1      -3.792  10.977  16.076  0.00  0.00    +0.000 A 
ATOM     26  C   UNL     1      -4.390  11.521  17.244  0.00  0.00    +0.000 A 
ATOM     27  C   UNL     1      -5.709  11.884  17.578  0.00  0.00    +0.000 A 
ATOM     28  C   UNL     1      -5.981  12.409  18.844  0.00  0.00    +0.000 A 
ATOM     29  C   UNL     1      -4.959  12.576  19.773  0.00  0.00    +0.000 A 
ATOM     30  C   UNL     1      -3.640  12.220  19.468  0.00  0.00    +0.000 A 
ATOM     31  C   UNL     1      -3.378  11.691  18.194  0.00  0.00    +0.000 A 
ENDBRANCH  22  23
ENDBRANCH  21  22
ENDBRANCH  20  21
ENDBRANCH   3  20
TORSDOF 7
ENDMDL
MODEL 4
REMARK VINA RESULT:      -8.2      5.873      9.028
REMARK  Name = 
REMARK  9 active torsions:
REMARK  status: ('A' for Active; 'I' for Inactive)
REMARK    1  A    between atoms: C_1  and  C_2
REMARK    2  A    between atoms: C_2  and  C_3
REMARK    3  A    between atoms: C_2  and  N_4
REMARK    4  A    between atoms: C_8  and  C_9
REMARK    5  A    between atoms: N_11  and  C_12
REMARK    6  A    between atoms: C_12  and  C_13
REMARK    7  A    between atoms: C_13  and  C_14
REMARK    8  A    between atoms: C_14  and  N_15
REMARK    9  A    between atoms: C_25  and  C_26
REMARK                            x       y       z     vdW  Elec       q    Type
REMARK                         _______ _______ _______ _____ _____    ______ ____
ROOT
ATOM      1  C   UNL     1       7.586   6.563  18.231  0.00  0.00    +0.000 C 
ATOM      2  O   UNL     1       8.167   6.114  19.210  0.00  0.00    +0.000 OA
ATOM      3  N   UNL     1       7.723   7.867  17.807  0.00  0.00    +0.000 N 
ATOM      4  H   UNL     1       7.128   8.230  17.073  0.00  0.00    +0.000 HD
ENDROOT
BRANCH   1   9
ATOM      5  N   UNL     1       3.512   4.283  18.051  0.00  0.00    +0.000 N 
ATOM      6  N   UNL     1       3.528   4.989  19.210  0.00  0.00    +0.000 NA
ATOM      7  C   UNL     1       4.709   5.610  19.183  0.00  0.00    +0.000 A 
ATOM      8  C   UNL     1       5.441   5.338  18.008  0.00  0.00    +0.000 A 
ATOM      9  C   UNL     1       6.674   5.697  17.453  0.00  0.00    +0.000 A 
ATOM     10  C   UNL     1       7.006   5.158  16.205  0.00  0.00    +0.000 A 
ATOM     11  C   UNL     1       6.121   4.287  15.556  0.00  0.00    +0.000 A 
ATOM     12  N   UNL     1       4.914   3.941  16.077  0.00  0.00    +0.000 NA
ATOM     13  C   UNL     1       4.634   4.479  17.279  0.00  0.00    +0.000 A 
BRANCH   5  15
ATOM     14  C   UNL     1       2.802   1.931  17.948  0.00  0.00    +0.000 C 
ATOM     15  C   UNL     1       2.389   3.395  17.778  0.00  0.00    +0.000 C 
ATOM     16  C   UNL     1       1.187   3.723  18.665  0.00  0.00    +0.000 C 
ENDBRANCH   5  15
BRANCH  11  17
ATOM     17  C   UNL     1       6.491   3.702  14.206  0.00  0.00    +0.000 C 
ATOM     18  C   UNL     1       5.564   3.822  13.018  0.00  0.00    +0.000 C 
ATOM     19  C   UNL     1       6.818   4.639  13.064  0.00  0.00    +0.000 C 
ENDBRANCH  11  17
ENDBRANCH   1   9
BRANCH   3  20
ATOM     20  C   UNL     1       8.613   8.781  18.497  0.00  0.00    +0.000 C 
BRANCH  20  21
ATOM     21  C   UNL     1       8.454  10.219  18.011  0.00  0.00    +0.000 C 
BRANCH  21  22
ATOM     22  C   UNL     1       9.758  11.004  18.137  0.00  0.00    +0.000 C 
BRANCH  22  23
ATOM     23  N   UNL     1       9.553  12.340  18.671  0.00  0.00    +0.000 N 
ATOM     24  C   UNL     1       9.540  13.473  17.898  0.00  0.00    +0.000 A 
ATOM     25  C   UNL     1       9.330  14.549  18.727  0.00  0.00    +0.000 A 
ATOM     26  C   UNL     1       9.221  14.056  20.056  0.00  0.00    +0.000 A 
ATOM     27  C   UNL     1       9.005  14.674  21.303  0.00  0.00    +0.000 A 
ATOM     28  C   UNL     1       8.949  13.891  22.460  0.00  0.00    +0.000 A 
ATOM     29  C   UNL     1       9.106  12.511  22.386  0.00  0.00    +0.000 A 
ATOM     30  C   UNL     1       9.318  11.872  21.159  0.00  0.00    +0.000 A 
ATOM     31  C   UNL     1       9.370  12.667  20.002  0.00  0.00    +0.000 A 
ENDBRANCH  22  23
ENDBRANCH  21  22
ENDBRANCH  20  21
ENDBRANCH   3  20
TORSDOF 7
ENDMDL
MODEL 5
REMARK VINA RESULT:      -8.2      1.043      1.273
REMARK  Name = 
REMARK  9 active torsions:
REMARK  status: ('A' for Active; 'I' for Inactive)
REMARK    1  A    between atoms: C_1  and  C_2
REMARK    2  A    between atoms: C_2  and  C_3
REMARK    3  A    between atoms: C_2  and  N_4
REMARK    4  A    between atoms: C_8  and  C_9
REMARK    5  A    between atoms: N_11  and  C_12
REMARK    6  A    between atoms: C_12  and  C_13
REMARK    7  A    between atoms: C_13  and  C_14
REMARK    8  A    between atoms: C_14  and  N_15
REMARK    9  A    between atoms: C_25  and  C_26
REMARK                            x       y       z     vdW  Elec       q    Type
REMARK                         _______ _______ _______ _____ _____    ______ ____
ROOT
ATOM      1  C   UNL     1       1.908   8.610  18.456  0.00  0.00    +0.000 C 
ATOM      2  O   UNL     1       1.916   9.026  17.305  0.00  0.00    +0.000 OA
ATOM      3  N   UNL     1       1.333   9.301  19.502  0.00  0.00    +0.000 N 
ATOM      4  H   UNL     1       1.461   8.984  20.454  0.00  0.00    +0.000 HD
ENDROOT
BRANCH   1   9
ATOM      5  N   UNL     1       5.191   5.465  17.382  0.00  0.00    +0.000 N 
ATOM      6  N   UNL     1       5.360   6.524  16.550  0.00  0.00    +0.000 NA
ATOM      7  C   UNL     1       4.398   7.370  16.921  0.00  0.00    +0.000 A 
ATOM      8  C   UNL     1       3.631   6.886  18.001  0.00  0.00    +0.000 A 
ATOM      9  C   UNL     1       2.552   7.320  18.779  0.00  0.00    +0.000 A 
ATOM     10  C   UNL     1       2.096   6.466  19.790  0.00  0.00    +0.000 A 
ATOM     11  C   UNL     1       2.711   5.224  19.994  0.00  0.00    +0.000 A 
ATOM     12  N   UNL     1       3.770   4.796  19.256  0.00  0.00    +0.000 NA
ATOM     13  C   UNL     1       4.175   5.645  18.292  0.00  0.00    +0.000 A 
BRANCH   5  15
ATOM     14  C   UNL     1       5.921   3.756  15.771  0.00  0.00    +0.000 C 
ATOM     15  C   UNL     1       6.026   4.283  17.204  0.00  0.00    +0.000 C 
ATOM     16  C   UNL     1       7.484   4.569  17.569  0.00  0.00    +0.000 C 
ENDBRANCH   5  15
BRANCH  11  17
ATOM     17  C   UNL     1       2.207   4.302  21.089  0.00  0.00    +0.000 C 
ATOM     18  C   UNL     1       1.219   3.196  20.790  0.00  0.00    +0.000 C 
ATOM     19  C   UNL     1       2.646   2.854  21.089  0.00  0.00    +0.000 C 
ENDBRANCH  11  17
ENDBRANCH   1   9
BRANCH   3  20
ATOM     20  C   UNL     1       0.661  10.565  19.273  0.00  0.00    +0.000 C 
BRANCH  20  21
ATOM     21  C   UNL     1      -0.833  10.386  19.010  0.00  0.00    +0.000 C 
BRANCH  21  22
ATOM     22  C   UNL     1      -1.503  11.706  18.641  0.00  0.00    +0.000 C 
BRANCH  22  23
ATOM     23  N   UNL     1      -2.778  11.513  17.970  0.00  0.00    +0.000 N 
ATOM     24  C   UNL     1      -2.897  11.049  16.685  0.00  0.00    +0.000 A 
ATOM     25  C   UNL     1      -4.235  10.999  16.376  0.00  0.00    +0.000 A 
ATOM     26  C   UNL     1      -4.959  11.459  17.508  0.00  0.00    +0.000 A 
ATOM     27  C   UNL     1      -6.331  11.625  17.779  0.00  0.00    +0.000 A 
ATOM     28  C   UNL     1      -6.734  12.115  19.024  0.00  0.00    +0.000 A 
ATOM     29  C   UNL     1      -5.791  12.440  19.994  0.00  0.00    +0.000 A 
ATOM     30  C   UNL     1      -4.421  12.280  19.752  0.00  0.00    +0.000 A 
ATOM     31  C   UNL     1      -4.027  11.784  18.498  0.00  0.00    +0.000 A 
ENDBRANCH  22  23
ENDBRANCH  21  22
ENDBRANCH  20  21
ENDBRANCH   3  20
TORSDOF 7
ENDMDL
MODEL 6
REMARK VINA RESULT:      -8.2      5.829      9.527
REMARK  Name = 
REMARK  9 active torsions:
REMARK  status: ('A' for Active; 'I' for Inactive)
REMARK    1  A    between atoms: C_1  and  C_2
REMARK    2  A    between atoms: C_2  and  C_3
REMARK    3  A    between atoms: C_2  and  N_4
REMARK    4  A    between atoms: C_8  and  C_9
REMARK    5  A    between atoms: N_11  and  C_12
REMARK    6  A    between atoms: C_12  and  C_13
REMARK    7  A    between atoms: C_13  and  C_14
REMARK    8  A    between atoms: C_14  and  N_15
REMARK    9  A    between atoms: C_25  and  C_26
REMARK                            x       y       z     vdW  Elec       q    Type
REMARK                         _______ _______ _______ _____ _____    ______ ____
ROOT
ATOM      1  C   UNL     1       7.687   6.428  18.349  0.00  0.00    +0.000 C 
ATOM      2  O   UNL     1       8.282   5.973  19.317  0.00  0.00    +0.000 OA
ATOM      3  N   UNL     1       7.829   7.731  17.923  0.00  0.00    +0.000 N 
ATOM      4  H   UNL     1       7.224   8.100  17.200  0.00  0.00    +0.000 HD
ENDROOT
BRANCH   1   9
ATOM      5  N   UNL     1       3.632   4.109  18.285  0.00  0.00    +0.000 N 
ATOM      6  N   UNL     1       3.690   4.787  19.460  0.00  0.00    +0.000 NA
ATOM      7  C   UNL     1       4.863   5.420  19.398  0.00  0.00    +0.000 A 
ATOM      8  C   UNL     1       5.547   5.186  18.187  0.00  0.00    +0.000 A 
ATOM      9  C   UNL     1       6.752   5.572  17.590  0.00  0.00    +0.000 A 
ATOM     10  C   UNL     1       7.035   5.068  16.316  0.00  0.00    +0.000 A 
ATOM     11  C   UNL     1       6.132   4.203  15.683  0.00  0.00    +0.000 A 
ATOM     12  N   UNL     1       4.952   3.831  16.246  0.00  0.00    +0.000 NA
ATOM     13  C   UNL     1       4.718   4.336  17.472  0.00  0.00    +0.000 A 
BRANCH   5  15
ATOM     14  C   UNL     1       2.279   2.287  19.232  0.00  0.00    +0.000 C 
ATOM     15  C   UNL     1       2.507   3.215  18.037  0.00  0.00    +0.000 C 
ATOM     16  C   UNL     1       1.234   3.997  17.710  0.00  0.00    +0.000 C 
ENDBRANCH   5  15
BRANCH  11  17
ATOM     17  C   UNL     1       6.450   3.655  14.304  0.00  0.00    +0.000 C 
ATOM     18  C   UNL     1       5.509   3.867  13.140  0.00  0.00    +0.000 C 
ATOM     19  C   UNL     1       6.802   4.621  13.194  0.00  0.00    +0.000 C 
ENDBRANCH  11  17
ENDBRANCH   1   9
BRANCH   3  20
ATOM     20  C   UNL     1       8.742   8.635  18.596  0.00  0.00    +0.000 C 
BRANCH  20  21
ATOM     21  C   UNL     1       8.453  10.098  18.266  0.00  0.00    +0.000 C 
BRANCH  21  22
ATOM     22  C   UNL     1       9.730  10.933  18.244  0.00  0.00    +0.000 C 
BRANCH  22  23
ATOM     23  N   UNL     1       9.849  11.798  19.406  0.00  0.00    +0.000 N 
ATOM     24  C   UNL     1       9.557  11.396  20.684  0.00  0.00    +0.000 A 
ATOM     25  C   UNL     1       9.773  12.464  21.523  0.00  0.00    +0.000 A 
ATOM     26  C   UNL     1      10.203  13.559  20.727  0.00  0.00    +0.000 A 
ATOM     27  C   UNL     1      10.569  14.887  21.023  0.00  0.00    +0.000 A 
ATOM     28  C   UNL     1      10.953  15.744  19.988  0.00  0.00    +0.000 A 
ATOM     29  C   UNL     1      10.976  15.295  18.672  0.00  0.00    +0.000 A 
ATOM     30  C   UNL     1      10.621  13.979  18.351  0.00  0.00    +0.000 A 
ATOM     31  C   UNL     1      10.238  13.125  19.399  0.00  0.00    +0.000 A 
ENDBRANCH  22  23
ENDBRANCH  21  22
ENDBRANCH  20  21
ENDBRANCH   3  20
TORSDOF 7
ENDMDL
MODEL 7
REMARK VINA RESULT:      -8.2      0.857      1.657
REMARK  Name = 
REMARK  9 active torsions:
REMARK  status: ('A' for Active; 'I' for Inactive)
REMARK    1  A    between atoms: C_1  and  C_2
REMARK    2  A    between atoms: C_2  and  C_3
REMARK    3  A    between atoms: C_2  and  N_4
REMARK    4  A    between atoms: C_8  and  C_9
REMARK    5  A    between atoms: N_11  and  C_12
REMARK    6  A    between atoms: C_12  and  C_13
REMARK    7  A    between atoms: C_13  and  C_14
REMARK    8  A    between atoms: C_14  and  N_15
REMARK    9  A    between atoms: C_25  and  C_26
REMARK                            x       y       z     vdW  Elec       q    Type
REMARK                         _______ _______ _______ _____ _____    ______ ____
ROOT
ATOM      1  C   UNL     1       2.085   8.356  18.206  0.00  0.00    +0.000 C 
ATOM      2  O   UNL     1       2.167   9.148  17.277  0.00  0.00    +0.000 OA
ATOM      3  N   UNL     1       1.552   8.688  19.433  0.00  0.00    +0.000 N 
ATOM      4  H   UNL     1       1.620   8.044  20.210  0.00  0.00    +0.000 HD
ENDROOT
BRANCH   1   9
ATOM      5  N   UNL     1       5.596   5.566  16.898  0.00  0.00    +0.000 N 
ATOM      6  N   UNL     1       6.043   6.844  16.809  0.00  0.00    +0.000 NA
ATOM      7  C   UNL     1       4.994   7.570  17.201  0.00  0.00    +0.000 A 
ATOM      8  C   UNL     1       3.889   6.777  17.571  0.00  0.00    +0.000 A 
ATOM      9  C   UNL     1       2.587   6.975  18.045  0.00  0.00    +0.000 A 
ATOM     10  C   UNL     1       1.803   5.841  18.283  0.00  0.00    +0.000 A 
ATOM     11  C   UNL     1       2.322   4.562  18.041  0.00  0.00    +0.000 A 
ATOM     12  N   UNL     1       3.589   4.354  17.593  0.00  0.00    +0.000 NA
ATOM     13  C   UNL     1       4.309   5.471  17.375  0.00  0.00    +0.000 A 
BRANCH   5  15
ATOM     14  C   UNL     1       6.843   4.658  14.982  0.00  0.00    +0.000 C 
ATOM     15  C   UNL     1       6.461   4.480  16.453  0.00  0.00    +0.000 C 
ATOM     16  C   UNL     1       7.713   4.370  17.326  0.00  0.00    +0.000 C 
ENDBRANCH   5  15
BRANCH  11  17
ATOM     17  C   UNL     1       1.463   3.337  18.295  0.00  0.00    +0.000 C 
ATOM     18  C   UNL     1       2.048   2.080  18.899  0.00  0.00    +0.000 C 
ATOM     19  C   UNL     1       1.145   2.947  19.721  0.00  0.00    +0.000 C 
ENDBRANCH  11  17
ENDBRANCH   1   9
BRANCH   3  20
ATOM     20  C   UNL     1       1.016  10.014  19.673  0.00  0.00    +0.000 C 
BRANCH  20  21
ATOM     21  C   UNL     1      -0.427  10.149  19.190  0.00  0.00    +0.000 C 
BRANCH  21  22
ATOM     22  C   UNL     1      -0.773  11.596  18.847  0.00  0.00    +0.000 C 
BRANCH  22  23
ATOM     23  N   UNL     1      -2.088  11.982  19.330  0.00  0.00    +0.000 N 
ATOM     24  C   UNL     1      -2.311  12.530  20.568  0.00  0.00    +0.000 A 
ATOM     25  C   UNL     1      -3.660  12.762  20.691  0.00  0.00    +0.000 A 
ATOM     26  C   UNL     1      -4.284  12.332  19.490  0.00  0.00    +0.000 A 
ATOM     27  C   UNL     1      -5.620  12.321  19.042  0.00  0.00    +0.000 A 
ATOM     28  C   UNL     1      -5.919  11.816  17.774  0.00  0.00    +0.000 A 
ATOM     29  C   UNL     1      -4.908  11.323  16.955  0.00  0.00    +0.000 A 
ATOM     30  C   UNL     1      -3.572  11.325  17.374  0.00  0.00    +0.000 A 
ATOM     31  C   UNL     1      -3.282  11.838  18.649  0.00  0.00    +0.000 A 
ENDBRANCH  22  23
ENDBRANCH  21  22
ENDBRANCH  20  21
ENDBRANCH   3  20
TORSDOF 7
ENDMDL
MODEL 8
REMARK VINA RESULT:      -8.0      2.007      2.768
REMARK  Name = 
REMARK  9 active torsions:
REMARK  status: ('A' for Active; 'I' for Inactive)
REMARK    1  A    between atoms: C_1  and  C_2
REMARK    2  A    between atoms: C_2  and  C_3
REMARK    3  A    between atoms: C_2  and  N_4
REMARK    4  A    between atoms: C_8  and  C_9
REMARK    5  A    between atoms: N_11  and  C_12
REMARK    6  A    between atoms: C_12  and  C_13
REMARK    7  A    between atoms: C_13  and  C_14
REMARK    8  A    between atoms: C_14  and  N_15
REMARK    9  A    between atoms: C_25  and  C_26
REMARK                            x       y       z     vdW  Elec       q    Type
REMARK                         _______ _______ _______ _____ _____    ______ ____
ROOT
ATOM      1  C   UNL     1       2.264   7.808  18.929  0.00  0.00    +0.000 C 
ATOM      2  O   UNL     1       2.068   8.068  20.110  0.00  0.00    +0.000 OA
ATOM      3  N   UNL     1       2.020   8.703  17.911  0.00  0.00    +0.000 N 
ATOM      4  H   UNL     1       2.074   8.405  16.946  0.00  0.00    +0.000 HD
ENDROOT
BRANCH   1   9
ATOM      5  N   UNL     1       5.201   5.318  16.284  0.00  0.00    +0.000 N 
ATOM      6  N   UNL     1       5.481   6.629  16.073  0.00  0.00    +0.000 NA
ATOM      7  C   UNL     1       4.613   7.266  16.861  0.00  0.00    +0.000 A 
ATOM      8  C   UNL     1       3.797   6.383  17.599  0.00  0.00    +0.000 A 
ATOM      9  C   UNL     1       2.768   6.473  18.543  0.00  0.00    +0.000 A 
ATOM     10  C   UNL     1       2.224   5.278  19.025  0.00  0.00    +0.000 A 
ATOM     11  C   UNL     1       2.705   4.047  18.561  0.00  0.00    +0.000 A 
ATOM     12  N   UNL     1       3.714   3.944  17.655  0.00  0.00    +0.000 NA
ATOM     13  C   UNL     1       4.208   5.117  17.215  0.00  0.00    +0.000 A 
BRANCH   5  15
ATOM     14  C   UNL     1       5.257   4.128  14.133  0.00  0.00    +0.000 C 
ATOM     15  C   UNL     1       5.908   4.307  15.506  0.00  0.00    +0.000 C 
ATOM     16  C   UNL     1       7.391   4.651  15.361  0.00  0.00    +0.000 C 
ENDBRANCH   5  15
BRANCH  11  17
ATOM     17  C   UNL     1       2.104   2.755  19.084  0.00  0.00    +0.000 C 
ATOM     18  C   UNL     1       1.170   2.748  20.273  0.00  0.00    +0.000 C 
ATOM     19  C   UNL     1       0.624   2.506  18.900  0.00  0.00    +0.000 C 
ENDBRANCH  11  17
ENDBRANCH   1   9
BRANCH   3  20
ATOM     20  C   UNL     1       1.545  10.043  18.200  0.00  0.00    +0.000 C 
BRANCH  20  21
ATOM     21  C   UNL     1       0.084  10.053  18.645  0.00  0.00    +0.000 C 
BRANCH  21  22
ATOM     22  C   UNL     1      -0.320  11.408  19.219  0.00  0.00    +0.000 C 
BRANCH  22  23
ATOM     23  N   UNL     1      -0.692  11.329  20.622  0.00  0.00    +0.000 N 
ATOM     24  C   UNL     1      -0.002  10.590  21.550  0.00  0.00    +0.000 A 
ATOM     25  C   UNL     1      -0.633  10.738  22.762  0.00  0.00    +0.000 A 
ATOM     26  C   UNL     1      -1.754  11.589  22.566  0.00  0.00    +0.000 A 
ATOM     27  C   UNL     1      -2.751  12.091  23.425  0.00  0.00    +0.000 A 
ATOM     28  C   UNL     1      -3.746  12.927  22.912  0.00  0.00    +0.000 A 
ATOM     29  C   UNL     1      -3.758  13.264  21.562  0.00  0.00    +0.000 A 
ATOM     30  C   UNL     1      -2.777  12.782  20.688  0.00  0.00    +0.000 A 
ATOM     31  C   UNL     1      -1.779  11.945  21.214  0.00  0.00    +0.000 A 
ENDBRANCH  22  23
ENDBRANCH  21  22
ENDBRANCH  20  21
ENDBRANCH   3  20
TORSDOF 7
ENDMDL
MODEL 9
REMARK VINA RESULT:      -8.0      1.878      2.615
REMARK  Name = 
REMARK  9 active torsions:
REMARK  status: ('A' for Active; 'I' for Inactive)
REMARK    1  A    between atoms: C_1  and  C_2
REMARK    2  A    between atoms: C_2  and  C_3
REMARK    3  A    between atoms: C_2  and  N_4
REMARK    4  A    between atoms: C_8  and  C_9
REMARK    5  A    between atoms: N_11  and  C_12
REMARK    6  A    between atoms: C_12  and  C_13
REMARK    7  A    between atoms: C_13  and  C_14
REMARK    8  A    between atoms: C_14  and  N_15
REMARK    9  A    between atoms: C_25  and  C_26
REMARK                            x       y       z     vdW  Elec       q    Type
REMARK                         _______ _______ _______ _____ _____    ______ ____
ROOT
ATOM      1  C   UNL     1       2.053   8.337  18.227  0.00  0.00    +0.000 C 
ATOM      2  O   UNL     1       2.118   9.125  17.292  0.00  0.00    +0.000 OA
ATOM      3  N   UNL     1       1.524   8.669  19.456  0.00  0.00    +0.000 N 
ATOM      4  H   UNL     1       1.607   8.030  20.236  0.00  0.00    +0.000 HD
ENDROOT
BRANCH   1   9
ATOM      5  N   UNL     1       5.599   5.587  16.929  0.00  0.00    +0.000 N 
ATOM      6  N   UNL     1       6.030   6.871  16.839  0.00  0.00    +0.000 NA
ATOM      7  C   UNL     1       4.973   7.585  17.227  0.00  0.00    +0.000 A 
ATOM      8  C   UNL     1       3.876   6.779  17.597  0.00  0.00    +0.000 A 
ATOM      9  C   UNL     1       2.572   6.963  18.070  0.00  0.00    +0.000 A 
ATOM     10  C   UNL     1       1.802   5.819  18.309  0.00  0.00    +0.000 A 
ATOM     11  C   UNL     1       2.337   4.546  18.071  0.00  0.00    +0.000 A 
ATOM     12  N   UNL     1       3.607   4.352  17.625  0.00  0.00    +0.000 NA
ATOM     13  C   UNL     1       4.313   5.478  17.406  0.00  0.00    +0.000 A 
BRANCH   5  15
ATOM     14  C   UNL     1       6.868   4.697  15.021  0.00  0.00    +0.000 C 
ATOM     15  C   UNL     1       6.478   4.511  16.489  0.00  0.00    +0.000 C 
ATOM     16  C   UNL     1       7.725   4.411  17.370  0.00  0.00    +0.000 C 
ENDBRANCH   5  15
BRANCH  11  17
ATOM     17  C   UNL     1       1.492   3.312  18.326  0.00  0.00    +0.000 C 
ATOM     18  C   UNL     1       2.048   2.122  19.077  0.00  0.00    +0.000 C 
ATOM     19  C   UNL     1       1.041   3.011  19.738  0.00  0.00    +0.000 C 
ENDBRANCH  11  17
ENDBRANCH   1   9
BRANCH   3  20
ATOM     20  C   UNL     1       0.972   9.990  19.692  0.00  0.00    +0.000 C 
BRANCH  20  21
ATOM     21  C   UNL     1      -0.105   9.979  20.774  0.00  0.00    +0.000 C 
BRANCH  21  22
ATOM     22  C   UNL     1      -0.288  11.359  21.400  0.00  0.00    +0.000 C 
BRANCH  22  23
ATOM     23  N   UNL     1      -1.595  11.929  21.118  0.00  0.00    +0.000 N 
ATOM     24  C   UNL     1      -2.020  12.265  19.858  0.00  0.00    +0.000 A 
ATOM     25  C   UNL     1      -3.291  12.779  19.964  0.00  0.00    +0.000 A 
ATOM     26  C   UNL     1      -3.651  12.764  21.338  0.00  0.00    +0.000 A 
ATOM     27  C   UNL     1      -4.807  13.156  22.041  0.00  0.00    +0.000 A 
ATOM     28  C   UNL     1      -4.851  13.013  23.431  0.00  0.00    +0.000 A 
ATOM     29  C   UNL     1      -3.763  12.489  24.121  0.00  0.00    +0.000 A 
ATOM     30  C   UNL     1      -2.604  12.088  23.446  0.00  0.00    +0.000 A 
ATOM     31  C   UNL     1      -2.570  12.234  22.050  0.00  0.00    +0.000 A 
ENDBRANCH  22  23
ENDBRANCH  21  22
ENDBRANCH  20  21
ENDBRANCH   3  20
TORSDOF 7
ENDMDL
