MODEL 1
REMARK VINA RESULT:      -8.3      0.000      0.000
REMARK  Name = 
REMARK  4 active torsions:
REMARK  status: ('A' for Active; 'I' for Inactive)
REMARK    1  A    between atoms: C_1  and  C_2
REMARK    2  A    between atoms: C_4  and  C_5
REMARK    3  A    between atoms: C_19  and  C_20
REMARK    4  A    between atoms: C_19  and  C_21
REMARK                            x       y       z     vdW  Elec       q    Type
REMARK                         _______ _______ _______ _____ _____    ______ ____
ROOT
ATOM      1  C   UNL     1       2.211   6.740  19.992  0.00  0.00    +0.000 C 
ATOM      2  O   UNL     1       2.740   7.361  19.073  0.00  0.00    +0.000 OA
ATOM      3  N   UNL     1       1.432   7.293  20.985  0.00  0.00    +0.000 N 
ATOM      4  C   UNL     1       1.059   8.608  20.928  0.00  0.00    +0.000 A 
ATOM      5  N   UNL     1       1.120   9.420  19.907  0.00  0.00    +0.000 NA
ATOM      6  C   UNL     1       0.622  10.655  20.263  0.00  0.00    +0.000 A 
ATOM      7  C   UNL     1       0.513  11.769  19.410  0.00  0.00    +0.000 A 
ATOM      8  C   UNL     1      -0.020  12.957  19.910  0.00  0.00    +0.000 A 
ATOM      9 BR   UNL     1      -0.199  14.448  18.760  0.00  0.00    +0.000 Br
ATOM     10  C   UNL     1      -0.429  13.057  21.236  0.00  0.00    +0.000 A 
ATOM     11  C   UNL     1      -0.320  11.964  22.103  0.00  0.00    +0.000 A 
ATOM     12  C   UNL     1       0.199  10.764  21.590  0.00  0.00    +0.000 A 
ATOM     13  S   UNL     1       0.415   9.239  22.371  0.00  0.00    +0.000 S 
ATOM     14  H   UNL     1       1.207   6.779  21.822  0.00  0.00    +0.000 HD
ENDROOT
BRANCH   1  18
ATOM     15  C   UNL     1       1.741   2.536  21.820  0.00  0.00    +0.000 C 
ATOM     16  C   UNL     1       1.141   3.030  20.502  0.00  0.00    +0.000 C 
ATOM     17  C   UNL     1       1.063   4.560  20.451  0.00  0.00    +0.000 C 
ATOM     18  C   UNL     1       2.409   5.230  20.141  0.00  0.00    +0.000 C 
ATOM     19  C   UNL     1       3.023   4.651  18.850  0.00  0.00    +0.000 C 
ATOM     20  C   UNL     1       3.181   3.117  18.864  0.00  0.00    +0.000 C 
ATOM     21  C   UNL     1       4.325   2.694  19.801  0.00  0.00    +0.000 C 
ATOM     22  C   UNL     1       3.565   2.642  17.446  0.00  0.00    +0.000 C 
ATOM     23  C   UNL     1       1.834   2.463  19.252  0.00  0.00    +0.000 C 
ENDBRANCH   1  18
TORSDOF 1
ENDMDL
MODEL 2
REMARK VINA RESULT:      -8.0      2.069      3.204
REMARK  Name = 
REMARK  4 active torsions:
REMARK  status: ('A' for Active; 'I' for Inactive)
REMARK    1  A    between atoms: C_1  and  C_2
REMARK    2  A    between atoms: C_4  and  C_5
REMARK    3  A    between atoms: C_19  and  C_20
REMARK    4  A    between atoms: C_19  and  C_21
REMARK                            x       y       z     vdW  Elec       q    Type
REMARK                         _______ _______ _______ _____ _____    ______ ____
ROOT
ATOM      1  C   UNL     1       2.514   7.910  18.129  0.00  0.00    +0.000 C 
ATOM      2  O   UNL     1       2.320   8.894  17.418  0.00  0.00    +0.000 OA
ATOM      3  N   UNL     1       2.107   7.781  19.439  0.00  0.00    +0.000 N 
ATOM      4  C   UNL     1       1.297   8.721  20.015  0.00  0.00    +0.000 A 
ATOM      5  N   UNL     1       0.605   9.658  19.425  0.00  0.00    +0.000 NA
ATOM      6  C   UNL     1      -0.098  10.380  20.366  0.00  0.00    +0.000 A 
ATOM      7  C   UNL     1      -0.966  11.453  20.092  0.00  0.00    +0.000 A 
ATOM      8  C   UNL     1      -1.618  12.087  21.149  0.00  0.00    +0.000 A 
ATOM      9 BR   UNL     1      -2.812  13.508  20.785  0.00  0.00    +0.000 Br
ATOM     10  C   UNL     1      -1.410  11.683  22.465  0.00  0.00    +0.000 A 
ATOM     11  C   UNL     1      -0.543  10.624  22.760  0.00  0.00    +0.000 A 
ATOM     12  C   UNL     1       0.095   9.976  21.690  0.00  0.00    +0.000 A 
ATOM     13  S   UNL     1       1.169   8.624  21.709  0.00  0.00    +0.000 S 
ATOM     14  H   UNL     1       2.476   7.054  20.033  0.00  0.00    +0.000 HD
ENDROOT
BRANCH   1  18
ATOM     15  C   UNL     1       5.373   5.522  15.416  0.00  0.00    +0.000 C 
ATOM     16  C   UNL     1       5.624   5.935  16.867  0.00  0.00    +0.000 C 
ATOM     17  C   UNL     1       4.735   7.111  17.287  0.00  0.00    +0.000 C 
ATOM     18  C   UNL     1       3.291   6.700  17.608  0.00  0.00    +0.000 C 
ATOM     19  C   UNL     1       3.265   5.569  18.655  0.00  0.00    +0.000 C 
ATOM     20  C   UNL     1       4.097   4.331  18.263  0.00  0.00    +0.000 C 
ATOM     21  C   UNL     1       3.404   3.540  17.140  0.00  0.00    +0.000 C 
ATOM     22  C   UNL     1       4.193   3.388  19.481  0.00  0.00    +0.000 C 
ATOM     23  C   UNL     1       5.526   4.774  17.870  0.00  0.00    +0.000 C 
ENDBRANCH   1  18
TORSDOF 1
ENDMDL
MODEL 3
REMARK VINA RESULT:      -8.0      1.927      2.424
REMARK  Name = 
REMARK  4 active torsions:
REMARK  status: ('A' for Active; 'I' for Inactive)
REMARK    1  A    between atoms: C_1  and  C_2
REMARK    2  A    between atoms: C_4  and  C_5
REMARK    3  A    between atoms: C_19  and  C_20
REMARK    4  A    between atoms: C_19  and  C_21
REMARK                            x       y       z     vdW  Elec       q    Type
REMARK                         _______ _______ _______ _____ _____    ______ ____
ROOT
ATOM      1  C   UNL     1       2.402   7.625  18.913  0.00  0.00    +0.000 C 
ATOM      2  O   UNL     1       2.175   8.450  18.030  0.00  0.00    +0.000 OA
ATOM      3  N   UNL     1       1.994   7.730  20.225  0.00  0.00    +0.000 N 
ATOM      4  C   UNL     1       1.147   8.731  20.616  0.00  0.00    +0.000 A 
ATOM      5  N   UNL     1       0.423   9.514  19.862  0.00  0.00    +0.000 NA
ATOM      6  C   UNL     1      -0.310  10.374  20.651  0.00  0.00    +0.000 A 
ATOM      7  C   UNL     1      -1.216  11.343  20.182  0.00  0.00    +0.000 A 
ATOM      8  C   UNL     1      -1.895  12.140  21.103  0.00  0.00    +0.000 A 
ATOM      9 BR   UNL     1      -3.138  13.422  20.480  0.00  0.00    +0.000 Br
ATOM     10  C   UNL     1      -1.678  11.999  22.470  0.00  0.00    +0.000 A 
ATOM     11  C   UNL     1      -0.774  11.048  22.957  0.00  0.00    +0.000 A 
ATOM     12  C   UNL     1      -0.107  10.234  22.027  0.00  0.00    +0.000 A 
ATOM     13  S   UNL     1       1.016   8.951  22.298  0.00  0.00    +0.000 S 
ATOM     14  H   UNL     1       2.386   7.142  20.944  0.00  0.00    +0.000 HD
ENDROOT
BRANCH   1  18
ATOM     15  C   UNL     1       3.669   3.203  19.186  0.00  0.00    +0.000 C 
ATOM     16  C   UNL     1       3.018   3.893  17.986  0.00  0.00    +0.000 C 
ATOM     17  C   UNL     1       2.285   5.176  18.396  0.00  0.00    +0.000 C 
ATOM     18  C   UNL     1       3.225   6.368  18.627  0.00  0.00    +0.000 C 
ATOM     19  C   UNL     1       4.127   6.599  17.399  0.00  0.00    +0.000 C 
ATOM     20  C   UNL     1       4.936   5.357  16.972  0.00  0.00    +0.000 C 
ATOM     21  C   UNL     1       6.074   5.077  17.968  0.00  0.00    +0.000 C 
ATOM     22  C   UNL     1       5.597   5.638  15.605  0.00  0.00    +0.000 C 
ATOM     23  C   UNL     1       3.983   4.149  16.817  0.00  0.00    +0.000 C 
ENDBRANCH   1  18
TORSDOF 1
ENDMDL
MODEL 4
REMARK VINA RESULT:      -7.7      0.758      2.089
REMARK  Name = 
REMARK  4 active torsions:
REMARK  status: ('A' for Active; 'I' for Inactive)
REMARK    1  A    between atoms: C_1  and  C_2
REMARK    2  A    between atoms: C_4  and  C_5
REMARK    3  A    between atoms: C_19  and  C_20
REMARK    4  A    between atoms: C_19  and  C_21
REMARK                            x       y       z     vdW  Elec       q    Type
REMARK                         _______ _______ _______ _____ _____    ______ ____
ROOT
ATOM      1  C   UNL     1       2.306   7.138  19.101  0.00  0.00    +0.000 C 
ATOM      2  O   UNL     1       2.832   7.905  18.298  0.00  0.00    +0.000 OA
ATOM      3  N   UNL     1       1.523   7.517  20.171  0.00  0.00    +0.000 N 
ATOM      4  C   UNL     1       1.144   8.822  20.330  0.00  0.00    +0.000 A 
ATOM      5  N   UNL     1       1.202   9.790  19.457  0.00  0.00    +0.000 NA
ATOM      6  C   UNL     1       0.698  10.948  20.010  0.00  0.00    +0.000 A 
ATOM      7  C   UNL     1       0.584  12.187  19.353  0.00  0.00    +0.000 A 
ATOM      8  C   UNL     1       0.045  13.274  20.040  0.00  0.00    +0.000 A 
ATOM      9 BR   UNL     1      -0.140  14.933  19.151  0.00  0.00    +0.000 Br
ATOM     10  C   UNL     1      -0.365  13.153  21.364  0.00  0.00    +0.000 A 
ATOM     11  C   UNL     1      -0.252  11.932  22.040  0.00  0.00    +0.000 A 
ATOM     12  C   UNL     1       0.273  10.835  21.337  0.00  0.00    +0.000 A 
ATOM     13  S   UNL     1       0.495   9.203  21.856  0.00  0.00    +0.000 S 
ATOM     14  H   UNL     1       1.300   6.870  20.911  0.00  0.00    +0.000 HD
ENDROOT
BRANCH   1  18
ATOM     15  C   UNL     1       4.123   3.169  17.624  0.00  0.00    +0.000 C 
ATOM     16  C   UNL     1       4.316   3.803  19.002  0.00  0.00    +0.000 C 
ATOM     17  C   UNL     1       4.012   5.306  18.984  0.00  0.00    +0.000 C 
ATOM     18  C   UNL     1       2.510   5.625  18.999  0.00  0.00    +0.000 C 
ATOM     19  C   UNL     1       1.813   4.920  20.180  0.00  0.00    +0.000 C 
ATOM     20  C   UNL     1       2.035   3.395  20.220  0.00  0.00    +0.000 C 
ATOM     21  C   UNL     1       1.233   2.697  19.108  0.00  0.00    +0.000 C 
ATOM     22  C   UNL     1       1.506   2.848  21.564  0.00  0.00    +0.000 C 
ATOM     23  C   UNL     1       3.548   3.091  20.128  0.00  0.00    +0.000 C 
ENDBRANCH   1  18
TORSDOF 1
ENDMDL
MODEL 5
REMARK VINA RESULT:      -7.7      2.089      2.679
REMARK  Name = 
REMARK  4 active torsions:
REMARK  status: ('A' for Active; 'I' for Inactive)
REMARK    1  A    between atoms: C_1  and  C_2
REMARK    2  A    between atoms: C_4  and  C_5
REMARK    3  A    between atoms: C_19  and  C_20
REMARK    4  A    between atoms: C_19  and  C_21
REMARK                            x       y       z     vdW  Elec       q    Type
REMARK                         _______ _______ _______ _____ _____    ______ ____
ROOT
ATOM      1  C   UNL     1       2.283   6.571  19.707  0.00  0.00    +0.000 C 
ATOM      2  O   UNL     1       1.623   6.375  20.725  0.00  0.00    +0.000 OA
ATOM      3  N   UNL     1       2.257   7.722  18.948  0.00  0.00    +0.000 N 
ATOM      4  C   UNL     1       1.575   8.827  19.379  0.00  0.00    +0.000 A 
ATOM      5  N   UNL     1       1.112   9.072  20.576  0.00  0.00    +0.000 NA
ATOM      6  C   UNL     1       0.506  10.310  20.596  0.00  0.00    +0.000 A 
ATOM      7  C   UNL     1      -0.085  10.913  21.722  0.00  0.00    +0.000 A 
ATOM      8  C   UNL     1      -0.655  12.179  21.593  0.00  0.00    +0.000 A 
ATOM      9 BR   UNL     1      -1.423  13.008  23.111  0.00  0.00    +0.000 Br
ATOM     10  C   UNL     1      -0.660  12.843  20.371  0.00  0.00    +0.000 A 
ATOM     11  C   UNL     1      -0.085  12.257  19.236  0.00  0.00    +0.000 A 
ATOM     12  C   UNL     1       0.506  10.990  19.375  0.00  0.00    +0.000 A 
ATOM     13  S   UNL     1       1.331  10.029  18.201  0.00  0.00    +0.000 S 
ATOM     14  H   UNL     1       2.647   7.746  18.019  0.00  0.00    +0.000 HD
ENDROOT
BRANCH   1  18
ATOM     15  C   UNL     1       4.042   2.356  19.099  0.00  0.00    +0.000 C 
ATOM     16  C   UNL     1       3.217   3.154  18.088  0.00  0.00    +0.000 C 
ATOM     17  C   UNL     1       2.389   4.250  18.769  0.00  0.00    +0.000 C 
ATOM     18  C   UNL     1       3.210   5.491  19.146  0.00  0.00    +0.000 C 
ATOM     19  C   UNL     1       3.970   6.035  17.921  0.00  0.00    +0.000 C 
ATOM     20  C   UNL     1       4.868   4.993  17.225  0.00  0.00    +0.000 C 
ATOM     21  C   UNL     1       6.113   4.688  18.076  0.00  0.00    +0.000 C 
ATOM     22  C   UNL     1       5.373   5.580  15.889  0.00  0.00    +0.000 C 
ATOM     23  C   UNL     1       4.042   3.721  16.921  0.00  0.00    +0.000 C 
ENDBRANCH   1  18
TORSDOF 1
ENDMDL
MODEL 6
REMARK VINA RESULT:      -7.4      3.919      9.121
REMARK  Name = 
REMARK  4 active torsions:
REMARK  status: ('A' for Active; 'I' for Inactive)
REMARK    1  A    between atoms: C_1  and  C_2
REMARK    2  A    between atoms: C_4  and  C_5
REMARK    3  A    between atoms: C_19  and  C_20
REMARK    4  A    between atoms: C_19  and  C_21
REMARK                            x       y       z     vdW  Elec       q    Type
REMARK                         _______ _______ _______ _____ _____    ______ ____
ROOT
ATOM      1  C   UNL     1      -1.134  11.462  22.695  0.00  0.00    +0.000 C 
ATOM      2  O   UNL     1      -0.467  10.758  23.450  0.00  0.00    +0.000 OA
ATOM      3  N   UNL     1      -1.001  11.510  21.324  0.00  0.00    +0.000 N 
ATOM      4  C   UNL     1      -0.183  10.630  20.670  0.00  0.00    +0.000 A 
ATOM      5  N   UNL     1       0.346   9.527  21.130  0.00  0.00    +0.000 NA
ATOM      6  C   UNL     1       1.090   8.920  20.141  0.00  0.00    +0.000 A 
ATOM      7  C   UNL     1       1.785   7.703  20.272  0.00  0.00    +0.000 A 
ATOM      8  C   UNL     1       2.492   7.204  19.178  0.00  0.00    +0.000 A 
ATOM      9 BR   UNL     1       3.401   5.553  19.337  0.00  0.00    +0.000 Br
ATOM     10  C   UNL     1       2.531   7.898  17.972  0.00  0.00    +0.000 A 
ATOM     11  C   UNL     1       1.855   9.115  17.825  0.00  0.00    +0.000 A 
ATOM     12  C   UNL     1       1.127   9.603  18.923  0.00  0.00    +0.000 A 
ATOM     13  S   UNL     1       0.158  11.026  19.051  0.00  0.00    +0.000 S 
ATOM     14  H   UNL     1      -1.417  12.252  20.783  0.00  0.00    +0.000 HD
ENDROOT
BRANCH   1  18
ATOM     15  C   UNL     1      -2.930  14.793  25.324  0.00  0.00    +0.000 C 
ATOM     16  C   UNL     1      -2.623  14.877  23.828  0.00  0.00    +0.000 C 
ATOM     17  C   UNL     1      -1.598  13.822  23.397  0.00  0.00    +0.000 C 
ATOM     18  C   UNL     1      -2.197  12.417  23.240  0.00  0.00    +0.000 C 
ATOM     19  C   UNL     1      -3.413  12.445  22.293  0.00  0.00    +0.000 C 
ATOM     20  C   UNL     1      -4.508  13.449  22.707  0.00  0.00    +0.000 C 
ATOM     21  C   UNL     1      -5.269  12.947  23.946  0.00  0.00    +0.000 C 
ATOM     22  C   UNL     1      -5.540  13.562  21.563  0.00  0.00    +0.000 C 
ATOM     23  C   UNL     1      -3.873  14.840  22.934  0.00  0.00    +0.000 C 
ENDBRANCH   1  18
TORSDOF 1
ENDMDL
MODEL 7
REMARK VINA RESULT:      -7.4      1.856      2.511
REMARK  Name = 
REMARK  4 active torsions:
REMARK  status: ('A' for Active; 'I' for Inactive)
REMARK    1  A    between atoms: C_1  and  C_2
REMARK    2  A    between atoms: C_4  and  C_5
REMARK    3  A    between atoms: C_19  and  C_20
REMARK    4  A    between atoms: C_19  and  C_21
REMARK                            x       y       z     vdW  Elec       q    Type
REMARK                         _______ _______ _______ _____ _____    ______ ____
ROOT
ATOM      1  C   UNL     1       2.641   7.450  18.624  0.00  0.00    +0.000 C 
ATOM      2  O   UNL     1       2.432   8.314  17.775  0.00  0.00    +0.000 OA
ATOM      3  N   UNL     1       2.222   7.503  19.936  0.00  0.00    +0.000 N 
ATOM      4  C   UNL     1       1.382   8.496  20.361  0.00  0.00    +0.000 A 
ATOM      5  N   UNL     1       0.675   9.319  19.635  0.00  0.00    +0.000 NA
ATOM      6  C   UNL     1      -0.056  10.153  20.454  0.00  0.00    +0.000 A 
ATOM      7  C   UNL     1      -0.946  11.152  20.019  0.00  0.00    +0.000 A 
ATOM      8  C   UNL     1      -1.626  11.916  20.967  0.00  0.00    +0.000 A 
ATOM      9 BR   UNL     1      -2.848  13.239  20.388  0.00  0.00    +0.000 Br
ATOM     10  C   UNL     1      -1.424  11.715  22.329  0.00  0.00    +0.000 A 
ATOM     11  C   UNL     1      -0.535  10.733  22.783  0.00  0.00    +0.000 A 
ATOM     12  C   UNL     1       0.131   9.952  21.824  0.00  0.00    +0.000 A 
ATOM     13  S   UNL     1       1.237   8.645  22.049  0.00  0.00    +0.000 S 
ATOM     14  H   UNL     1       2.600   6.880  20.632  0.00  0.00    +0.000 HD
ENDROOT
BRANCH   1  18
ATOM     15  C   UNL     1       6.358   4.755  18.230  0.00  0.00    +0.000 C 
ATOM     16  C   UNL     1       5.220   4.597  19.239  0.00  0.00    +0.000 C 
ATOM     17  C   UNL     1       4.441   5.904  19.429  0.00  0.00    +0.000 C 
ATOM     18  C   UNL     1       3.452   6.196  18.292  0.00  0.00    +0.000 C 
ATOM     19  C   UNL     1       2.505   5.000  18.071  0.00  0.00    +0.000 C 
ATOM     20  C   UNL     1       3.230   3.664  17.817  0.00  0.00    +0.000 C 
ATOM     21  C   UNL     1       3.861   3.642  16.413  0.00  0.00    +0.000 C 
ATOM     22  C   UNL     1       2.195   2.518  17.860  0.00  0.00    +0.000 C 
ATOM     23  C   UNL     1       4.275   3.423  18.931  0.00  0.00    +0.000 C 
ENDBRANCH   1  18
TORSDOF 1
ENDMDL
MODEL 8
REMARK VINA RESULT:      -7.4      1.299      1.707
REMARK  Name = 
REMARK  4 active torsions:
REMARK  status: ('A' for Active; 'I' for Inactive)
REMARK    1  A    between atoms: C_1  and  C_2
REMARK    2  A    between atoms: C_4  and  C_5
REMARK    3  A    between atoms: C_19  and  C_20
REMARK    4  A    between atoms: C_19  and  C_21
REMARK                            x       y       z     vdW  Elec       q    Type
REMARK                         _______ _______ _______ _____ _____    ______ ____
ROOT
ATOM      1  C   UNL     1       2.347   7.369  19.125  0.00  0.00    +0.000 C 
ATOM      2  O   UNL     1       2.736   8.249  18.359  0.00  0.00    +0.000 OA
ATOM      3  N   UNL     1       1.586   7.575  20.256  0.00  0.00    +0.000 N 
ATOM      4  C   UNL     1       1.067   8.811  20.532  0.00  0.00    +0.000 A 
ATOM      5  N   UNL     1       0.964   9.839  19.734  0.00  0.00    +0.000 NA
ATOM      6  C   UNL     1       0.361  10.886  20.397  0.00  0.00    +0.000 A 
ATOM      7  C   UNL     1       0.068  12.145  19.842  0.00  0.00    +0.000 A 
ATOM      8  C   UNL     1      -0.555  13.108  20.635  0.00  0.00    +0.000 A 
ATOM      9 BR   UNL     1      -0.981  14.792  19.885  0.00  0.00    +0.000 Br
ATOM     10  C   UNL     1      -0.875  12.846  21.963  0.00  0.00    +0.000 A 
ATOM     11  C   UNL     1      -0.584  11.603  22.538  0.00  0.00    +0.000 A 
ATOM     12  C   UNL     1       0.025  10.629  21.729  0.00  0.00    +0.000 A 
ATOM     13  S   UNL     1       0.464   9.003  22.111  0.00  0.00    +0.000 S 
ATOM     14  H   UNL     1       1.480   6.856  20.954  0.00  0.00    +0.000 HD
ENDROOT
BRANCH   1  18
ATOM     15  C   UNL     1       1.714   2.827  18.681  0.00  0.00    +0.000 C 
ATOM     16  C   UNL     1       2.066   3.812  17.566  0.00  0.00    +0.000 C 
ATOM     17  C   UNL     1       1.708   5.253  17.945  0.00  0.00    +0.000 C 
ATOM     18  C   UNL     1       2.720   5.903  18.899  0.00  0.00    +0.000 C 
ATOM     19  C   UNL     1       4.149   5.806  18.328  0.00  0.00    +0.000 C 
ATOM     20  C   UNL     1       4.590   4.371  17.979  0.00  0.00    +0.000 C 
ATOM     21  C   UNL     1       4.862   3.557  19.257  0.00  0.00    +0.000 C 
ATOM     22  C   UNL     1       5.920   4.433  17.197  0.00  0.00    +0.000 C 
ATOM     23  C   UNL     1       3.521   3.707  17.080  0.00  0.00    +0.000 C 
ENDBRANCH   1  18
TORSDOF 1
ENDMDL
MODEL 9
REMARK VINA RESULT:      -7.3      1.345      2.500
REMARK  Name = 
REMARK  4 active torsions:
REMARK  status: ('A' for Active; 'I' for Inactive)
REMARK    1  A    between atoms: C_1  and  C_2
REMARK    2  A    between atoms: C_4  and  C_5
REMARK    3  A    between atoms: C_19  and  C_20
REMARK    4  A    between atoms: C_19  and  C_21
REMARK                            x       y       z     vdW  Elec       q    Type
REMARK                         _______ _______ _______ _____ _____    ______ ____
ROOT
ATOM      1  C   UNL     1       2.310   7.930  18.421  0.00  0.00    +0.000 C 
ATOM      2  O   UNL     1       2.731   8.707  17.567  0.00  0.00    +0.000 OA
ATOM      3  N   UNL     1       1.638   8.292  19.568  0.00  0.00    +0.000 N 
ATOM      4  C   UNL     1       1.248   9.589  19.769  0.00  0.00    +0.000 A 
ATOM      5  N   UNL     1       1.192  10.557  18.896  0.00  0.00    +0.000 NA
ATOM      6  C   UNL     1       0.724  11.704  19.501  0.00  0.00    +0.000 A 
ATOM      7  C   UNL     1       0.514  12.940  18.861  0.00  0.00    +0.000 A 
ATOM      8  C   UNL     1       0.027  14.015  19.603  0.00  0.00    +0.000 A 
ATOM      9 BR   UNL     1      -0.289  15.669  18.741  0.00  0.00    +0.000 Br
ATOM     10  C   UNL     1      -0.238  13.886  20.963  0.00  0.00    +0.000 A 
ATOM     11  C   UNL     1      -0.026  12.669  21.621  0.00  0.00    +0.000 A 
ATOM     12  C   UNL     1       0.445  11.583  20.865  0.00  0.00    +0.000 A 
ATOM     13  S   UNL     1       0.758   9.957  21.356  0.00  0.00    +0.000 S 
ATOM     14  H   UNL     1       1.508   7.642  20.327  0.00  0.00    +0.000 HD
ENDROOT
BRANCH   1  18
ATOM     15  C   UNL     1       4.091   4.004  16.793  0.00  0.00    +0.000 C 
ATOM     16  C   UNL     1       4.372   4.636  18.156  0.00  0.00    +0.000 C 
ATOM     17  C   UNL     1       4.038   6.133  18.170  0.00  0.00    +0.000 C 
ATOM     18  C   UNL     1       2.536   6.422  18.296  0.00  0.00    +0.000 C 
ATOM     19  C   UNL     1       1.942   5.698  19.521  0.00  0.00    +0.000 C 
ATOM     20  C   UNL     1       2.196   4.178  19.536  0.00  0.00    +0.000 C 
ATOM     21  C   UNL     1       1.328   3.468  18.481  0.00  0.00    +0.000 C 
ATOM     22  C   UNL     1       1.777   3.615  20.912  0.00  0.00    +0.000 C 
ATOM     23  C   UNL     1       3.704   3.904  19.331  0.00  0.00    +0.000 C 
ENDBRANCH   1  18
TORSDOF 1
ENDMDL
