MODEL 1
REMARK VINA RESULT:      -7.6      0.000      0.000
REMARK  Name = 
REMARK  8 active torsions:
REMARK  status: ('A' for Active; 'I' for Inactive)
REMARK    1  A    between atoms: C_1  and  C_2
REMARK    2  A    between atoms: C_11  and  C_12
REMARK    3  A    between atoms: C_12  and  C_13
REMARK    4  A    between atoms: C_13  and  C_14
REMARK    5  A    between atoms: N_16  and  C_17
REMARK    6  A    between atoms: C_17  and  C_18
REMARK    7  A    between atoms: C_18  and  N_19
REMARK    8  A    between atoms: C_25  and  C_26
REMARK                            x       y       z     vdW  Elec       q    Type
REMARK                         _______ _______ _______ _____ _____    ______ ____
ROOT
ATOM      1  C   UNL     1       1.657   2.650  21.706  0.00  0.00    +0.000 C 
ATOM      2  C   UNL     1       2.217   3.262  20.475  0.00  0.00    +0.000 A 
ATOM      3  C   UNL     1       2.821   2.587  19.441  0.00  0.00    +0.000 A 
ATOM      4  O   UNL     1       3.235   3.438  18.472  0.00  0.00    +0.000 OA
ATOM      5  C   UNL     1       2.867   4.684  18.863  0.00  0.00    +0.000 A 
ATOM      6  C   UNL     1       3.080   5.842  18.129  0.00  0.00    +0.000 A 
ATOM      7  C   UNL     1       2.552   7.015  18.679  0.00  0.00    +0.000 A 
ATOM      8  O   UNL     1       2.694   8.159  17.878  0.00  0.00    +0.000 OA
ATOM      9  C   UNL     1       2.065   9.350  18.186  0.00  0.00    +0.000 A 
ATOM     10  O   UNL     1       2.101  10.297  17.410  0.00  0.00    +0.000 OA
ATOM     11  C   UNL     1       1.378   9.435  19.507  0.00  0.00    +0.000 A 
ATOM     12  C   UNL     1       1.318   8.370  20.340  0.00  0.00    +0.000 A 
ATOM     13  C   UNL     1       0.647   8.422  21.688  0.00  0.00    +0.000 C 
ATOM     14  C   UNL     1       1.891   7.070  19.908  0.00  0.00    +0.000 A 
ATOM     15  C   UNL     1       1.753   5.868  20.641  0.00  0.00    +0.000 A 
ATOM     16  C   UNL     1       2.227   4.644  20.096  0.00  0.00    +0.000 A 
ENDROOT
BRANCH  11  17
ATOM     17  C   UNL     1       0.684  10.763  19.761  0.00  0.00    +0.000 C 
BRANCH  17  18
ATOM     18  C   UNL     1      -0.759  10.846  19.252  0.00  0.00    +0.000 C 
BRANCH  18  19
ATOM     19  C   UNL     1      -1.318  12.241  19.476  0.00  0.00    +0.000 C 
ATOM     20  O   UNL     1      -0.895  13.233  18.893  0.00  0.00    +0.000 OA
ATOM     21  N   UNL     1      -2.355  12.289  20.385  0.00  0.00    +0.000 N 
ATOM     22  H   UNL     1      -2.796  11.422  20.665  0.00  0.00    +0.000 HD
BRANCH  21  23
ATOM     23  C   UNL     1      -3.051  13.545  20.627  0.00  0.00    +0.000 C 
BRANCH  23  24
ATOM     24  C   UNL     1      -4.407  13.349  21.326  0.00  0.00    +0.000 C 
BRANCH  24  25
ATOM     25  N   UNL     1      -4.568  14.101  22.587  0.00  0.00    +0.000 NA
ATOM     26  C   UNL     1      -3.581  13.661  23.602  0.00  0.00    +0.000 C 
ATOM     27  C   UNL     1      -3.898  12.285  24.219  0.00  0.00    +0.000 C 
ATOM     28  O   UNL     1      -5.222  12.243  24.769  0.00  0.00    +0.000 OA
ATOM     29  C   UNL     1      -6.200  12.598  23.783  0.00  0.00    +0.000 C 
ATOM     30  C   UNL     1      -5.909  13.990  23.200  0.00  0.00    +0.000 C 
ENDBRANCH  24  25
ENDBRANCH  23  24
ENDBRANCH  21  23
ENDBRANCH  18  19
ENDBRANCH  17  18
ENDBRANCH  11  17
TORSDOF 6
ENDMDL
MODEL 2
REMARK VINA RESULT:      -7.5      3.922      6.867
REMARK  Name = 
REMARK  8 active torsions:
REMARK  status: ('A' for Active; 'I' for Inactive)
REMARK    1  A    between atoms: C_1  and  C_2
REMARK    2  A    between atoms: C_11  and  C_12
REMARK    3  A    between atoms: C_12  and  C_13
REMARK    4  A    between atoms: C_13  and  C_14
REMARK    5  A    between atoms: N_16  and  C_17
REMARK    6  A    between atoms: C_17  and  C_18
REMARK    7  A    between atoms: C_18  and  N_19
REMARK    8  A    between atoms: C_25  and  C_26
REMARK                            x       y       z     vdW  Elec       q    Type
REMARK                         _______ _______ _______ _____ _____    ______ ____
ROOT
ATOM      1  C   UNL     1       4.753   3.091  11.635  0.00  0.00    +0.000 C 
ATOM      2  C   UNL     1       5.781   3.720  12.502  0.00  0.00    +0.000 A 
ATOM      3  C   UNL     1       6.972   4.262  12.077  0.00  0.00    +0.000 A 
ATOM      4  O   UNL     1       7.691   4.745  13.119  0.00  0.00    +0.000 OA
ATOM      5  C   UNL     1       6.947   4.545  14.235  0.00  0.00    +0.000 A 
ATOM      6  C   UNL     1       7.316   4.929  15.516  0.00  0.00    +0.000 A 
ATOM      7  C   UNL     1       6.366   4.698  16.517  0.00  0.00    +0.000 A 
ATOM      8  O   UNL     1       6.719   5.180  17.788  0.00  0.00    +0.000 OA
ATOM      9  C   UNL     1       5.819   5.202  18.836  0.00  0.00    +0.000 A 
ATOM     10  O   UNL     1       6.108   5.738  19.899  0.00  0.00    +0.000 OA
ATOM     11  C   UNL     1       4.511   4.520  18.624  0.00  0.00    +0.000 A 
ATOM     12  C   UNL     1       4.192   3.959  17.434  0.00  0.00    +0.000 A 
ATOM     13  C   UNL     1       2.887   3.249  17.187  0.00  0.00    +0.000 C 
ATOM     14  C   UNL     1       5.135   4.078  16.294  0.00  0.00    +0.000 A 
ATOM     15  C   UNL     1       4.835   3.655  14.978  0.00  0.00    +0.000 A 
ATOM     16  C   UNL     1       5.748   3.917  13.920  0.00  0.00    +0.000 A 
ENDROOT
BRANCH  11  17
ATOM     17  C   UNL     1       3.564   4.614  19.810  0.00  0.00    +0.000 C 
BRANCH  17  18
ATOM     18  C   UNL     1       2.200   5.239  19.500  0.00  0.00    +0.000 C 
BRANCH  18  19
ATOM     19  C   UNL     1       2.258   6.747  19.678  0.00  0.00    +0.000 C 
ATOM     20  O   UNL     1       2.793   7.496  18.870  0.00  0.00    +0.000 OA
ATOM     21  N   UNL     1       1.640   7.198  20.827  0.00  0.00    +0.000 N 
ATOM     22  H   UNL     1       1.037   6.564  21.335  0.00  0.00    +0.000 HD
BRANCH  21  23
ATOM     23  C   UNL     1       1.535   8.628  21.081  0.00  0.00    +0.000 C 
BRANCH  23  24
ATOM     24  C   UNL     1       0.299   9.261  20.418  0.00  0.00    +0.000 C 
BRANCH  24  25
ATOM     25  N   UNL     1       0.009  10.644  20.843  0.00  0.00    +0.000 NA
ATOM     26  C   UNL     1      -1.160  11.194  20.115  0.00  0.00    +0.000 C 
ATOM     27  C   UNL     1      -0.859  11.560  18.649  0.00  0.00    +0.000 C 
ATOM     28  O   UNL     1       0.254  12.458  18.542  0.00  0.00    +0.000 OA
ATOM     29  C   UNL     1       1.416  11.913  19.181  0.00  0.00    +0.000 C 
ATOM     30  C   UNL     1       1.130  11.591  20.656  0.00  0.00    +0.000 C 
ENDBRANCH  24  25
ENDBRANCH  23  24
ENDBRANCH  21  23
ENDBRANCH  18  19
ENDBRANCH  17  18
ENDBRANCH  11  17
TORSDOF 6
ENDMDL
MODEL 3
REMARK VINA RESULT:      -7.4      3.297      4.772
REMARK  Name = 
REMARK  8 active torsions:
REMARK  status: ('A' for Active; 'I' for Inactive)
REMARK    1  A    between atoms: C_1  and  C_2
REMARK    2  A    between atoms: C_11  and  C_12
REMARK    3  A    between atoms: C_12  and  C_13
REMARK    4  A    between atoms: C_13  and  C_14
REMARK    5  A    between atoms: N_16  and  C_17
REMARK    6  A    between atoms: C_17  and  C_18
REMARK    7  A    between atoms: C_18  and  N_19
REMARK    8  A    between atoms: C_25  and  C_26
REMARK                            x       y       z     vdW  Elec       q    Type
REMARK                         _______ _______ _______ _____ _____    ______ ____
ROOT
ATOM      1  C   UNL     1       1.905   2.509  21.897  0.00  0.00    +0.000 C 
ATOM      2  C   UNL     1       2.395   3.080  20.618  0.00  0.00    +0.000 A 
ATOM      3  C   UNL     1       2.945   2.370  19.576  0.00  0.00    +0.000 A 
ATOM      4  O   UNL     1       3.303   3.189  18.558  0.00  0.00    +0.000 OA
ATOM      5  C   UNL     1       2.953   4.447  18.926  0.00  0.00    +0.000 A 
ATOM      6  C   UNL     1       3.121   5.580  18.143  0.00  0.00    +0.000 A 
ATOM      7  C   UNL     1       2.620   6.770  18.681  0.00  0.00    +0.000 A 
ATOM      8  O   UNL     1       2.714   7.886  17.834  0.00  0.00    +0.000 OA
ATOM      9  C   UNL     1       2.099   9.086  18.136  0.00  0.00    +0.000 A 
ATOM     10  O   UNL     1       2.090  10.006  17.327  0.00  0.00    +0.000 OA
ATOM     11  C   UNL     1       1.485   9.215  19.487  0.00  0.00    +0.000 A 
ATOM     12  C   UNL     1       1.473   8.178  20.359  0.00  0.00    +0.000 A 
ATOM     13  C   UNL     1       0.876   8.275  21.738  0.00  0.00    +0.000 C 
ATOM     14  C   UNL     1       2.026   6.866  19.941  0.00  0.00    +0.000 A 
ATOM     15  C   UNL     1       1.932   5.689  20.720  0.00  0.00    +0.000 A 
ATOM     16  C   UNL     1       2.380   4.448  20.192  0.00  0.00    +0.000 A 
ENDROOT
BRANCH  11  17
ATOM     17  C   UNL     1       0.801  10.550  19.733  0.00  0.00    +0.000 C 
BRANCH  17  18
ATOM     18  C   UNL     1      -0.652  10.630  19.252  0.00  0.00    +0.000 C 
BRANCH  18  19
ATOM     19  C   UNL     1      -0.926  11.988  18.627  0.00  0.00    +0.000 C 
ATOM     20  O   UNL     1      -1.760  12.163  17.747  0.00  0.00    +0.000 OA
ATOM     21  N   UNL     1      -0.160  13.009  19.151  0.00  0.00    +0.000 N 
ATOM     22  H   UNL     1       0.347  12.845  20.011  0.00  0.00    +0.000 HD
BRANCH  21  23
ATOM     23  C   UNL     1      -0.383  14.381  18.714  0.00  0.00    +0.000 C 
BRANCH  23  24
ATOM     24  C   UNL     1       0.847  15.281  18.927  0.00  0.00    +0.000 C 
BRANCH  24  25
ATOM     25  N   UNL     1       2.110  14.555  19.171  0.00  0.00    +0.000 NA
ATOM     26  C   UNL     1       2.862  15.153  20.300  0.00  0.00    +0.000 C 
ATOM     27  C   UNL     1       3.537  16.494  19.952  0.00  0.00    +0.000 C 
ATOM     28  O   UNL     1       4.385  16.380  18.801  0.00  0.00    +0.000 OA
ATOM     29  C   UNL     1       3.658  15.867  17.677  0.00  0.00    +0.000 C 
ATOM     30  C   UNL     1       3.023  14.508  18.008  0.00  0.00    +0.000 C 
ENDBRANCH  24  25
ENDBRANCH  23  24
ENDBRANCH  21  23
ENDBRANCH  18  19
ENDBRANCH  17  18
ENDBRANCH  11  17
TORSDOF 6
ENDMDL
MODEL 4
REMARK VINA RESULT:      -7.4      3.759      9.297
REMARK  Name = 
REMARK  8 active torsions:
REMARK  status: ('A' for Active; 'I' for Inactive)
REMARK    1  A    between atoms: C_1  and  C_2
REMARK    2  A    between atoms: C_11  and  C_12
REMARK    3  A    between atoms: C_12  and  C_13
REMARK    4  A    between atoms: C_13  and  C_14
REMARK    5  A    between atoms: N_16  and  C_17
REMARK    6  A    between atoms: C_17  and  C_18
REMARK    7  A    between atoms: C_18  and  N_19
REMARK    8  A    between atoms: C_25  and  C_26
REMARK                            x       y       z     vdW  Elec       q    Type
REMARK                         _______ _______ _______ _____ _____    ______ ____
ROOT
ATOM      1  C   UNL     1      -1.807  14.395  21.300  0.00  0.00    +0.000 C 
ATOM      2  C   UNL     1      -1.502  13.147  22.043  0.00  0.00    +0.000 A 
ATOM      3  C   UNL     1      -1.942  12.833  23.308  0.00  0.00    +0.000 A 
ATOM      4  O   UNL     1      -1.476  11.625  23.705  0.00  0.00    +0.000 OA
ATOM      5  C   UNL     1      -0.748  11.128  22.674  0.00  0.00    +0.000 A 
ATOM      6  C   UNL     1      -0.123   9.890  22.667  0.00  0.00    +0.000 A 
ATOM      7  C   UNL     1       0.513   9.537  21.472  0.00  0.00    +0.000 A 
ATOM      8  O   UNL     1       1.057   8.242  21.453  0.00  0.00    +0.000 OA
ATOM      9  C   UNL     1       1.548   7.674  20.293  0.00  0.00    +0.000 A 
ATOM     10  O   UNL     1       1.904   6.501  20.272  0.00  0.00    +0.000 OA
ATOM     11  C   UNL     1       1.653   8.554  19.095  0.00  0.00    +0.000 A 
ATOM     12  C   UNL     1       1.226   9.838  19.124  0.00  0.00    +0.000 A 
ATOM     13  C   UNL     1       1.330  10.762  17.938  0.00  0.00    +0.000 C 
ATOM     14  C   UNL     1       0.581  10.367  20.352  0.00  0.00    +0.000 A 
ATOM     15  C   UNL     1      -0.026  11.642  20.434  0.00  0.00    +0.000 A 
ATOM     16  C   UNL     1      -0.728  12.022  21.610  0.00  0.00    +0.000 A 
ENDROOT
BRANCH  11  17
ATOM     17  C   UNL     1       2.171   7.850  17.851  0.00  0.00    +0.000 C 
BRANCH  17  18
ATOM     18  C   UNL     1       3.683   7.958  17.630  0.00  0.00    +0.000 C 
BRANCH  18  19
ATOM     19  C   UNL     1       4.296   6.575  17.483  0.00  0.00    +0.000 C 
ATOM     20  O   UNL     1       5.382   6.377  16.952  0.00  0.00    +0.000 OA
ATOM     21  N   UNL     1       3.524   5.563  18.015  0.00  0.00    +0.000 N 
ATOM     22  H   UNL     1       2.753   5.807  18.624  0.00  0.00    +0.000 HD
BRANCH  21  23
ATOM     23  C   UNL     1       4.029   4.196  18.031  0.00  0.00    +0.000 C 
BRANCH  23  24
ATOM     24  C   UNL     1       4.215   3.648  19.457  0.00  0.00    +0.000 C 
BRANCH  24  25
ATOM     25  N   UNL     1       3.525   2.369  19.722  0.00  0.00    +0.000 NA
ATOM     26  C   UNL     1       2.240   2.291  18.986  0.00  0.00    +0.000 C 
ATOM     27  C   UNL     1       1.129   3.176  19.583  0.00  0.00    +0.000 C 
ATOM     28  O   UNL     1       0.917   2.895  20.974  0.00  0.00    +0.000 OA
ATOM     29  C   UNL     1       2.135   3.033  21.717  0.00  0.00    +0.000 C 
ATOM     30  C   UNL     1       3.230   2.117  21.150  0.00  0.00    +0.000 C 
ENDBRANCH  24  25
ENDBRANCH  23  24
ENDBRANCH  21  23
ENDBRANCH  18  19
ENDBRANCH  17  18
ENDBRANCH  11  17
TORSDOF 6
ENDMDL
MODEL 5
REMARK VINA RESULT:      -7.4      0.936      1.053
REMARK  Name = 
REMARK  8 active torsions:
REMARK  status: ('A' for Active; 'I' for Inactive)
REMARK    1  A    between atoms: C_1  and  C_2
REMARK    2  A    between atoms: C_11  and  C_12
REMARK    3  A    between atoms: C_12  and  C_13
REMARK    4  A    between atoms: C_13  and  C_14
REMARK    5  A    between atoms: N_16  and  C_17
REMARK    6  A    between atoms: C_17  and  C_18
REMARK    7  A    between atoms: C_18  and  N_19
REMARK    8  A    between atoms: C_25  and  C_26
REMARK                            x       y       z     vdW  Elec       q    Type
REMARK                         _______ _______ _______ _____ _____    ______ ____
ROOT
ATOM      1  C   UNL     1       1.814   2.709  21.736  0.00  0.00    +0.000 C 
ATOM      2  C   UNL     1       2.376   3.335  20.513  0.00  0.00    +0.000 A 
ATOM      3  C   UNL     1       3.032   2.676  19.499  0.00  0.00    +0.000 A 
ATOM      4  O   UNL     1       3.431   3.536  18.532  0.00  0.00    +0.000 OA
ATOM      5  C   UNL     1       3.004   4.769  18.903  0.00  0.00    +0.000 A 
ATOM      6  C   UNL     1       3.185   5.928  18.164  0.00  0.00    +0.000 A 
ATOM      7  C   UNL     1       2.596   7.083  18.691  0.00  0.00    +0.000 A 
ATOM      8  O   UNL     1       2.709   8.225  17.882  0.00  0.00    +0.000 OA
ATOM      9  C   UNL     1       2.024   9.391  18.165  0.00  0.00    +0.000 A 
ATOM     10  O   UNL     1       2.038  10.333  17.381  0.00  0.00    +0.000 OA
ATOM     11  C   UNL     1       1.304   9.458  19.468  0.00  0.00    +0.000 A 
ATOM     12  C   UNL     1       1.269   8.399  20.310  0.00  0.00    +0.000 A 
ATOM     13  C   UNL     1       0.566   8.434  21.642  0.00  0.00    +0.000 C 
ATOM     14  C   UNL     1       1.905   7.120  19.903  0.00  0.00    +0.000 A 
ATOM     15  C   UNL     1       1.800   5.920  20.644  0.00  0.00    +0.000 A 
ATOM     16  C   UNL     1       2.337   4.712  20.121  0.00  0.00    +0.000 A 
ENDROOT
BRANCH  11  17
ATOM     17  C   UNL     1       0.550  10.759  19.694  0.00  0.00    +0.000 C 
BRANCH  17  18
ATOM     18  C   UNL     1      -0.695  10.944  18.820  0.00  0.00    +0.000 C 
BRANCH  18  19
ATOM     19  C   UNL     1      -1.621  11.981  19.433  0.00  0.00    +0.000 C 
ATOM     20  O   UNL     1      -2.839  11.855  19.465  0.00  0.00    +0.000 OA
ATOM     21  N   UNL     1      -0.964  13.074  19.962  0.00  0.00    +0.000 N 
ATOM     22  H   UNL     1       0.038  13.020  20.097  0.00  0.00    +0.000 HD
BRANCH  21  23
ATOM     23  C   UNL     1      -1.717  14.102  20.666  0.00  0.00    +0.000 C 
BRANCH  23  24
ATOM     24  C   UNL     1      -1.865  13.807  22.169  0.00  0.00    +0.000 C 
BRANCH  24  25
ATOM     25  N   UNL     1      -3.010  14.474  22.820  0.00  0.00    +0.000 NA
ATOM     26  C   UNL     1      -3.207  13.973  24.202  0.00  0.00    +0.000 C 
ATOM     27  C   UNL     1      -3.813  12.558  24.267  0.00  0.00    +0.000 C 
ATOM     28  O   UNL     1      -5.043  12.473  23.533  0.00  0.00    +0.000 OA
ATOM     29  C   UNL     1      -4.859  12.887  22.174  0.00  0.00    +0.000 C 
ATOM     30  C   UNL     1      -4.297  14.316  22.107  0.00  0.00    +0.000 C 
ENDBRANCH  24  25
ENDBRANCH  23  24
ENDBRANCH  21  23
ENDBRANCH  18  19
ENDBRANCH  17  18
ENDBRANCH  11  17
TORSDOF 6
ENDMDL
MODEL 6
REMARK VINA RESULT:      -7.4      3.946      6.697
REMARK  Name = 
REMARK  8 active torsions:
REMARK  status: ('A' for Active; 'I' for Inactive)
REMARK    1  A    between atoms: C_1  and  C_2
REMARK    2  A    between atoms: C_11  and  C_12
REMARK    3  A    between atoms: C_12  and  C_13
REMARK    4  A    between atoms: C_13  and  C_14
REMARK    5  A    between atoms: N_16  and  C_17
REMARK    6  A    between atoms: C_17  and  C_18
REMARK    7  A    between atoms: C_18  and  N_19
REMARK    8  A    between atoms: C_25  and  C_26
REMARK                            x       y       z     vdW  Elec       q    Type
REMARK                         _______ _______ _______ _____ _____    ______ ____
ROOT
ATOM      1  C   UNL     1       5.008   3.279  11.611  0.00  0.00    +0.000 C 
ATOM      2  C   UNL     1       5.956   3.942  12.541  0.00  0.00    +0.000 A 
ATOM      3  C   UNL     1       7.115   4.590  12.185  0.00  0.00    +0.000 A 
ATOM      4  O   UNL     1       7.761   5.077  13.272  0.00  0.00    +0.000 OA
ATOM      5  C   UNL     1       6.997   4.770  14.351  0.00  0.00    +0.000 A 
ATOM      6  C   UNL     1       7.293   5.121  15.659  0.00  0.00    +0.000 A 
ATOM      7  C   UNL     1       6.331   4.774  16.614  0.00  0.00    +0.000 A 
ATOM      8  O   UNL     1       6.604   5.221  17.917  0.00  0.00    +0.000 OA
ATOM      9  C   UNL     1       5.671   5.127  18.931  0.00  0.00    +0.000 A 
ATOM     10  O   UNL     1       5.883   5.634  20.027  0.00  0.00    +0.000 OA
ATOM     11  C   UNL     1       4.426   4.360  18.643  0.00  0.00    +0.000 A 
ATOM     12  C   UNL     1       4.191   3.833  17.418  0.00  0.00    +0.000 A 
ATOM     13  C   UNL     1       2.952   3.039  17.093  0.00  0.00    +0.000 C 
ATOM     14  C   UNL     1       5.159   4.075  16.320  0.00  0.00    +0.000 A 
ATOM     15  C   UNL     1       4.936   3.692  14.976  0.00  0.00    +0.000 A 
ATOM     16  C   UNL     1       5.860   4.069  13.965  0.00  0.00    +0.000 A 
ENDROOT
BRANCH  11  17
ATOM     17  C   UNL     1       3.436   4.328  19.796  0.00  0.00    +0.000 C 
BRANCH  17  18
ATOM     18  C   UNL     1       2.107   5.040  19.526  0.00  0.00    +0.000 C 
BRANCH  18  19
ATOM     19  C   UNL     1       2.263   6.540  19.713  0.00  0.00    +0.000 C 
ATOM     20  O   UNL     1       2.881   7.251  18.930  0.00  0.00    +0.000 OA
ATOM     21  N   UNL     1       1.635   7.031  20.839  0.00  0.00    +0.000 N 
ATOM     22  H   UNL     1       0.969   6.441  21.321  0.00  0.00    +0.000 HD
BRANCH  21  23
ATOM     23  C   UNL     1       1.621   8.465  21.095  0.00  0.00    +0.000 C 
BRANCH  23  24
ATOM     24  C   UNL     1       0.489   9.192  20.348  0.00  0.00    +0.000 C 
BRANCH  24  25
ATOM     25  N   UNL     1       0.730  10.628  20.106  0.00  0.00    +0.000 NA
ATOM     26  C   UNL     1       0.434  11.432  21.315  0.00  0.00    +0.000 C 
ATOM     27  C   UNL     1      -1.073  11.590  21.600  0.00  0.00    +0.000 C 
ATOM     28  O   UNL     1      -1.774  12.126  20.469  0.00  0.00    +0.000 OA
ATOM     29  C   UNL     1      -1.556  11.322  19.303  0.00  0.00    +0.000 C 
ATOM     30  C   UNL     1      -0.056  11.202  18.992  0.00  0.00    +0.000 C 
ENDBRANCH  24  25
ENDBRANCH  23  24
ENDBRANCH  21  23
ENDBRANCH  18  19
ENDBRANCH  17  18
ENDBRANCH  11  17
TORSDOF 6
ENDMDL
MODEL 7
REMARK VINA RESULT:      -7.4      1.864      2.790
REMARK  Name = 
REMARK  8 active torsions:
REMARK  status: ('A' for Active; 'I' for Inactive)
REMARK    1  A    between atoms: C_1  and  C_2
REMARK    2  A    between atoms: C_11  and  C_12
REMARK    3  A    between atoms: C_12  and  C_13
REMARK    4  A    between atoms: C_13  and  C_14
REMARK    5  A    between atoms: N_16  and  C_17
REMARK    6  A    between atoms: C_17  and  C_18
REMARK    7  A    between atoms: C_18  and  N_19
REMARK    8  A    between atoms: C_25  and  C_26
REMARK                            x       y       z     vdW  Elec       q    Type
REMARK                         _______ _______ _______ _____ _____    ______ ____
ROOT
ATOM      1  C   UNL     1       4.822   4.267  16.385  0.00  0.00    +0.000 C 
ATOM      2  C   UNL     1       4.205   4.201  17.734  0.00  0.00    +0.000 A 
ATOM      3  C   UNL     1       4.319   3.159  18.624  0.00  0.00    +0.000 A 
ATOM      4  O   UNL     1       3.626   3.405  19.761  0.00  0.00    +0.000 OA
ATOM      5  C   UNL     1       3.077   4.638  19.626  0.00  0.00    +0.000 A 
ATOM      6  C   UNL     1       2.311   5.277  20.590  0.00  0.00    +0.000 A 
ATOM      7  C   UNL     1       1.906   6.579  20.279  0.00  0.00    +0.000 A 
ATOM      8  O   UNL     1       1.214   7.243  21.305  0.00  0.00    +0.000 OA
ATOM      9  C   UNL     1       0.913   8.589  21.231  0.00  0.00    +0.000 A 
ATOM     10  O   UNL     1       0.420   9.175  22.187  0.00  0.00    +0.000 OA
ATOM     11  C   UNL     1       1.182   9.276  19.936  0.00  0.00    +0.000 A 
ATOM     12  C   UNL     1       1.757   8.625  18.898  0.00  0.00    +0.000 A 
ATOM     13  C   UNL     1       2.030   9.281  17.570  0.00  0.00    +0.000 C 
ATOM     14  C   UNL     1       2.188   7.214  19.069  0.00  0.00    +0.000 A 
ATOM     15  C   UNL     1       2.924   6.494  18.098  0.00  0.00    +0.000 A 
ATOM     16  C   UNL     1       3.401   5.189  18.392  0.00  0.00    +0.000 A 
ENDROOT
BRANCH  11  17
ATOM     17  C   UNL     1       0.854  10.761  19.941  0.00  0.00    +0.000 C 
BRANCH  17  18
ATOM     18  C   UNL     1      -0.622  11.098  19.710  0.00  0.00    +0.000 C 
BRANCH  18  19
ATOM     19  C   UNL     1      -1.099  12.112  20.736  0.00  0.00    +0.000 C 
ATOM     20  O   UNL     1      -1.299  13.291  20.469  0.00  0.00    +0.000 OA
ATOM     21  N   UNL     1      -1.301  11.581  21.994  0.00  0.00    +0.000 N 
ATOM     22  H   UNL     1      -1.328  10.575  22.098  0.00  0.00    +0.000 HD
BRANCH  21  23
ATOM     23  C   UNL     1      -1.849  12.415  23.054  0.00  0.00    +0.000 C 
BRANCH  23  24
ATOM     24  C   UNL     1      -3.386  12.364  23.118  0.00  0.00    +0.000 C 
BRANCH  24  25
ATOM     25  N   UNL     1      -3.967  12.809  24.400  0.00  0.00    +0.000 NA
ATOM     26  C   UNL     1      -5.445  12.690  24.388  0.00  0.00    +0.000 C 
ATOM     27  C   UNL     1      -6.145  13.767  23.536  0.00  0.00    +0.000 C 
ATOM     28  O   UNL     1      -5.762  15.091  23.932  0.00  0.00    +0.000 OA
ATOM     29  C   UNL     1      -4.338  15.248  23.884  0.00  0.00    +0.000 C 
ATOM     30  C   UNL     1      -3.640  14.204  24.769  0.00  0.00    +0.000 C 
ENDBRANCH  24  25
ENDBRANCH  23  24
ENDBRANCH  21  23
ENDBRANCH  18  19
ENDBRANCH  17  18
ENDBRANCH  11  17
TORSDOF 6
ENDMDL
MODEL 8
REMARK VINA RESULT:      -7.3      3.291      5.443
REMARK  Name = 
REMARK  8 active torsions:
REMARK  status: ('A' for Active; 'I' for Inactive)
REMARK    1  A    between atoms: C_1  and  C_2
REMARK    2  A    between atoms: C_11  and  C_12
REMARK    3  A    between atoms: C_12  and  C_13
REMARK    4  A    between atoms: C_13  and  C_14
REMARK    5  A    between atoms: N_16  and  C_17
REMARK    6  A    between atoms: C_17  and  C_18
REMARK    7  A    between atoms: C_18  and  N_19
REMARK    8  A    between atoms: C_25  and  C_26
REMARK                            x       y       z     vdW  Elec       q    Type
REMARK                         _______ _______ _______ _____ _____    ______ ____
ROOT
ATOM      1  C   UNL     1       5.427   5.840  15.619  0.00  0.00    +0.000 C 
ATOM      2  C   UNL     1       4.840   5.372  16.900  0.00  0.00    +0.000 A 
ATOM      3  C   UNL     1       5.132   4.187  17.535  0.00  0.00    +0.000 A 
ATOM      4  O   UNL     1       4.418   4.053  18.678  0.00  0.00    +0.000 OA
ATOM      5  C   UNL     1       3.674   5.180  18.810  0.00  0.00    +0.000 A 
ATOM      6  C   UNL     1       2.823   5.451  19.871  0.00  0.00    +0.000 A 
ATOM      7  C   UNL     1       2.208   6.707  19.851  0.00  0.00    +0.000 A 
ATOM      8  O   UNL     1       1.427   7.000  20.980  0.00  0.00    +0.000 OA
ATOM      9  C   UNL     1       0.910   8.262  21.203  0.00  0.00    +0.000 A 
ATOM     10  O   UNL     1       0.337   8.528  22.253  0.00  0.00    +0.000 OA
ATOM     11  C   UNL     1       1.051   9.260  20.105  0.00  0.00    +0.000 A 
ATOM     12  C   UNL     1       1.715   8.962  18.963  0.00  0.00    +0.000 A 
ATOM     13  C   UNL     1       1.866   9.938  17.825  0.00  0.00    +0.000 C 
ATOM     14  C   UNL     1       2.372   7.638  18.823  0.00  0.00    +0.000 A 
ATOM     15  C   UNL     1       3.206   7.285  17.737  0.00  0.00    +0.000 A 
ATOM     16  C   UNL     1       3.893   6.041  17.741  0.00  0.00    +0.000 A 
ENDROOT
BRANCH  11  17
ATOM     17  C   UNL     1       0.487  10.632  20.436  0.00  0.00    +0.000 C 
BRANCH  17  18
ATOM     18  C   UNL     1      -0.926  10.894  19.905  0.00  0.00    +0.000 C 
BRANCH  18  19
ATOM     19  C   UNL     1      -0.999  12.264  19.251  0.00  0.00    +0.000 C 
ATOM     20  O   UNL     1      -1.443  12.445  18.124  0.00  0.00    +0.000 OA
ATOM     21  N   UNL     1      -0.530  13.289  20.048  0.00  0.00    +0.000 N 
ATOM     22  H   UNL     1      -0.380  13.110  21.033  0.00  0.00    +0.000 HD
BRANCH  21  23
ATOM     23  C   UNL     1      -0.626  14.668  19.588  0.00  0.00    +0.000 C 
BRANCH  23  24
ATOM     24  C   UNL     1       0.618  15.122  18.804  0.00  0.00    +0.000 C 
BRANCH  24  25
ATOM     25  N   UNL     1       1.310  16.297  19.371  0.00  0.00    +0.000 NA
ATOM     26  C   UNL     1       1.003  17.524  18.598  0.00  0.00    +0.000 C 
ATOM     27  C   UNL     1       1.714  17.588  17.231  0.00  0.00    +0.000 C 
ATOM     28  O   UNL     1       3.134  17.432  17.363  0.00  0.00    +0.000 OA
ATOM     29  C   UNL     1       3.454  16.215  18.049  0.00  0.00    +0.000 C 
ATOM     30  C   UNL     1       2.783  16.170  19.430  0.00  0.00    +0.000 C 
ENDBRANCH  24  25
ENDBRANCH  23  24
ENDBRANCH  21  23
ENDBRANCH  18  19
ENDBRANCH  17  18
ENDBRANCH  11  17
TORSDOF 6
ENDMDL
MODEL 9
REMARK VINA RESULT:      -7.3      1.241      1.532
REMARK  Name = 
REMARK  8 active torsions:
REMARK  status: ('A' for Active; 'I' for Inactive)
REMARK    1  A    between atoms: C_1  and  C_2
REMARK    2  A    between atoms: C_11  and  C_12
REMARK    3  A    between atoms: C_12  and  C_13
REMARK    4  A    between atoms: C_13  and  C_14
REMARK    5  A    between atoms: N_16  and  C_17
REMARK    6  A    between atoms: C_17  and  C_18
REMARK    7  A    between atoms: C_18  and  N_19
REMARK    8  A    between atoms: C_25  and  C_26
REMARK                            x       y       z     vdW  Elec       q    Type
REMARK                         _______ _______ _______ _____ _____    ______ ____
ROOT
ATOM      1  C   UNL     1       2.091   2.643  21.716  0.00  0.00    +0.000 C 
ATOM      2  C   UNL     1       2.621   3.293  20.491  0.00  0.00    +0.000 A 
ATOM      3  C   UNL     1       3.300   2.663  19.474  0.00  0.00    +0.000 A 
ATOM      4  O   UNL     1       3.659   3.540  18.506  0.00  0.00    +0.000 OA
ATOM      5  C   UNL     1       3.181   4.753  18.879  0.00  0.00    +0.000 A 
ATOM      6  C   UNL     1       3.309   5.920  18.140  0.00  0.00    +0.000 A 
ATOM      7  C   UNL     1       2.674   7.048  18.671  0.00  0.00    +0.000 A 
ATOM      8  O   UNL     1       2.735   8.194  17.862  0.00  0.00    +0.000 OA
ATOM      9  C   UNL     1       2.002   9.330  18.149  0.00  0.00    +0.000 A 
ATOM     10  O   UNL     1       1.974  10.272  17.366  0.00  0.00    +0.000 OA
ATOM     11  C   UNL     1       1.285   9.366  19.455  0.00  0.00    +0.000 A 
ATOM     12  C   UNL     1       1.299   8.305  20.296  0.00  0.00    +0.000 A 
ATOM     13  C   UNL     1       0.600   8.309  21.631  0.00  0.00    +0.000 C 
ATOM     14  C   UNL     1       1.987   7.055  19.886  0.00  0.00    +0.000 A 
ATOM     15  C   UNL     1       1.936   5.851  20.626  0.00  0.00    +0.000 A 
ATOM     16  C   UNL     1       2.522   4.668  20.100  0.00  0.00    +0.000 A 
ENDROOT
BRANCH  11  17
ATOM     17  C   UNL     1       0.477  10.633  19.685  0.00  0.00    +0.000 C 
BRANCH  17  18
ATOM     18  C   UNL     1       1.131  11.657  20.618  0.00  0.00    +0.000 C 
BRANCH  18  19
ATOM     19  C   UNL     1       0.135  12.740  20.995  0.00  0.00    +0.000 C 
ATOM     20  O   UNL     1      -0.081  13.723  20.296  0.00  0.00    +0.000 OA
ATOM     21  N   UNL     1      -0.515  12.510  22.190  0.00  0.00    +0.000 N 
ATOM     22  H   UNL     1      -0.455  11.589  22.607  0.00  0.00    +0.000 HD
BRANCH  21  23
ATOM     23  C   UNL     1      -1.567  13.416  22.631  0.00  0.00    +0.000 C 
BRANCH  23  24
ATOM     24  C   UNL     1      -2.848  12.679  23.057  0.00  0.00    +0.000 C 
BRANCH  24  25
ATOM     25  N   UNL     1      -3.418  13.122  24.345  0.00  0.00    +0.000 NA
ATOM     26  C   UNL     1      -4.698  12.431  24.630  0.00  0.00    +0.000 C 
ATOM     27  C   UNL     1      -5.877  12.935  23.775  0.00  0.00    +0.000 C 
ATOM     28  O   UNL     1      -6.049  14.354  23.890  0.00  0.00    +0.000 OA
ATOM     29  C   UNL     1      -4.840  15.046  23.550  0.00  0.00    +0.000 C 
ATOM     30  C   UNL     1      -3.673  14.577  24.433  0.00  0.00    +0.000 C 
ENDBRANCH  24  25
ENDBRANCH  23  24
ENDBRANCH  21  23
ENDBRANCH  18  19
ENDBRANCH  17  18
ENDBRANCH  11  17
TORSDOF 6
ENDMDL
