MODEL 1
REMARK VINA RESULT:      -6.9      0.000      0.000
REMARK  Name = 
REMARK  9 active torsions:
REMARK  status: ('A' for Active; 'I' for Inactive)
REMARK    1  A    between atoms: C_1  and  C_2
REMARK    2  A    between atoms: C_2  and  O_3
REMARK    3  A    between atoms: O_3  and  C_4
REMARK    4  A    between atoms: C_7  and  O_8
REMARK    5  A    between atoms: O_8  and  C_9
REMARK    6  A    between atoms: C_11  and  C_12
REMARK    7  A    between atoms: C_12  and  C_14
REMARK    8  A    between atoms: C_15  and  C_16
REMARK    9  A    between atoms: C_19  and  C_20
REMARK                            x       y       z     vdW  Elec       q    Type
REMARK                         _______ _______ _______ _____ _____    ______ ____
ROOT
ATOM      1  C   UNL     1       4.417   5.751  17.501  0.00  0.00    +0.000 A 
ATOM      2  C   UNL     1       4.728   4.401  17.294  0.00  0.00    +0.000 A 
ATOM      3  C   UNL     1       3.736   3.424  17.390  0.00  0.00    +0.000 A 
ATOM      4  C   UNL     1       2.427   3.768  17.719  0.00  0.00    +0.000 A 
ATOM      5  C   UNL     1       2.119   5.104  17.978  0.00  0.00    +0.000 A 
ATOM      6  C   UNL     1       3.114   6.103  17.890  0.00  0.00    +0.000 A 
ENDROOT
BRANCH   4   7
ATOM      7  O   UNL     1       1.566   2.708  17.743  0.00  0.00    +0.000 OA
ATOM      8  C   UNL     1       0.718   2.583  18.876  0.00  0.00    +0.000 C 
ENDBRANCH   4   7
BRANCH   6   9
ATOM      9  C   UNL     1       2.677   7.505  18.127  0.00  0.00    +0.000 C 
ATOM     10  O   UNL     1       2.735   8.315  17.206  0.00  0.00    +0.000 OA
BRANCH   9  11
ATOM     11  C   UNL     1       2.072   7.873  19.442  0.00  0.00    +0.000 C 
ATOM     12  C   UNL     1       1.421   9.041  19.569  0.00  0.00    +0.000 C 
BRANCH  12  13
ATOM     13  C   UNL     1       0.700   9.409  20.749  0.00  0.00    +0.000 A 
ATOM     14  C   UNL     1       0.350   8.666  21.864  0.00  0.00    +0.000 A 
ATOM     15  C   UNL     1      -0.473   9.375  22.787  0.00  0.00    +0.000 A 
ATOM     16  C   UNL     1      -0.707  10.670  22.388  0.00  0.00    +0.000 A 
ATOM     17  C   UNL     1      -1.516  11.714  23.087  0.00  0.00    +0.000 C 
ATOM     18  S   UNL     1       0.071  11.014  20.905  0.00  0.00    +0.000 S 
ENDBRANCH  12  13
ENDBRANCH   9  11
ENDBRANCH   6   9
BRANCH   1  19
ATOM     19  O   UNL     1       5.329   6.756  17.307  0.00  0.00    +0.000 OA
BRANCH  19  21
ATOM     20  C   UNL     1       7.536   7.670  17.411  0.00  0.00    +0.000 C 
ATOM     21  C   UNL     1       6.657   6.490  17.768  0.00  0.00    +0.000 C 
ENDBRANCH  19  21
ENDBRANCH   1  19
TORSDOF 6
ENDMDL
MODEL 2
REMARK VINA RESULT:      -6.7      1.332      1.574
REMARK  Name = 
REMARK  9 active torsions:
REMARK  status: ('A' for Active; 'I' for Inactive)
REMARK    1  A    between atoms: C_1  and  C_2
REMARK    2  A    between atoms: C_2  and  O_3
REMARK    3  A    between atoms: O_3  and  C_4
REMARK    4  A    between atoms: C_7  and  O_8
REMARK    5  A    between atoms: O_8  and  C_9
REMARK    6  A    between atoms: C_11  and  C_12
REMARK    7  A    between atoms: C_12  and  C_14
REMARK    8  A    between atoms: C_15  and  C_16
REMARK    9  A    between atoms: C_19  and  C_20
REMARK                            x       y       z     vdW  Elec       q    Type
REMARK                         _______ _______ _______ _____ _____    ______ ____
ROOT
ATOM      1  C   UNL     1       4.940   4.896  18.978  0.00  0.00    +0.000 A 
ATOM      2  C   UNL     1       4.964   3.570  19.431  0.00  0.00    +0.000 A 
ATOM      3  C   UNL     1       3.932   2.690  19.101  0.00  0.00    +0.000 A 
ATOM      4  C   UNL     1       2.848   3.118  18.339  0.00  0.00    +0.000 A 
ATOM      5  C   UNL     1       2.789   4.449  17.927  0.00  0.00    +0.000 A 
ATOM      6  C   UNL     1       3.824   5.353  18.257  0.00  0.00    +0.000 A 
ENDROOT
BRANCH   4   7
ATOM      7  O   UNL     1       1.937   2.136  18.073  0.00  0.00    +0.000 OA
ATOM      8  C   UNL     1       0.672   2.229  18.712  0.00  0.00    +0.000 C 
ENDBRANCH   4   7
BRANCH   6   9
ATOM      9  C   UNL     1       3.700   6.736  17.723  0.00  0.00    +0.000 C 
ATOM     10  O   UNL     1       4.384   7.070  16.760  0.00  0.00    +0.000 OA
BRANCH   9  11
ATOM     11  C   UNL     1       2.669   7.654  18.294  0.00  0.00    +0.000 C 
ATOM     12  C   UNL     1       2.290   7.513  19.574  0.00  0.00    +0.000 C 
BRANCH  12  13
ATOM     13  C   UNL     1       1.413   8.430  20.235  0.00  0.00    +0.000 A 
ATOM     14  C   UNL     1       0.877   8.409  21.512  0.00  0.00    +0.000 A 
ATOM     15  C   UNL     1      -0.052   9.461  21.758  0.00  0.00    +0.000 A 
ATOM     16  C   UNL     1      -0.185  10.303  20.678  0.00  0.00    +0.000 A 
ATOM     17  C   UNL     1      -1.057  11.510  20.556  0.00  0.00    +0.000 C 
ATOM     18  S   UNL     1       0.816   9.813  19.382  0.00  0.00    +0.000 S 
ENDBRANCH  12  13
ENDBRANCH   9  11
ENDBRANCH   6   9
BRANCH   1  19
ATOM     19  O   UNL     1       5.981   5.763  19.178  0.00  0.00    +0.000 OA
BRANCH  19  21
ATOM     20  C   UNL     1       7.728   6.893  17.998  0.00  0.00    +0.000 C 
ATOM     21  C   UNL     1       7.138   5.547  18.363  0.00  0.00    +0.000 C 
ENDBRANCH  19  21
ENDBRANCH   1  19
TORSDOF 6
ENDMDL
MODEL 3
REMARK VINA RESULT:      -6.6      1.324      3.587
REMARK  Name = 
REMARK  9 active torsions:
REMARK  status: ('A' for Active; 'I' for Inactive)
REMARK    1  A    between atoms: C_1  and  C_2
REMARK    2  A    between atoms: C_2  and  O_3
REMARK    3  A    between atoms: O_3  and  C_4
REMARK    4  A    between atoms: C_7  and  O_8
REMARK    5  A    between atoms: O_8  and  C_9
REMARK    6  A    between atoms: C_11  and  C_12
REMARK    7  A    between atoms: C_12  and  C_14
REMARK    8  A    between atoms: C_15  and  C_16
REMARK    9  A    between atoms: C_19  and  C_20
REMARK                            x       y       z     vdW  Elec       q    Type
REMARK                         _______ _______ _______ _____ _____    ______ ____
ROOT
ATOM      1  C   UNL     1       2.925   4.542  18.523  0.00  0.00    +0.000 A 
ATOM      2  C   UNL     1       3.821   3.466  18.587  0.00  0.00    +0.000 A 
ATOM      3  C   UNL     1       5.170   3.686  18.869  0.00  0.00    +0.000 A 
ATOM      4  C   UNL     1       5.656   4.975  19.066  0.00  0.00    +0.000 A 
ATOM      5  C   UNL     1       4.782   6.057  18.953  0.00  0.00    +0.000 A 
ATOM      6  C   UNL     1       3.414   5.851  18.663  0.00  0.00    +0.000 A 
ENDROOT
BRANCH   4   7
ATOM      7  O   UNL     1       6.988   5.026  19.365  0.00  0.00    +0.000 OA
ATOM      8  C   UNL     1       7.725   6.134  18.870  0.00  0.00    +0.000 C 
ENDBRANCH   4   7
BRANCH   6   9
ATOM      9  C   UNL     1       2.550   7.061  18.620  0.00  0.00    +0.000 C 
ATOM     10  O   UNL     1       2.213   7.519  17.532  0.00  0.00    +0.000 OA
BRANCH   9  11
ATOM     11  C   UNL     1       2.018   7.630  19.895  0.00  0.00    +0.000 C 
ATOM     12  C   UNL     1       1.358   8.799  19.875  0.00  0.00    +0.000 C 
BRANCH  12  13
ATOM     13  C   UNL     1       0.702   9.345  21.024  0.00  0.00    +0.000 A 
ATOM     14  C   UNL     1       0.564   8.847  22.309  0.00  0.00    +0.000 A 
ATOM     15  C   UNL     1      -0.265   9.650  23.145  0.00  0.00    +0.000 A 
ATOM     16  C   UNL     1      -0.717  10.779  22.502  0.00  0.00    +0.000 A 
ATOM     17  C   UNL     1      -1.600  11.854  23.047  0.00  0.00    +0.000 C 
ATOM     18  S   UNL     1      -0.133  10.856  20.897  0.00  0.00    +0.000 S 
ENDBRANCH  12  13
ENDBRANCH   9  11
ENDBRANCH   6   9
BRANCH   1  19
ATOM     19  O   UNL     1       1.575   4.368  18.363  0.00  0.00    +0.000 OA
BRANCH  19  21
ATOM     20  C   UNL     1       1.036   3.781  20.618  0.00  0.00    +0.000 C 
ATOM     21  C   UNL     1       0.978   3.347  19.168  0.00  0.00    +0.000 C 
ENDBRANCH  19  21
ENDBRANCH   1  19
TORSDOF 6
ENDMDL
MODEL 4
REMARK VINA RESULT:      -6.5      2.373      4.035
REMARK  Name = 
REMARK  9 active torsions:
REMARK  status: ('A' for Active; 'I' for Inactive)
REMARK    1  A    between atoms: C_1  and  C_2
REMARK    2  A    between atoms: C_2  and  O_3
REMARK    3  A    between atoms: O_3  and  C_4
REMARK    4  A    between atoms: C_7  and  O_8
REMARK    5  A    between atoms: O_8  and  C_9
REMARK    6  A    between atoms: C_11  and  C_12
REMARK    7  A    between atoms: C_12  and  C_14
REMARK    8  A    between atoms: C_15  and  C_16
REMARK    9  A    between atoms: C_19  and  C_20
REMARK                            x       y       z     vdW  Elec       q    Type
REMARK                         _______ _______ _______ _____ _____    ______ ____
ROOT
ATOM      1  C   UNL     1       6.606   5.065  17.134  0.00  0.00    +0.000 A 
ATOM      2  C   UNL     1       7.403   5.105  15.983  0.00  0.00    +0.000 A 
ATOM      3  C   UNL     1       6.898   4.672  14.757  0.00  0.00    +0.000 A 
ATOM      4  C   UNL     1       5.604   4.168  14.658  0.00  0.00    +0.000 A 
ATOM      5  C   UNL     1       4.820   4.075  15.808  0.00  0.00    +0.000 A 
ATOM      6  C   UNL     1       5.320   4.505  17.058  0.00  0.00    +0.000 A 
ENDROOT
BRANCH   4   7
ATOM      7  O   UNL     1       5.242   3.814  13.389  0.00  0.00    +0.000 OA
ATOM      8  C   UNL     1       6.286   3.616  12.445  0.00  0.00    +0.000 C 
ENDBRANCH   4   7
BRANCH   6   9
ATOM      9  C   UNL     1       4.390   4.421  18.215  0.00  0.00    +0.000 C 
ATOM     10  O   UNL     1       4.231   3.342  18.780  0.00  0.00    +0.000 OA
BRANCH   9  11
ATOM     11  C   UNL     1       3.753   5.667  18.739  0.00  0.00    +0.000 C 
ATOM     12  C   UNL     1       3.034   6.442  17.912  0.00  0.00    +0.000 C 
BRANCH  12  13
ATOM     13  C   UNL     1       2.283   7.575  18.360  0.00  0.00    +0.000 A 
ATOM     14  C   UNL     1       1.844   8.697  17.676  0.00  0.00    +0.000 A 
ATOM     15  C   UNL     1       1.213   9.663  18.512  0.00  0.00    +0.000 A 
ATOM     16  C   UNL     1       1.137   9.250  19.823  0.00  0.00    +0.000 A 
ATOM     17  C   UNL     1       0.549   9.983  20.984  0.00  0.00    +0.000 C 
ATOM     18  S   UNL     1       1.827   7.699  20.025  0.00  0.00    +0.000 S 
ENDBRANCH  12  13
ENDBRANCH   9  11
ENDBRANCH   6   9
BRANCH   1  19
ATOM     19  O   UNL     1       7.017   5.584  18.334  0.00  0.00    +0.000 OA
BRANCH  19  21
ATOM     20  C   UNL     1       7.181   7.883  17.696  0.00  0.00    +0.000 C 
ATOM     21  C   UNL     1       7.923   6.688  18.258  0.00  0.00    +0.000 C 
ENDBRANCH  19  21
ENDBRANCH   1  19
TORSDOF 6
ENDMDL
MODEL 5
REMARK VINA RESULT:      -6.5      1.786      4.302
REMARK  Name = 
REMARK  9 active torsions:
REMARK  status: ('A' for Active; 'I' for Inactive)
REMARK    1  A    between atoms: C_1  and  C_2
REMARK    2  A    between atoms: C_2  and  O_3
REMARK    3  A    between atoms: O_3  and  C_4
REMARK    4  A    between atoms: C_7  and  O_8
REMARK    5  A    between atoms: O_8  and  C_9
REMARK    6  A    between atoms: C_11  and  C_12
REMARK    7  A    between atoms: C_12  and  C_14
REMARK    8  A    between atoms: C_15  and  C_16
REMARK    9  A    between atoms: C_19  and  C_20
REMARK                            x       y       z     vdW  Elec       q    Type
REMARK                         _______ _______ _______ _____ _____    ______ ____
ROOT
ATOM      1  C   UNL     1       5.302   5.054  19.096  0.00  0.00    +0.000 A 
ATOM      2  C   UNL     1       6.667   5.241  19.348  0.00  0.00    +0.000 A 
ATOM      3  C   UNL     1       7.401   6.176  18.617  0.00  0.00    +0.000 A 
ATOM      4  C   UNL     1       6.798   6.921  17.607  0.00  0.00    +0.000 A 
ATOM      5  C   UNL     1       5.451   6.705  17.313  0.00  0.00    +0.000 A 
ATOM      6  C   UNL     1       4.698   5.758  18.042  0.00  0.00    +0.000 A 
ENDROOT
BRANCH   4   7
ATOM      7  O   UNL     1       7.635   7.816  17.004  0.00  0.00    +0.000 OA
ATOM      8  C   UNL     1       8.127   8.887  17.798  0.00  0.00    +0.000 C 
ENDBRANCH   4   7
BRANCH   6   9
ATOM      9  C   UNL     1       3.256   5.641  17.694  0.00  0.00    +0.000 C 
ATOM     10  O   UNL     1       2.843   4.600  17.188  0.00  0.00    +0.000 OA
BRANCH   9  11
ATOM     11  C   UNL     1       2.318   6.742  18.068  0.00  0.00    +0.000 C 
ATOM     12  C   UNL     1       2.369   7.266  19.303  0.00  0.00    +0.000 C 
BRANCH  12  13
ATOM     13  C   UNL     1       1.603   8.408  19.698  0.00  0.00    +0.000 A 
ATOM     14  C   UNL     1       1.221   9.533  18.986  0.00  0.00    +0.000 A 
ATOM     15  C   UNL     1       0.548  10.508  19.777  0.00  0.00    +0.000 A 
ATOM     16  C   UNL     1       0.383  10.099  21.080  0.00  0.00    +0.000 A 
ATOM     17  C   UNL     1      -0.272  10.841  22.200  0.00  0.00    +0.000 C 
ATOM     18  S   UNL     1       1.041   8.541  21.331  0.00  0.00    +0.000 S 
ENDBRANCH  12  13
ENDBRANCH   9  11
ENDBRANCH   6   9
BRANCH   1  19
ATOM     19  O   UNL     1       4.516   4.233  19.861  0.00  0.00    +0.000 OA
BRANCH  19  21
ATOM     20  C   UNL     1       3.369   2.185  19.405  0.00  0.00    +0.000 C 
ATOM     21  C   UNL     1       4.713   2.828  19.672  0.00  0.00    +0.000 C 
ENDBRANCH  19  21
ENDBRANCH   1  19
TORSDOF 6
ENDMDL
MODEL 6
REMARK VINA RESULT:      -6.5      2.312      4.354
REMARK  Name = 
REMARK  9 active torsions:
REMARK  status: ('A' for Active; 'I' for Inactive)
REMARK    1  A    between atoms: C_1  and  C_2
REMARK    2  A    between atoms: C_2  and  O_3
REMARK    3  A    between atoms: O_3  and  C_4
REMARK    4  A    between atoms: C_7  and  O_8
REMARK    5  A    between atoms: O_8  and  C_9
REMARK    6  A    between atoms: C_11  and  C_12
REMARK    7  A    between atoms: C_12  and  C_14
REMARK    8  A    between atoms: C_15  and  C_16
REMARK    9  A    between atoms: C_19  and  C_20
REMARK                            x       y       z     vdW  Elec       q    Type
REMARK                         _______ _______ _______ _____ _____    ______ ____
ROOT
ATOM      1  C   UNL     1       4.852   4.873  18.895  0.00  0.00    +0.000 A 
ATOM      2  C   UNL     1       6.241   4.688  18.857  0.00  0.00    +0.000 A 
ATOM      3  C   UNL     1       7.056   5.587  18.167  0.00  0.00    +0.000 A 
ATOM      4  C   UNL     1       6.505   6.668  17.484  0.00  0.00    +0.000 A 
ATOM      5  C   UNL     1       5.119   6.831  17.472  0.00  0.00    +0.000 A 
ATOM      6  C   UNL     1       4.281   5.926  18.162  0.00  0.00    +0.000 A 
ENDROOT
BRANCH   4   7
ATOM      7  O   UNL     1       7.430   7.475  16.885  0.00  0.00    +0.000 OA
ATOM      8  C   UNL     1       7.941   8.558  17.648  0.00  0.00    +0.000 C 
ENDBRANCH   4   7
BRANCH   6   9
ATOM      9  C   UNL     1       2.822   6.216  18.140  0.00  0.00    +0.000 C 
ATOM     10  O   UNL     1       2.047   5.364  17.714  0.00  0.00    +0.000 OA
BRANCH   9  11
ATOM     11  C   UNL     1       2.317   7.489  18.737  0.00  0.00    +0.000 C 
ATOM     12  C   UNL     1       2.007   8.520  17.936  0.00  0.00    +0.000 C 
BRANCH  12  13
ATOM     13  C   UNL     1       1.392   9.722  18.412  0.00  0.00    +0.000 A 
ATOM     14  C   UNL     1       0.199   9.922  19.087  0.00  0.00    +0.000 A 
ATOM     15  C   UNL     1      -0.117  11.297  19.291  0.00  0.00    +0.000 A 
ATOM     16  C   UNL     1       0.861  12.134  18.807  0.00  0.00    +0.000 A 
ATOM     17  C   UNL     1       0.889  13.628  18.837  0.00  0.00    +0.000 C 
ATOM     18  S   UNL     1       2.150  11.250  18.115  0.00  0.00    +0.000 S 
ENDBRANCH  12  13
ENDBRANCH   9  11
ENDBRANCH   6   9
BRANCH   1  19
ATOM     19  O   UNL     1       4.024   4.085  19.651  0.00  0.00    +0.000 OA
BRANCH  19  21
ATOM     20  C   UNL     1       3.558   2.189  18.270  0.00  0.00    +0.000 C 
ATOM     21  C   UNL     1       4.232   2.674  19.537  0.00  0.00    +0.000 C 
ENDBRANCH  19  21
ENDBRANCH   1  19
TORSDOF 6
ENDMDL
MODEL 7
REMARK VINA RESULT:      -6.5      1.641      3.979
REMARK  Name = 
REMARK  9 active torsions:
REMARK  status: ('A' for Active; 'I' for Inactive)
REMARK    1  A    between atoms: C_1  and  C_2
REMARK    2  A    between atoms: C_2  and  O_3
REMARK    3  A    between atoms: O_3  and  C_4
REMARK    4  A    between atoms: C_7  and  O_8
REMARK    5  A    between atoms: O_8  and  C_9
REMARK    6  A    between atoms: C_11  and  C_12
REMARK    7  A    between atoms: C_12  and  C_14
REMARK    8  A    between atoms: C_15  and  C_16
REMARK    9  A    between atoms: C_19  and  C_20
REMARK                            x       y       z     vdW  Elec       q    Type
REMARK                         _______ _______ _______ _____ _____    ______ ____
ROOT
ATOM      1  C   UNL     1       2.985   4.437  18.016  0.00  0.00    +0.000 A 
ATOM      2  C   UNL     1       3.910   4.026  17.046  0.00  0.00    +0.000 A 
ATOM      3  C   UNL     1       5.262   4.344  17.178  0.00  0.00    +0.000 A 
ATOM      4  C   UNL     1       5.715   5.095  18.259  0.00  0.00    +0.000 A 
ATOM      5  C   UNL     1       4.795   5.553  19.203  0.00  0.00    +0.000 A 
ATOM      6  C   UNL     1       3.422   5.243  19.080  0.00  0.00    +0.000 A 
ENDROOT
BRANCH   4   7
ATOM      7  O   UNL     1       7.066   5.297  18.266  0.00  0.00    +0.000 OA
ATOM      8  C   UNL     1       7.534   6.590  17.909  0.00  0.00    +0.000 C 
ENDBRANCH   4   7
BRANCH   6   9
ATOM      9  C   UNL     1       2.528   5.726  20.166  0.00  0.00    +0.000 C 
ATOM     10  O   UNL     1       2.361   5.026  21.162  0.00  0.00    +0.000 OA
BRANCH   9  11
ATOM     11  C   UNL     1       1.939   7.096  20.079  0.00  0.00    +0.000 C 
ATOM     12  C   UNL     1       1.145   7.541  21.066  0.00  0.00    +0.000 C 
BRANCH  12  13
ATOM     13  C   UNL     1       0.652   8.883  21.127  0.00  0.00    +0.000 A 
ATOM     14  C   UNL     1       0.778   9.935  20.234  0.00  0.00    +0.000 A 
ATOM     15  C   UNL     1       0.230  11.159  20.715  0.00  0.00    +0.000 A 
ATOM     16  C   UNL     1      -0.348  11.021  21.956  0.00  0.00    +0.000 A 
ATOM     17  C   UNL     1      -1.021  12.072  22.778  0.00  0.00    +0.000 C 
ATOM     18  S   UNL     1      -0.225   9.413  22.523  0.00  0.00    +0.000 S 
ENDBRANCH  12  13
ENDBRANCH   9  11
ENDBRANCH   6   9
BRANCH   1  19
ATOM     19  O   UNL     1       1.670   4.054  17.990  0.00  0.00    +0.000 OA
BRANCH  19  21
ATOM     20  C   UNL     1       0.685   2.566  19.582  0.00  0.00    +0.000 C 
ATOM     21  C   UNL     1       1.418   2.671  18.261  0.00  0.00    +0.000 C 
ENDBRANCH  19  21
ENDBRANCH   1  19
TORSDOF 6
ENDMDL
MODEL 8
REMARK VINA RESULT:      -6.4      4.534      7.280
REMARK  Name = 
REMARK  9 active torsions:
REMARK  status: ('A' for Active; 'I' for Inactive)
REMARK    1  A    between atoms: C_1  and  C_2
REMARK    2  A    between atoms: C_2  and  O_3
REMARK    3  A    between atoms: O_3  and  C_4
REMARK    4  A    between atoms: C_7  and  O_8
REMARK    5  A    between atoms: O_8  and  C_9
REMARK    6  A    between atoms: C_11  and  C_12
REMARK    7  A    between atoms: C_12  and  C_14
REMARK    8  A    between atoms: C_15  and  C_16
REMARK    9  A    between atoms: C_19  and  C_20
REMARK                            x       y       z     vdW  Elec       q    Type
REMARK                         _______ _______ _______ _____ _____    ______ ____
ROOT
ATOM      1  C   UNL     1       5.473   5.573  17.573  0.00  0.00    +0.000 A 
ATOM      2  C   UNL     1       4.730   4.834  16.643  0.00  0.00    +0.000 A 
ATOM      3  C   UNL     1       5.263   4.537  15.387  0.00  0.00    +0.000 A 
ATOM      4  C   UNL     1       6.529   4.990  15.025  0.00  0.00    +0.000 A 
ATOM      5  C   UNL     1       7.255   5.770  15.925  0.00  0.00    +0.000 A 
ATOM      6  C   UNL     1       6.727   6.083  17.197  0.00  0.00    +0.000 A 
ENDROOT
BRANCH   4   7
ATOM      7  O   UNL     1       6.924   4.592  13.780  0.00  0.00    +0.000 OA
ATOM      8  C   UNL     1       6.099   3.654  13.103  0.00  0.00    +0.000 C 
ENDBRANCH   4   7
BRANCH   6   9
ATOM      9  C   UNL     1       7.600   6.872  18.108  0.00  0.00    +0.000 C 
ATOM     10  O   UNL     1       8.215   6.293  19.000  0.00  0.00    +0.000 OA
BRANCH   9  11
ATOM     11  C   UNL     1       7.802   8.330  17.853  0.00  0.00    +0.000 C 
ATOM     12  C   UNL     1       8.580   9.046  18.681  0.00  0.00    +0.000 C 
BRANCH  12  13
ATOM     13  C   UNL     1       8.932  10.411  18.434  0.00  0.00    +0.000 A 
ATOM     14  C   UNL     1       8.349  11.363  17.614  0.00  0.00    +0.000 A 
ATOM     15  C   UNL     1       9.072  12.589  17.560  0.00  0.00    +0.000 A 
ATOM     16  C   UNL     1      10.180  12.579  18.375  0.00  0.00    +0.000 A 
ATOM     17  C   UNL     1      11.176  13.672  18.586  0.00  0.00    +0.000 C 
ATOM     18  S   UNL     1      10.332  11.087  19.197  0.00  0.00    +0.000 S 
ENDBRANCH  12  13
ENDBRANCH   9  11
ENDBRANCH   6   9
BRANCH   1  19
ATOM     19  O   UNL     1       5.042   5.792  18.854  0.00  0.00    +0.000 OA
BRANCH  19  21
ATOM     20  C   UNL     1       3.232   4.671  19.945  0.00  0.00    +0.000 C 
ATOM     21  C   UNL     1       3.623   5.819  19.038  0.00  0.00    +0.000 C 
ENDBRANCH  19  21
ENDBRANCH   1  19
TORSDOF 6
ENDMDL
MODEL 9
REMARK VINA RESULT:      -6.4      2.447      3.787
REMARK  Name = 
REMARK  9 active torsions:
REMARK  status: ('A' for Active; 'I' for Inactive)
REMARK    1  A    between atoms: C_1  and  C_2
REMARK    2  A    between atoms: C_2  and  O_3
REMARK    3  A    between atoms: O_3  and  C_4
REMARK    4  A    between atoms: C_7  and  O_8
REMARK    5  A    between atoms: O_8  and  C_9
REMARK    6  A    between atoms: C_11  and  C_12
REMARK    7  A    between atoms: C_12  and  C_14
REMARK    8  A    between atoms: C_15  and  C_16
REMARK    9  A    between atoms: C_19  and  C_20
REMARK                            x       y       z     vdW  Elec       q    Type
REMARK                         _______ _______ _______ _____ _____    ______ ____
ROOT
ATOM      1  C   UNL     1       6.412   5.173  17.010  0.00  0.00    +0.000 A 
ATOM      2  C   UNL     1       7.341   4.992  15.977  0.00  0.00    +0.000 A 
ATOM      3  C   UNL     1       6.926   4.545  14.722  0.00  0.00    +0.000 A 
ATOM      4  C   UNL     1       5.587   4.247  14.479  0.00  0.00    +0.000 A 
ATOM      5  C   UNL     1       4.663   4.375  15.516  0.00  0.00    +0.000 A 
ATOM      6  C   UNL     1       5.069   4.821  16.793  0.00  0.00    +0.000 A 
ENDROOT
BRANCH   4   7
ATOM      7  O   UNL     1       5.332   3.853  13.196  0.00  0.00    +0.000 OA
ATOM      8  C   UNL     1       6.449   3.573  12.365  0.00  0.00    +0.000 C 
ENDBRANCH   4   7
BRANCH   6   9
ATOM      9  C   UNL     1       4.002   4.981  17.817  0.00  0.00    +0.000 C 
ATOM     10  O   UNL     1       3.709   4.027  18.533  0.00  0.00    +0.000 OA
BRANCH   9  11
ATOM     11  C   UNL     1       3.384   6.324  18.031  0.00  0.00    +0.000 C 
ATOM     12  C   UNL     1       2.488   6.492  19.017  0.00  0.00    +0.000 C 
BRANCH  12  13
ATOM     13  C   UNL     1       1.952   7.770  19.375  0.00  0.00    +0.000 A 
ATOM     14  C   UNL     1       1.482   8.246  20.588  0.00  0.00    +0.000 A 
ATOM     15  C   UNL     1       0.922   9.554  20.508  0.00  0.00    +0.000 A 
ATOM     16  C   UNL     1       1.009  10.083  19.241  0.00  0.00    +0.000 A 
ATOM     17  C   UNL     1       0.537  11.420  18.770  0.00  0.00    +0.000 C 
ATOM     18  S   UNL     1       1.769   8.994  18.165  0.00  0.00    +0.000 S 
ENDBRANCH  12  13
ENDBRANCH   9  11
ENDBRANCH   6   9
BRANCH   1  19
ATOM     19  O   UNL     1       6.752   5.716  18.221  0.00  0.00    +0.000 OA
BRANCH  19  21
ATOM     20  C   UNL     1       7.549   7.901  17.664  0.00  0.00    +0.000 C 
ATOM     21  C   UNL     1       7.919   6.545  18.227  0.00  0.00    +0.000 C 
ENDBRANCH  19  21
ENDBRANCH   1  19
TORSDOF 6
ENDMDL
