MODEL 1
REMARK VINA RESULT:      -7.3      0.000      0.000
REMARK  Name = 
REMARK  6 active torsions:
REMARK  status: ('A' for Active; 'I' for Inactive)
REMARK    1  A    between atoms: C_7  and  O_8
REMARK    2  A    between atoms: O_8  and  C_9
REMARK    3  A    between atoms: C_9  and  C_10
REMARK    4  A    between atoms: C_12  and  O_13
REMARK    5  A    between atoms: O_13  and  C_14
REMARK    6  A    between atoms: C_14  and  C_15
REMARK                            x       y       z     vdW  Elec       q    Type
REMARK                         _______ _______ _______ _____ _____    ______ ____
ROOT
ATOM      1  C   UNL     1       5.873   4.997  17.308  0.00  0.00    +0.000 A 
ATOM      2  C   UNL     1       5.609   5.524  16.061  0.00  0.00    +0.000 A 
ATOM      3  C   UNL     1       6.752   5.198  15.316  0.00  0.00    +0.000 A 
ATOM      4  N   UNL     1       7.677   4.575  16.054  0.00  0.00    +0.000 NA
ATOM      5  O   UNL     1       7.118   4.446  17.307  0.00  0.00    +0.000 OA
ENDROOT
BRANCH   1   6
ATOM      6  C   UNL     1       5.115   4.865  18.573  0.00  0.00    +0.000 C 
BRANCH   6   7
ATOM      7  O   UNL     1       3.773   5.230  18.286  0.00  0.00    +0.000 OA
BRANCH   7  14
ATOM      8 CL   UNL     1       1.740   6.186  20.742  0.00  0.00    +0.000 Cl
ATOM      9  C   UNL     1       1.809   4.743  19.790  0.00  0.00    +0.000 A 
ATOM     10  C   UNL     1       0.830   3.787  20.111  0.00  0.00    +0.000 A 
ATOM     11  C   UNL     1       0.764   2.571  19.435  0.00  0.00    +0.000 A 
ATOM     12  C   UNL     1       1.676   2.298  18.426  0.00  0.00    +0.000 A 
ATOM     13  C   UNL     1       2.650   3.245  18.099  0.00  0.00    +0.000 A 
ATOM     14  C   UNL     1       2.738   4.478  18.772  0.00  0.00    +0.000 A 
ENDBRANCH   7  14
ENDBRANCH   6   7
ENDBRANCH   1   6
BRANCH   3  15
ATOM     15  O   UNL     1       6.979   5.458  14.002  0.00  0.00    +0.000 OA
BRANCH  15  16
ATOM     16  C   UNL     1       7.500   4.311  13.308  0.00  0.00    +0.000 C 
BRANCH  16  17
ATOM     17  C   UNL     1       6.533   3.815  12.232  0.00  0.00    +0.000 C 
ATOM     18  C   UNL     1       5.058   3.897  12.590  0.00  0.00    +0.000 C 
ATOM     19  C   UNL     1       4.433   3.017  11.516  0.00  0.00    +0.000 C 
ATOM     20  C   UNL     1       5.489   1.954  11.233  0.00  0.00    +0.000 C 
ATOM     21  N   UNL     1       6.680   2.372  11.974  0.00  0.00    +0.000 NA
ATOM     22  H   UNL     1       7.532   2.171  11.452  0.00  0.00    +0.000 HD
ENDBRANCH  16  17
ENDBRANCH  15  16
ENDBRANCH   3  15
TORSDOF 6
ENDMDL
MODEL 2
REMARK VINA RESULT:      -7.2      4.612      6.740
REMARK  Name = 
REMARK  6 active torsions:
REMARK  status: ('A' for Active; 'I' for Inactive)
REMARK    1  A    between atoms: C_7  and  O_8
REMARK    2  A    between atoms: O_8  and  C_9
REMARK    3  A    between atoms: C_9  and  C_10
REMARK    4  A    between atoms: C_12  and  O_13
REMARK    5  A    between atoms: O_13  and  C_14
REMARK    6  A    between atoms: C_14  and  C_15
REMARK                            x       y       z     vdW  Elec       q    Type
REMARK                         _______ _______ _______ _____ _____    ______ ____
ROOT
ATOM      1  C   UNL     1       6.412   5.741  17.648  0.00  0.00    +0.000 A 
ATOM      2  C   UNL     1       7.369   6.151  18.551  0.00  0.00    +0.000 A 
ATOM      3  C   UNL     1       7.780   7.397  18.055  0.00  0.00    +0.000 A 
ATOM      4  N   UNL     1       7.174   7.709  16.905  0.00  0.00    +0.000 NA
ATOM      5  O   UNL     1       6.309   6.665  16.653  0.00  0.00    +0.000 OA
ENDROOT
BRANCH   1   6
ATOM      6  C   UNL     1       5.482   4.592  17.552  0.00  0.00    +0.000 C 
BRANCH   6   7
ATOM      7  O   UNL     1       5.176   4.202  18.883  0.00  0.00    +0.000 OA
BRANCH   7  14
ATOM      8 CL   UNL     1       3.465   1.389  18.400  0.00  0.00    +0.000 Cl
ATOM      9  C   UNL     1       3.032   2.898  19.125  0.00  0.00    +0.000 A 
ATOM     10  C   UNL     1       1.709   2.959  19.596  0.00  0.00    +0.000 A 
ATOM     11  C   UNL     1       1.212   4.113  20.198  0.00  0.00    +0.000 A 
ATOM     12  C   UNL     1       2.037   5.220  20.339  0.00  0.00    +0.000 A 
ATOM     13  C   UNL     1       3.353   5.166  19.877  0.00  0.00    +0.000 A 
ATOM     14  C   UNL     1       3.874   4.012  19.261  0.00  0.00    +0.000 A 
ENDBRANCH   7  14
ENDBRANCH   6   7
ENDBRANCH   1   6
BRANCH   3  15
ATOM     15  O   UNL     1       8.687   8.243  18.607  0.00  0.00    +0.000 OA
BRANCH  15  16
ATOM     16  C   UNL     1       8.465   9.607  18.210  0.00  0.00    +0.000 C 
BRANCH  16  17
ATOM     17  C   UNL     1       9.518  10.546  18.802  0.00  0.00    +0.000 C 
ATOM     18  C   UNL     1       9.453  10.734  20.309  0.00  0.00    +0.000 C 
ATOM     19  C   UNL     1      10.342  11.955  20.504  0.00  0.00    +0.000 C 
ATOM     20  C   UNL     1      10.143  12.776  19.234  0.00  0.00    +0.000 C 
ATOM     21  N   UNL     1       9.349  11.934  18.338  0.00  0.00    +0.000 NA
ATOM     22  H   UNL     1       9.644  12.042  17.368  0.00  0.00    +0.000 HD
ENDBRANCH  16  17
ENDBRANCH  15  16
ENDBRANCH   3  15
TORSDOF 6
ENDMDL
MODEL 3
REMARK VINA RESULT:      -7.2      1.537      1.752
REMARK  Name = 
REMARK  6 active torsions:
REMARK  status: ('A' for Active; 'I' for Inactive)
REMARK    1  A    between atoms: C_7  and  O_8
REMARK    2  A    between atoms: O_8  and  C_9
REMARK    3  A    between atoms: C_9  and  C_10
REMARK    4  A    between atoms: C_12  and  O_13
REMARK    5  A    between atoms: O_13  and  C_14
REMARK    6  A    between atoms: C_14  and  C_15
REMARK                            x       y       z     vdW  Elec       q    Type
REMARK                         _______ _______ _______ _____ _____    ______ ____
ROOT
ATOM      1  C   UNL     1       5.891   4.610  17.711  0.00  0.00    +0.000 A 
ATOM      2  C   UNL     1       5.327   4.896  16.485  0.00  0.00    +0.000 A 
ATOM      3  C   UNL     1       6.426   5.271  15.697  0.00  0.00    +0.000 A 
ATOM      4  N   UNL     1       7.569   5.278  16.390  0.00  0.00    +0.000 NA
ATOM      5  O   UNL     1       7.229   4.856  17.658  0.00  0.00    +0.000 OA
ENDROOT
BRANCH   1   6
ATOM      6  C   UNL     1       5.389   4.073  18.997  0.00  0.00    +0.000 C 
BRANCH   6   7
ATOM      7  O   UNL     1       4.336   3.175  18.682  0.00  0.00    +0.000 OA
BRANCH   7  14
ATOM      8 CL   UNL     1       1.415   4.373  17.627  0.00  0.00    +0.000 Cl
ATOM      9  C   UNL     1       1.897   3.643  19.120  0.00  0.00    +0.000 A 
ATOM     10  C   UNL     1       0.871   3.537  20.073  0.00  0.00    +0.000 A 
ATOM     11  C   UNL     1       1.109   2.978  21.327  0.00  0.00    +0.000 A 
ATOM     12  C   UNL     1       2.378   2.513  21.639  0.00  0.00    +0.000 A 
ATOM     13  C   UNL     1       3.402   2.612  20.695  0.00  0.00    +0.000 A 
ATOM     14  C   UNL     1       3.186   3.177  19.424  0.00  0.00    +0.000 A 
ENDBRANCH   7  14
ENDBRANCH   6   7
ENDBRANCH   1   6
BRANCH   3  15
ATOM     15  O   UNL     1       6.415   5.613  14.382  0.00  0.00    +0.000 OA
BRANCH  15  16
ATOM     16  C   UNL     1       7.152   4.678  13.575  0.00  0.00    +0.000 C 
BRANCH  16  17
ATOM     17  C   UNL     1       6.250   3.569  13.030  0.00  0.00    +0.000 C 
ATOM     18  C   UNL     1       6.807   2.794  11.848  0.00  0.00    +0.000 C 
ATOM     19  C   UNL     1       5.566   2.071  11.344  0.00  0.00    +0.000 C 
ATOM     20  C   UNL     1       4.417   3.025  11.654  0.00  0.00    +0.000 C 
ATOM     21  N   UNL     1       5.001   4.101  12.456  0.00  0.00    +0.000 NA
ATOM     22  H   UNL     1       4.359   4.413  13.183  0.00  0.00    +0.000 HD
ENDBRANCH  16  17
ENDBRANCH  15  16
ENDBRANCH   3  15
TORSDOF 6
ENDMDL
MODEL 4
REMARK VINA RESULT:      -7.2      4.865      6.756
REMARK  Name = 
REMARK  6 active torsions:
REMARK  status: ('A' for Active; 'I' for Inactive)
REMARK    1  A    between atoms: C_7  and  O_8
REMARK    2  A    between atoms: O_8  and  C_9
REMARK    3  A    between atoms: C_9  and  C_10
REMARK    4  A    between atoms: C_12  and  O_13
REMARK    5  A    between atoms: O_13  and  C_14
REMARK    6  A    between atoms: C_14  and  C_15
REMARK                            x       y       z     vdW  Elec       q    Type
REMARK                         _______ _______ _______ _____ _____    ______ ____
ROOT
ATOM      1  C   UNL     1       7.201   5.886  17.726  0.00  0.00    +0.000 A 
ATOM      2  C   UNL     1       7.942   6.490  18.720  0.00  0.00    +0.000 A 
ATOM      3  C   UNL     1       8.144   7.791  18.238  0.00  0.00    +0.000 A 
ATOM      4  N   UNL     1       7.625   7.966  17.018  0.00  0.00    +0.000 NA
ATOM      5  O   UNL     1       7.027   6.765  16.700  0.00  0.00    +0.000 OA
ENDROOT
BRANCH   1   6
ATOM      6  C   UNL     1       6.543   4.570  17.560  0.00  0.00    +0.000 C 
BRANCH   6   7
ATOM      7  O   UNL     1       5.874   4.289  18.781  0.00  0.00    +0.000 OA
BRANCH   7  14
ATOM      8 CL   UNL     1       4.692   1.776  20.613  0.00  0.00    +0.000 Cl
ATOM      9  C   UNL     1       3.934   2.837  19.477  0.00  0.00    +0.000 A 
ATOM     10  C   UNL     1       2.565   2.596  19.278  0.00  0.00    +0.000 A 
ATOM     11  C   UNL     1       1.820   3.364  18.386  0.00  0.00    +0.000 A 
ATOM     12  C   UNL     1       2.440   4.388  17.683  0.00  0.00    +0.000 A 
ATOM     13  C   UNL     1       3.800   4.636  17.877  0.00  0.00    +0.000 A 
ATOM     14  C   UNL     1       4.572   3.869  18.770  0.00  0.00    +0.000 A 
ENDBRANCH   7  14
ENDBRANCH   6   7
ENDBRANCH   1   6
BRANCH   3  15
ATOM     15  O   UNL     1       8.788   8.809  18.864  0.00  0.00    +0.000 OA
BRANCH  15  16
ATOM     16  C   UNL     1       8.666  10.049  18.146  0.00  0.00    +0.000 C 
BRANCH  16  17
ATOM     17  C   UNL     1       9.741  11.053  18.566  0.00  0.00    +0.000 C 
ATOM     18  C   UNL     1       9.254  12.474  18.802  0.00  0.00    +0.000 C 
ATOM     19  C   UNL     1      10.566  13.247  18.828  0.00  0.00    +0.000 C 
ATOM     20  C   UNL     1      11.473  12.488  17.865  0.00  0.00    +0.000 C 
ATOM     21  N   UNL     1      10.743  11.271  17.508  0.00  0.00    +0.000 NA
ATOM     22  H   UNL     1      11.371  10.473  17.418  0.00  0.00    +0.000 HD
ENDBRANCH  16  17
ENDBRANCH  15  16
ENDBRANCH   3  15
TORSDOF 6
ENDMDL
MODEL 5
REMARK VINA RESULT:      -7.1      4.632      6.750
REMARK  Name = 
REMARK  6 active torsions:
REMARK  status: ('A' for Active; 'I' for Inactive)
REMARK    1  A    between atoms: C_7  and  O_8
REMARK    2  A    between atoms: O_8  and  C_9
REMARK    3  A    between atoms: C_9  and  C_10
REMARK    4  A    between atoms: C_12  and  O_13
REMARK    5  A    between atoms: O_13  and  C_14
REMARK    6  A    between atoms: C_14  and  C_15
REMARK                            x       y       z     vdW  Elec       q    Type
REMARK                         _______ _______ _______ _____ _____    ______ ____
ROOT
ATOM      1  C   UNL     1       6.644   5.694  17.072  0.00  0.00    +0.000 A 
ATOM      2  C   UNL     1       7.550   5.947  18.080  0.00  0.00    +0.000 A 
ATOM      3  C   UNL     1       7.821   7.317  17.944  0.00  0.00    +0.000 A 
ATOM      4  N   UNL     1       7.185   7.858  16.899  0.00  0.00    +0.000 NA
ATOM      5  O   UNL     1       6.441   6.833  16.354  0.00  0.00    +0.000 OA
ENDROOT
BRANCH   1   6
ATOM      6  C   UNL     1       5.846   4.520  16.648  0.00  0.00    +0.000 C 
BRANCH   6   7
ATOM      7  O   UNL     1       5.327   3.930  17.831  0.00  0.00    +0.000 OA
BRANCH   7  14
ATOM      8 CL   UNL     1       3.981   0.979  18.576  0.00  0.00    +0.000 Cl
ATOM      9  C   UNL     1       3.276   2.526  18.256  0.00  0.00    +0.000 A 
ATOM     10  C   UNL     1       1.873   2.549  18.312  0.00  0.00    +0.000 A 
ATOM     11  C   UNL     1       1.162   3.723  18.069  0.00  0.00    +0.000 A 
ATOM     12  C   UNL     1       1.851   4.889  17.769  0.00  0.00    +0.000 A 
ATOM     13  C   UNL     1       3.246   4.875  17.714  0.00  0.00    +0.000 A 
ATOM     14  C   UNL     1       3.984   3.700  17.952  0.00  0.00    +0.000 A 
ENDBRANCH   7  14
ENDBRANCH   6   7
ENDBRANCH   1   6
BRANCH   3  15
ATOM     15  O   UNL     1       8.629   8.077  18.727  0.00  0.00    +0.000 OA
BRANCH  15  16
ATOM     16  C   UNL     1       8.531   9.476  18.408  0.00  0.00    +0.000 C 
BRANCH  16  17
ATOM     17  C   UNL     1       9.672  10.279  19.035  0.00  0.00    +0.000 C 
ATOM     18  C   UNL     1       9.347  10.958  20.355  0.00  0.00    +0.000 C 
ATOM     19  C   UNL     1      10.512  11.928  20.496  0.00  0.00    +0.000 C 
ATOM     20  C   UNL     1      10.862  12.311  19.062  0.00  0.00    +0.000 C 
ATOM     21  N   UNL     1      10.056  11.437  18.209  0.00  0.00    +0.000 NA
ATOM     22  H   UNL     1      10.572  11.150  17.378  0.00  0.00    +0.000 HD
ENDBRANCH  16  17
ENDBRANCH  15  16
ENDBRANCH   3  15
TORSDOF 6
ENDMDL
MODEL 6
REMARK VINA RESULT:      -7.1      1.001      1.001
REMARK  Name = 
REMARK  6 active torsions:
REMARK  status: ('A' for Active; 'I' for Inactive)
REMARK    1  A    between atoms: C_7  and  O_8
REMARK    2  A    between atoms: O_8  and  C_9
REMARK    3  A    between atoms: C_9  and  C_10
REMARK    4  A    between atoms: C_12  and  O_13
REMARK    5  A    between atoms: O_13  and  C_14
REMARK    6  A    between atoms: C_14  and  C_15
REMARK                            x       y       z     vdW  Elec       q    Type
REMARK                         _______ _______ _______ _____ _____    ______ ____
ROOT
ATOM      1  C   UNL     1       5.162   6.220  17.141  0.00  0.00    +0.000 A 
ATOM      2  C   UNL     1       5.189   5.619  15.900  0.00  0.00    +0.000 A 
ATOM      3  C   UNL     1       6.518   5.786  15.481  0.00  0.00    +0.000 A 
ATOM      4  N   UNL     1       7.242   6.487  16.360  0.00  0.00    +0.000 NA
ATOM      5  O   UNL     1       6.386   6.755  17.407  0.00  0.00    +0.000 OA
ENDROOT
BRANCH   1   6
ATOM      6  C   UNL     1       4.154   6.363  18.216  0.00  0.00    +0.000 C 
BRANCH   6   7
ATOM      7  O   UNL     1       2.953   5.782  17.731  0.00  0.00    +0.000 OA
BRANCH   7  14
ATOM      8 CL   UNL     1       1.641   5.951  20.784  0.00  0.00    +0.000 Cl
ATOM      9  C   UNL     1       1.801   4.644  19.663  0.00  0.00    +0.000 A 
ATOM     10  C   UNL     1       1.289   3.418  20.122  0.00  0.00    +0.000 A 
ATOM     11  C   UNL     1       1.353   2.272  19.333  0.00  0.00    +0.000 A 
ATOM     12  C   UNL     1       1.928   2.340  18.072  0.00  0.00    +0.000 A 
ATOM     13  C   UNL     1       2.436   3.555  17.608  0.00  0.00    +0.000 A 
ATOM     14  C   UNL     1       2.386   4.725  18.390  0.00  0.00    +0.000 A 
ENDBRANCH   7  14
ENDBRANCH   6   7
ENDBRANCH   1   6
BRANCH   3  15
ATOM     15  O   UNL     1       7.080   5.333  14.331  0.00  0.00    +0.000 OA
BRANCH  15  16
ATOM     16  C   UNL     1       6.809   3.937  14.111  0.00  0.00    +0.000 C 
BRANCH  16  17
ATOM     17  C   UNL     1       6.189   3.693  12.734  0.00  0.00    +0.000 C 
ATOM     18  C   UNL     1       4.673   3.774  12.675  0.00  0.00    +0.000 C 
ATOM     19  C   UNL     1       4.384   3.136  11.323  0.00  0.00    +0.000 C 
ATOM     20  C   UNL     1       5.487   2.097  11.150  0.00  0.00    +0.000 C 
ATOM     21  N   UNL     1       6.417   2.317  12.258  0.00  0.00    +0.000 NA
ATOM     22  H   UNL     1       7.383   2.177  11.966  0.00  0.00    +0.000 HD
ENDBRANCH  16  17
ENDBRANCH  15  16
ENDBRANCH   3  15
TORSDOF 6
ENDMDL
MODEL 7
REMARK VINA RESULT:      -7.1      5.729      8.011
REMARK  Name = 
REMARK  6 active torsions:
REMARK  status: ('A' for Active; 'I' for Inactive)
REMARK    1  A    between atoms: C_7  and  O_8
REMARK    2  A    between atoms: O_8  and  C_9
REMARK    3  A    between atoms: C_9  and  C_10
REMARK    4  A    between atoms: C_12  and  O_13
REMARK    5  A    between atoms: O_13  and  C_14
REMARK    6  A    between atoms: C_14  and  C_15
REMARK                            x       y       z     vdW  Elec       q    Type
REMARK                         _______ _______ _______ _____ _____    ______ ____
ROOT
ATOM      1  C   UNL     1       2.167   8.245  18.471  0.00  0.00    +0.000 A 
ATOM      2  C   UNL     1       1.675   9.333  17.781  0.00  0.00    +0.000 A 
ATOM      3  C   UNL     1       0.971  10.053  18.759  0.00  0.00    +0.000 A 
ATOM      4  N   UNL     1       0.973   9.434  19.944  0.00  0.00    +0.000 NA
ATOM      5  O   UNL     1       1.731   8.297  19.760  0.00  0.00    +0.000 OA
ENDROOT
BRANCH   1   6
ATOM      6  C   UNL     1       3.062   7.111  18.143  0.00  0.00    +0.000 C 
BRANCH   6   7
ATOM      7  O   UNL     1       3.040   6.236  19.261  0.00  0.00    +0.000 OA
BRANCH   7  14
ATOM      8 CL   UNL     1       3.917   4.032  16.927  0.00  0.00    +0.000 Cl
ATOM      9  C   UNL     1       2.771   3.955  18.221  0.00  0.00    +0.000 A 
ATOM     10  C   UNL     1       2.070   2.741  18.306  0.00  0.00    +0.000 A 
ATOM     11  C   UNL     1       1.108   2.533  19.292  0.00  0.00    +0.000 A 
ATOM     12  C   UNL     1       0.839   3.540  20.208  0.00  0.00    +0.000 A 
ATOM     13  C   UNL     1       1.535   4.749  20.132  0.00  0.00    +0.000 A 
ATOM     14  C   UNL     1       2.507   4.982  19.141  0.00  0.00    +0.000 A 
ENDBRANCH   7  14
ENDBRANCH   6   7
ENDBRANCH   1   6
BRANCH   3  15
ATOM     15  O   UNL     1       0.328  11.238  18.601  0.00  0.00    +0.000 OA
BRANCH  15  16
ATOM     16  C   UNL     1      -0.960  11.243  19.243  0.00  0.00    +0.000 C 
BRANCH  16  17
ATOM     17  C   UNL     1      -2.097  11.127  18.226  0.00  0.00    +0.000 C 
ATOM     18  C   UNL     1      -2.470   9.711  17.819  0.00  0.00    +0.000 C 
ATOM     19  C   UNL     1      -3.321   9.962  16.582  0.00  0.00    +0.000 C 
ATOM     20  C   UNL     1      -2.721  11.218  15.957  0.00  0.00    +0.000 C 
ATOM     21  N   UNL     1      -1.738  11.710  16.922  0.00  0.00    +0.000 NA
ATOM     22  H   UNL     1      -1.729  12.729  16.957  0.00  0.00    +0.000 HD
ENDBRANCH  16  17
ENDBRANCH  15  16
ENDBRANCH   3  15
TORSDOF 6
ENDMDL
MODEL 8
REMARK VINA RESULT:      -7.1      1.302      1.546
REMARK  Name = 
REMARK  6 active torsions:
REMARK  status: ('A' for Active; 'I' for Inactive)
REMARK    1  A    between atoms: C_7  and  O_8
REMARK    2  A    between atoms: O_8  and  C_9
REMARK    3  A    between atoms: C_9  and  C_10
REMARK    4  A    between atoms: C_12  and  O_13
REMARK    5  A    between atoms: O_13  and  C_14
REMARK    6  A    between atoms: C_14  and  C_15
REMARK                            x       y       z     vdW  Elec       q    Type
REMARK                         _______ _______ _______ _____ _____    ______ ____
ROOT
ATOM      1  C   UNL     1       5.786   4.885  17.737  0.00  0.00    +0.000 A 
ATOM      2  C   UNL     1       5.258   4.815  16.465  0.00  0.00    +0.000 A 
ATOM      3  C   UNL     1       6.268   5.359  15.657  0.00  0.00    +0.000 A 
ATOM      4  N   UNL     1       7.312   5.789  16.373  0.00  0.00    +0.000 NA
ATOM      5  O   UNL     1       7.008   5.485  17.683  0.00  0.00    +0.000 OA
ENDROOT
BRANCH   1   6
ATOM      6  C   UNL     1       5.356   4.429  19.079  0.00  0.00    +0.000 C 
BRANCH   6   7
ATOM      7  O   UNL     1       4.121   5.073  19.353  0.00  0.00    +0.000 OA
BRANCH   7  14
ATOM      8 CL   UNL     1       1.618   4.217  17.334  0.00  0.00    +0.000 Cl
ATOM      9  C   UNL     1       1.913   3.905  19.010  0.00  0.00    +0.000 A 
ATOM     10  C   UNL     1       0.910   3.157  19.648  0.00  0.00    +0.000 A 
ATOM     11  C   UNL     1       1.004   2.833  20.999  0.00  0.00    +0.000 A 
ATOM     12  C   UNL     1       2.107   3.254  21.729  0.00  0.00    +0.000 A 
ATOM     13  C   UNL     1       3.109   3.996  21.101  0.00  0.00    +0.000 A 
ATOM     14  C   UNL     1       3.033   4.338  19.738  0.00  0.00    +0.000 A 
ENDBRANCH   7  14
ENDBRANCH   6   7
ENDBRANCH   1   6
BRANCH   3  15
ATOM     15  O   UNL     1       6.261   5.483  14.305  0.00  0.00    +0.000 OA
BRANCH  15  16
ATOM     16  C   UNL     1       7.052   4.466  13.666  0.00  0.00    +0.000 C 
BRANCH  16  17
ATOM     17  C   UNL     1       6.345   3.893  12.436  0.00  0.00    +0.000 C 
ATOM     18  C   UNL     1       4.832   3.796  12.536  0.00  0.00    +0.000 C 
ATOM     19  C   UNL     1       4.506   2.880  11.364  0.00  0.00    +0.000 C 
ATOM     20  C   UNL     1       5.712   1.954  11.258  0.00  0.00    +0.000 C 
ATOM     21  N   UNL     1       6.703   2.484  12.195  0.00  0.00    +0.000 NA
ATOM     22  H   UNL     1       7.649   2.396  11.826  0.00  0.00    +0.000 HD
ENDBRANCH  16  17
ENDBRANCH  15  16
ENDBRANCH   3  15
TORSDOF 6
ENDMDL
MODEL 9
REMARK VINA RESULT:      -7.0      5.458      7.902
REMARK  Name = 
REMARK  6 active torsions:
REMARK  status: ('A' for Active; 'I' for Inactive)
REMARK    1  A    between atoms: C_7  and  O_8
REMARK    2  A    between atoms: O_8  and  C_9
REMARK    3  A    between atoms: C_9  and  C_10
REMARK    4  A    between atoms: C_12  and  O_13
REMARK    5  A    between atoms: O_13  and  C_14
REMARK    6  A    between atoms: C_14  and  C_15
REMARK                            x       y       z     vdW  Elec       q    Type
REMARK                         _______ _______ _______ _____ _____    ______ ____
ROOT
ATOM      1  C   UNL     1       7.769   7.801  17.930  0.00  0.00    +0.000 A 
ATOM      2  C   UNL     1       6.831   6.996  17.318  0.00  0.00    +0.000 A 
ATOM      3  C   UNL     1       6.932   5.783  18.014  0.00  0.00    +0.000 A 
ATOM      4  N   UNL     1       7.895   5.810  18.942  0.00  0.00    +0.000 NA
ATOM      5  O   UNL     1       8.417   7.084  18.889  0.00  0.00    +0.000 OA
ENDROOT
BRANCH   1   6
ATOM      6  C   UNL     1       8.172   9.221  17.810  0.00  0.00    +0.000 C 
BRANCH   6   7
ATOM      7  O   UNL     1       8.894   9.543  18.989  0.00  0.00    +0.000 OA
BRANCH   7  14
ATOM      8 CL   UNL     1       8.819  11.443  21.720  0.00  0.00    +0.000 Cl
ATOM      9  C   UNL     1       9.571  11.661  20.177  0.00  0.00    +0.000 A 
ATOM     10  C   UNL     1      10.279  12.867  20.040  0.00  0.00    +0.000 A 
ATOM     11  C   UNL     1      10.931  13.187  18.851  0.00  0.00    +0.000 A 
ATOM     12  C   UNL     1      10.884  12.300  17.785  0.00  0.00    +0.000 A 
ATOM     13  C   UNL     1      10.185  11.099  17.915  0.00  0.00    +0.000 A 
ATOM     14  C   UNL     1       9.515  10.757  19.105  0.00  0.00    +0.000 A 
ENDBRANCH   7  14
ENDBRANCH   6   7
ENDBRANCH   1   6
BRANCH   3  15
ATOM     15  O   UNL     1       6.189   4.662  17.825  0.00  0.00    +0.000 OA
BRANCH  15  16
ATOM     16  C   UNL     1       5.308   4.784  16.695  0.00  0.00    +0.000 C 
BRANCH  16  17
ATOM     17  C   UNL     1       4.065   3.905  16.852  0.00  0.00    +0.000 C 
ATOM     18  C   UNL     1       2.934   4.511  17.667  0.00  0.00    +0.000 C 
ATOM     19  C   UNL     1       2.061   3.293  17.933  0.00  0.00    +0.000 C 
ATOM     20  C   UNL     1       3.046   2.131  18.019  0.00  0.00    +0.000 C 
ATOM     21  N   UNL     1       4.343   2.681  17.622  0.00  0.00    +0.000 NA
ATOM     22  H   UNL     1       4.880   2.009  17.075  0.00  0.00    +0.000 HD
ENDBRANCH  16  17
ENDBRANCH  15  16
ENDBRANCH   3  15
TORSDOF 6
ENDMDL
