MODEL 1
REMARK VINA RESULT:      -5.5      0.000      0.000
REMARK  Name = 
REMARK  5 active torsions:
REMARK  status: ('A' for Active; 'I' for Inactive)
REMARK    1  A    between atoms: C_1  and  C_2
REMARK    2  A    between atoms: C_2  and  C_3
REMARK    3  A    between atoms: C_5  and  C_6
REMARK    4  A    between atoms: C_9  and  C_10
REMARK    5  A    between atoms: C_9  and  C_11
REMARK                            x       y       z     vdW  Elec       q    Type
REMARK                         _______ _______ _______ _____ _____    ______ ____
ROOT
ATOM      1  C   UNL     1       4.323   3.106  19.348  0.00  0.00    +0.000 C 
ATOM      2  C   UNL     1       3.938   3.659  17.963  0.00  0.00    +0.000 C 
ATOM      3  C   UNL     1       2.776   2.824  17.394  0.00  0.00    +0.000 C 
ATOM      4  C   UNL     1       3.478   5.079  18.129  0.00  0.00    +0.000 C 
ATOM      5  C   UNL     1       4.005   6.111  17.461  0.00  0.00    +0.000 C 
ATOM      6  C   UNL     1       5.100   5.965  16.465  0.00  0.00    +0.000 C 
ATOM      7  C   UNL     1       5.727   4.546  16.377  0.00  0.00    +0.000 C 
ATOM      8  C   UNL     1       7.174   4.599  16.910  0.00  0.00    +0.000 C 
ATOM      9  C   UNL     1       5.767   4.133  14.892  0.00  0.00    +0.000 C 
ATOM     10  N   UNL     1       5.044   3.437  17.046  0.00  0.00    +0.000 NA
ATOM     11  H   UNL     1       5.697   2.737  17.389  0.00  0.00    +0.000 HD
ENDROOT
BRANCH   5  12
ATOM     12  C   UNL     1       3.464   7.478  17.685  0.00  0.00    +0.000 C 
ATOM     13  O   UNL     1       2.549   7.703  18.464  0.00  0.00    +0.000 OA
ENDBRANCH   5  12
TORSDOF 1
ENDMDL
MODEL 2
REMARK VINA RESULT:      -5.5      0.147      3.122
REMARK  Name = 
REMARK  5 active torsions:
REMARK  status: ('A' for Active; 'I' for Inactive)
REMARK    1  A    between atoms: C_1  and  C_2
REMARK    2  A    between atoms: C_2  and  C_3
REMARK    3  A    between atoms: C_5  and  C_6
REMARK    4  A    between atoms: C_9  and  C_10
REMARK    5  A    between atoms: C_9  and  C_11
REMARK                            x       y       z     vdW  Elec       q    Type
REMARK                         _______ _______ _______ _____ _____    ______ ____
ROOT
ATOM      1  C   UNL     1       5.569   4.258  14.928  0.00  0.00    +0.000 C 
ATOM      2  C   UNL     1       5.630   4.576  16.433  0.00  0.00    +0.000 C 
ATOM      3  C   UNL     1       7.104   4.632  16.877  0.00  0.00    +0.000 C 
ATOM      4  C   UNL     1       5.005   5.923  16.660  0.00  0.00    +0.000 C 
ATOM      5  C   UNL     1       3.998   6.139  17.513  0.00  0.00    +0.000 C 
ATOM      6  C   UNL     1       3.391   5.066  18.346  0.00  0.00    +0.000 C 
ATOM      7  C   UNL     1       3.884   3.627  18.031  0.00  0.00    +0.000 C 
ATOM      8  C   UNL     1       2.725   2.821  17.408  0.00  0.00    +0.000 C 
ATOM      9  C   UNL     1       4.286   2.957  19.361  0.00  0.00    +0.000 C 
ATOM     10  N   UNL     1       5.058   3.462  17.171  0.00  0.00    +0.000 NA
ATOM     11  H   UNL     1       5.007   2.614  16.613  0.00  0.00    +0.000 HD
ENDROOT
BRANCH   5  12
ATOM     12  C   UNL     1       3.461   7.516  17.676  0.00  0.00    +0.000 C 
ATOM     13  O   UNL     1       2.468   7.759  18.345  0.00  0.00    +0.000 OA
ENDBRANCH   5  12
TORSDOF 1
ENDMDL
MODEL 3
REMARK VINA RESULT:      -5.5      2.449      4.348
REMARK  Name = 
REMARK  5 active torsions:
REMARK  status: ('A' for Active; 'I' for Inactive)
REMARK    1  A    between atoms: C_1  and  C_2
REMARK    2  A    between atoms: C_2  and  C_3
REMARK    3  A    between atoms: C_5  and  C_6
REMARK    4  A    between atoms: C_9  and  C_10
REMARK    5  A    between atoms: C_9  and  C_11
REMARK                            x       y       z     vdW  Elec       q    Type
REMARK                         _______ _______ _______ _____ _____    ______ ____
ROOT
ATOM      1  C   UNL     1       3.608   4.025  17.223  0.00  0.00    +0.000 C 
ATOM      2  C   UNL     1       3.750   4.342  18.723  0.00  0.00    +0.000 C 
ATOM      3  C   UNL     1       5.228   4.195  19.130  0.00  0.00    +0.000 C 
ATOM      4  C   UNL     1       3.324   5.764  18.951  0.00  0.00    +0.000 C 
ATOM      5  C   UNL     1       2.378   6.123  19.826  0.00  0.00    +0.000 C 
ATOM      6  C   UNL     1       1.650   5.151  20.684  0.00  0.00    +0.000 C 
ATOM      7  C   UNL     1       1.929   3.655  20.372  0.00  0.00    +0.000 C 
ATOM      8  C   UNL     1       0.655   3.014  19.784  0.00  0.00    +0.000 C 
ATOM      9  C   UNL     1       2.268   2.945  21.698  0.00  0.00    +0.000 C 
ATOM     10  N   UNL     1       3.047   3.323  19.486  0.00  0.00    +0.000 NA
ATOM     11  H   UNL     1       2.866   2.486  18.938  0.00  0.00    +0.000 HD
ENDROOT
BRANCH   5  12
ATOM     12  C   UNL     1       2.043   7.563  19.988  0.00  0.00    +0.000 C 
ATOM     13  O   UNL     1       1.422   7.989  20.951  0.00  0.00    +0.000 OA
ENDBRANCH   5  12
TORSDOF 1
ENDMDL
MODEL 4
REMARK VINA RESULT:      -5.4      2.419      2.958
REMARK  Name = 
REMARK  5 active torsions:
REMARK  status: ('A' for Active; 'I' for Inactive)
REMARK    1  A    between atoms: C_1  and  C_2
REMARK    2  A    between atoms: C_2  and  C_3
REMARK    3  A    between atoms: C_5  and  C_6
REMARK    4  A    between atoms: C_9  and  C_10
REMARK    5  A    between atoms: C_9  and  C_11
REMARK                            x       y       z     vdW  Elec       q    Type
REMARK                         _______ _______ _______ _____ _____    ______ ____
ROOT
ATOM      1  C   UNL     1       2.370   2.958  21.547  0.00  0.00    +0.000 C 
ATOM      2  C   UNL     1       2.023   3.636  20.209  0.00  0.00    +0.000 C 
ATOM      3  C   UNL     1       0.784   2.950  19.604  0.00  0.00    +0.000 C 
ATOM      4  C   UNL     1       1.695   5.077  20.477  0.00  0.00    +0.000 C 
ATOM      5  C   UNL     1       2.307   6.101  19.872  0.00  0.00    +0.000 C 
ATOM      6  C   UNL     1       3.374   5.926  18.851  0.00  0.00    +0.000 C 
ATOM      7  C   UNL     1       3.869   4.466  18.658  0.00  0.00    +0.000 C 
ATOM      8  C   UNL     1       5.320   4.352  19.169  0.00  0.00    +0.000 C 
ATOM      9  C   UNL     1       3.856   4.153  17.148  0.00  0.00    +0.000 C 
ATOM     10  N   UNL     1       3.095   3.380  19.261  0.00  0.00    +0.000 NA
ATOM     11  H   UNL     1       3.685   2.602  19.546  0.00  0.00    +0.000 HD
ENDROOT
BRANCH   5  12
ATOM     12  C   UNL     1       1.895   7.493  20.197  0.00  0.00    +0.000 C 
ATOM     13  O   UNL     1       1.265   7.773  21.207  0.00  0.00    +0.000 OA
ENDBRANCH   5  12
TORSDOF 1
ENDMDL
MODEL 5
REMARK VINA RESULT:      -5.4      2.244      3.993
REMARK  Name = 
REMARK  5 active torsions:
REMARK  status: ('A' for Active; 'I' for Inactive)
REMARK    1  A    between atoms: C_1  and  C_2
REMARK    2  A    between atoms: C_2  and  C_3
REMARK    3  A    between atoms: C_5  and  C_6
REMARK    4  A    between atoms: C_9  and  C_10
REMARK    5  A    between atoms: C_9  and  C_11
REMARK                            x       y       z     vdW  Elec       q    Type
REMARK                         _______ _______ _______ _____ _____    ______ ____
ROOT
ATOM      1  C   UNL     1       5.239   6.618  15.415  0.00  0.00    +0.000 C 
ATOM      2  C   UNL     1       5.632   5.327  16.157  0.00  0.00    +0.000 C 
ATOM      3  C   UNL     1       6.179   4.309  15.139  0.00  0.00    +0.000 C 
ATOM      4  C   UNL     1       6.716   5.657  17.143  0.00  0.00    +0.000 C 
ATOM      5  C   UNL     1       6.638   5.383  18.449  0.00  0.00    +0.000 C 
ATOM      6  C   UNL     1       5.468   4.706  19.072  0.00  0.00    +0.000 C 
ATOM      7  C   UNL     1       4.250   4.494  18.132  0.00  0.00    +0.000 C 
ATOM      8  C   UNL     1       3.086   5.390  18.603  0.00  0.00    +0.000 C 
ATOM      9  C   UNL     1       3.810   3.020  18.244  0.00  0.00    +0.000 C 
ATOM     10  N   UNL     1       4.430   4.711  16.695  0.00  0.00    +0.000 NA
ATOM     11  H   UNL     1       3.584   5.062  16.252  0.00  0.00    +0.000 HD
ENDROOT
BRANCH   5  12
ATOM     12  C   UNL     1       7.776   5.735  19.339  0.00  0.00    +0.000 C 
ATOM     13  O   UNL     1       7.857   5.338  20.492  0.00  0.00    +0.000 OA
ENDBRANCH   5  12
TORSDOF 1
ENDMDL
MODEL 6
REMARK VINA RESULT:      -5.4      2.299      2.988
REMARK  Name = 
REMARK  5 active torsions:
REMARK  status: ('A' for Active; 'I' for Inactive)
REMARK    1  A    between atoms: C_1  and  C_2
REMARK    2  A    between atoms: C_2  and  C_3
REMARK    3  A    between atoms: C_5  and  C_6
REMARK    4  A    between atoms: C_9  and  C_10
REMARK    5  A    between atoms: C_9  and  C_11
REMARK                            x       y       z     vdW  Elec       q    Type
REMARK                         _______ _______ _______ _____ _____    ______ ____
ROOT
ATOM      1  C   UNL     1       4.003   3.053  18.422  0.00  0.00    +0.000 C 
ATOM      2  C   UNL     1       4.358   4.542  18.253  0.00  0.00    +0.000 C 
ATOM      3  C   UNL     1       3.205   5.401  18.807  0.00  0.00    +0.000 C 
ATOM      4  C   UNL     1       5.600   4.828  19.048  0.00  0.00    +0.000 C 
ATOM      5  C   UNL     1       6.704   5.373  18.528  0.00  0.00    +0.000 C 
ATOM      6  C   UNL     1       6.821   5.771  17.099  0.00  0.00    +0.000 C 
ATOM      7  C   UNL     1       5.632   5.346  16.195  0.00  0.00    +0.000 C 
ATOM      8  C   UNL     1       6.112   4.268  15.201  0.00  0.00    +0.000 C 
ATOM      9  C   UNL     1       5.174   6.582  15.394  0.00  0.00    +0.000 C 
ATOM     10  N   UNL     1       4.410   4.853  16.834  0.00  0.00    +0.000 NA
ATOM     11  H   UNL     1       3.937   4.154  16.267  0.00  0.00    +0.000 HD
ENDROOT
BRANCH   5  12
ATOM     12  C   UNL     1       7.875   5.632  19.407  0.00  0.00    +0.000 C 
ATOM     13  O   UNL     1       7.896   5.309  20.586  0.00  0.00    +0.000 OA
ENDBRANCH   5  12
TORSDOF 1
ENDMDL
MODEL 7
REMARK VINA RESULT:      -5.3      1.159      3.326
REMARK  Name = 
REMARK  5 active torsions:
REMARK  status: ('A' for Active; 'I' for Inactive)
REMARK    1  A    between atoms: C_1  and  C_2
REMARK    2  A    between atoms: C_2  and  C_3
REMARK    3  A    between atoms: C_5  and  C_6
REMARK    4  A    between atoms: C_9  and  C_10
REMARK    5  A    between atoms: C_9  and  C_11
REMARK                            x       y       z     vdW  Elec       q    Type
REMARK                         _______ _______ _______ _____ _____    ______ ____
ROOT
ATOM      1  C   UNL     1       5.440   5.704  15.458  0.00  0.00    +0.000 C 
ATOM      2  C   UNL     1       5.219   5.805  16.979  0.00  0.00    +0.000 C 
ATOM      3  C   UNL     1       6.567   6.097  17.665  0.00  0.00    +0.000 C 
ATOM      4  C   UNL     1       4.281   6.947  17.248  0.00  0.00    +0.000 C 
ATOM      5  C   UNL     1       3.143   6.824  17.940  0.00  0.00    +0.000 C 
ATOM      6  C   UNL     1       2.685   5.539  18.534  0.00  0.00    +0.000 C 
ATOM      7  C   UNL     1       3.528   4.294  18.146  0.00  0.00    +0.000 C 
ATOM      8  C   UNL     1       2.679   3.367  17.251  0.00  0.00    +0.000 C 
ATOM      9  C   UNL     1       3.884   3.534  19.440  0.00  0.00    +0.000 C 
ATOM     10  N   UNL     1       4.816   4.502  17.481  0.00  0.00    +0.000 NA
ATOM     11  H   UNL     1       5.036   3.752  16.830  0.00  0.00    +0.000 HD
ENDROOT
BRANCH   5  12
ATOM     12  C   UNL     1       2.293   8.022  18.166  0.00  0.00    +0.000 C 
ATOM     13  O   UNL     1       2.277   8.972  17.397  0.00  0.00    +0.000 OA
ENDBRANCH   5  12
TORSDOF 1
ENDMDL
MODEL 8
REMARK VINA RESULT:      -5.3      2.554      3.676
REMARK  Name = 
REMARK  5 active torsions:
REMARK  status: ('A' for Active; 'I' for Inactive)
REMARK    1  A    between atoms: C_1  and  C_2
REMARK    2  A    between atoms: C_2  and  C_3
REMARK    3  A    between atoms: C_5  and  C_6
REMARK    4  A    between atoms: C_9  and  C_10
REMARK    5  A    between atoms: C_9  and  C_11
REMARK                            x       y       z     vdW  Elec       q    Type
REMARK                         _______ _______ _______ _____ _____    ______ ____
ROOT
ATOM      1  C   UNL     1       3.248   5.740  17.724  0.00  0.00    +0.000 C 
ATOM      2  C   UNL     1       4.512   4.866  17.824  0.00  0.00    +0.000 C 
ATOM      3  C   UNL     1       4.245   3.705  18.800  0.00  0.00    +0.000 C 
ATOM      4  C   UNL     1       4.806   4.299  16.465  0.00  0.00    +0.000 C 
ATOM      5  C   UNL     1       5.978   4.444  15.838  0.00  0.00    +0.000 C 
ATOM      6  C   UNL     1       7.131   5.177  16.427  0.00  0.00    +0.000 C 
ATOM      7  C   UNL     1       6.830   5.926  17.754  0.00  0.00    +0.000 C 
ATOM      8  C   UNL     1       6.900   7.447  17.503  0.00  0.00    +0.000 C 
ATOM      9  C   UNL     1       7.922   5.548  18.775  0.00  0.00    +0.000 C 
ATOM     10  N   UNL     1       5.571   5.644  18.446  0.00  0.00    +0.000 NA
ATOM     11  H   UNL     1       5.214   6.458  18.939  0.00  0.00    +0.000 HD
ENDROOT
BRANCH   5  12
ATOM     12  C   UNL     1       6.173   3.826  14.500  0.00  0.00    +0.000 C 
ATOM     13  O   UNL     1       6.749   4.401  13.588  0.00  0.00    +0.000 OA
ENDBRANCH   5  12
TORSDOF 1
ENDMDL
MODEL 9
REMARK VINA RESULT:      -5.3      2.541      4.305
REMARK  Name = 
REMARK  5 active torsions:
REMARK  status: ('A' for Active; 'I' for Inactive)
REMARK    1  A    between atoms: C_1  and  C_2
REMARK    2  A    between atoms: C_2  and  C_3
REMARK    3  A    between atoms: C_5  and  C_6
REMARK    4  A    between atoms: C_9  and  C_10
REMARK    5  A    between atoms: C_9  and  C_11
REMARK                            x       y       z     vdW  Elec       q    Type
REMARK                         _______ _______ _______ _____ _____    ______ ____
ROOT
ATOM      1  C   UNL     1       7.880   5.499  18.690  0.00  0.00    +0.000 C 
ATOM      2  C   UNL     1       6.742   5.927  17.744  0.00  0.00    +0.000 C 
ATOM      3  C   UNL     1       6.832   7.446  17.504  0.00  0.00    +0.000 C 
ATOM      4  C   UNL     1       6.924   5.218  16.432  0.00  0.00    +0.000 C 
ATOM      5  C   UNL     1       5.979   4.464  15.861  0.00  0.00    +0.000 C 
ATOM      6  C   UNL     1       4.633   4.252  16.458  0.00  0.00    +0.000 C 
ATOM      7  C   UNL     1       4.449   4.822  17.891  0.00  0.00    +0.000 C 
ATOM      8  C   UNL     1       4.295   3.652  18.884  0.00  0.00    +0.000 C 
ATOM      9  C   UNL     1       3.151   5.655  17.911  0.00  0.00    +0.000 C 
ATOM     10  N   UNL     1       5.471   5.727  18.420  0.00  0.00    +0.000 NA
ATOM     11  H   UNL     1       5.578   5.637  19.427  0.00  0.00    +0.000 HD
ENDROOT
BRANCH   5  12
ATOM     12  C   UNL     1       6.253   3.819  14.549  0.00  0.00    +0.000 C 
ATOM     13  O   UNL     1       6.753   4.423  13.611  0.00  0.00    +0.000 OA
ENDBRANCH   5  12
TORSDOF 1
ENDMDL
