MODEL 1
REMARK VINA RESULT:      -7.3      0.000      0.000
REMARK  Name = 
REMARK  9 active torsions:
REMARK  status: ('A' for Active; 'I' for Inactive)
REMARK    1  A    between atoms: C_1  and  O_2
REMARK    2  A    between atoms: O_2  and  C_3
REMARK    3  A    between atoms: C_6  and  C_7
REMARK    4  A    between atoms: C_9  and  C_10
REMARK    5  A    between atoms: N_12  and  C_13
REMARK    6  A    between atoms: C_18  and  S_19
REMARK    7  A    between atoms: S_19  and  C_20
REMARK    8  A    between atoms: C_24  and  O_25
REMARK    9  A    between atoms: O_25  and  C_26
REMARK                            x       y       z     vdW  Elec       q    Type
REMARK                         _______ _______ _______ _____ _____    ______ ____
ROOT
ATOM      1  C   UNL     1       8.648   9.149  18.417  0.00  0.00    +0.000 A 
ATOM      2  C   UNL     1       8.521   7.890  18.947  0.00  0.00    +0.000 A 
ATOM      3  C   UNL     1       7.688   7.199  18.033  0.00  0.00    +0.000 A 
ATOM      4  N   UNL     1       7.411   7.959  16.962  0.00  0.00    +0.000 NA
ATOM      5  O   UNL     1       7.995   9.186  17.222  0.00  0.00    +0.000 OA
ENDROOT
BRANCH   1   9
ATOM      6  C   UNL     1      10.644  12.679  19.749  0.00  0.00    +0.000 A 
ATOM      7  C   UNL     1      10.205  11.720  20.672  0.00  0.00    +0.000 A 
ATOM      8  C   UNL     1       9.514  10.585  20.250  0.00  0.00    +0.000 A 
ATOM      9  C   UNL     1       9.210  10.403  18.900  0.00  0.00    +0.000 A 
ATOM     10  C   UNL     1       9.533  11.432  18.004  0.00  0.00    +0.000 A 
ATOM     11  C   UNL     1      10.246  12.572  18.410  0.00  0.00    +0.000 A 
BRANCH   6  13
ATOM     12  C   UNL     1      10.733  14.848  20.668  0.00  0.00    +0.000 C 
ATOM     13  O   UNL     1      11.440  13.716  20.155  0.00  0.00    +0.000 OA
ENDBRANCH   6  13
BRANCH  11  14
ATOM     14  O   UNL     1      10.485  13.426  17.366  0.00  0.00    +0.000 OA
ATOM     15  C   UNL     1      11.672  13.269  16.606  0.00  0.00    +0.000 C 
ENDBRANCH  11  14
ENDBRANCH   1   9
BRANCH   3  16
ATOM     16  C   UNL     1       7.158   5.854  18.201  0.00  0.00    +0.000 C 
ATOM     17  O   UNL     1       7.911   4.901  18.381  0.00  0.00    +0.000 OA
ATOM     18  N   UNL     1       5.778   5.763  18.094  0.00  0.00    +0.000 N 
ATOM     19  H   UNL     1       5.300   6.557  17.688  0.00  0.00    +0.000 HD
BRANCH  18  20
ATOM     20  C   UNL     1       5.085   4.549  18.235  0.00  0.00    +0.000 A 
ATOM     21  C   UNL     1       4.772   4.114  19.536  0.00  0.00    +0.000 A 
ATOM     22  C   UNL     1       4.044   2.948  19.747  0.00  0.00    +0.000 A 
ATOM     23  C   UNL     1       3.643   2.189  18.656  0.00  0.00    +0.000 A 
ATOM     24  C   UNL     1       3.938   2.621  17.358  0.00  0.00    +0.000 A 
ATOM     25  C   UNL     1       4.640   3.818  17.122  0.00  0.00    +0.000 A 
BRANCH  25  26
ATOM     26  S   UNL     1       4.852   4.248  15.389  0.00  0.00    +0.000 S 
ATOM     27  C   UNL     1       6.640   4.132  15.098  0.00  0.00    +0.000 C 
ENDBRANCH  25  26
ENDBRANCH  18  20
ENDBRANCH   3  16
TORSDOF 6
ENDMDL
MODEL 2
REMARK VINA RESULT:      -7.2      5.842      7.782
REMARK  Name = 
REMARK  9 active torsions:
REMARK  status: ('A' for Active; 'I' for Inactive)
REMARK    1  A    between atoms: C_1  and  O_2
REMARK    2  A    between atoms: O_2  and  C_3
REMARK    3  A    between atoms: C_6  and  C_7
REMARK    4  A    between atoms: C_9  and  C_10
REMARK    5  A    between atoms: N_12  and  C_13
REMARK    6  A    between atoms: C_18  and  S_19
REMARK    7  A    between atoms: S_19  and  C_20
REMARK    8  A    between atoms: C_24  and  O_25
REMARK    9  A    between atoms: O_25  and  C_26
REMARK                            x       y       z     vdW  Elec       q    Type
REMARK                         _______ _______ _______ _____ _____    ______ ____
ROOT
ATOM      1  C   UNL     1       1.646   7.406  20.294  0.00  0.00    +0.000 A 
ATOM      2  C   UNL     1       2.479   7.206  19.222  0.00  0.00    +0.000 A 
ATOM      3  C   UNL     1       2.954   5.881  19.380  0.00  0.00    +0.000 A 
ATOM      4  N   UNL     1       2.366   5.278  20.426  0.00  0.00    +0.000 NA
ATOM      5  O   UNL     1       1.568   6.248  21.007  0.00  0.00    +0.000 OA
ENDROOT
BRANCH   1   9
ATOM      6  C   UNL     1      -0.020  10.910  22.074  0.00  0.00    +0.000 A 
ATOM      7  C   UNL     1      -0.195   9.656  22.675  0.00  0.00    +0.000 A 
ATOM      8  C   UNL     1       0.308   8.500  22.079  0.00  0.00    +0.000 A 
ATOM      9  C   UNL     1       0.962   8.567  20.847  0.00  0.00    +0.000 A 
ATOM     10  C   UNL     1       1.011   9.804  20.190  0.00  0.00    +0.000 A 
ATOM     11  C   UNL     1       0.526  10.981  20.786  0.00  0.00    +0.000 A 
BRANCH   6  13
ATOM     12  C   UNL     1      -1.796  12.158  22.994  0.00  0.00    +0.000 C 
ATOM     13  O   UNL     1      -0.394  12.051  22.732  0.00  0.00    +0.000 OA
ENDBRANCH   6  13
BRANCH  11  14
ATOM     14  O   UNL     1       0.711  12.075  19.984  0.00  0.00    +0.000 OA
ATOM     15  C   UNL     1      -0.370  12.538  19.190  0.00  0.00    +0.000 C 
ENDBRANCH  11  14
ENDBRANCH   1   9
BRANCH   3  16
ATOM     16  C   UNL     1       3.961   5.226  18.560  0.00  0.00    +0.000 C 
ATOM     17  O   UNL     1       4.489   4.180  18.931  0.00  0.00    +0.000 OA
ATOM     18  N   UNL     1       4.278   5.901  17.390  0.00  0.00    +0.000 N 
ATOM     19  H   UNL     1       3.977   6.865  17.326  0.00  0.00    +0.000 HD
BRANCH  18  20
ATOM     20  C   UNL     1       5.222   5.419  16.468  0.00  0.00    +0.000 A 
ATOM     21  C   UNL     1       4.763   4.605  15.416  0.00  0.00    +0.000 A 
ATOM     22  C   UNL     1       5.633   4.135  14.440  0.00  0.00    +0.000 A 
ATOM     23  C   UNL     1       6.982   4.453  14.520  0.00  0.00    +0.000 A 
ATOM     24  C   UNL     1       7.446   5.273  15.554  0.00  0.00    +0.000 A 
ATOM     25  C   UNL     1       6.575   5.791  16.531  0.00  0.00    +0.000 A 
BRANCH  25  26
ATOM     26  S   UNL     1       7.340   6.889  17.730  0.00  0.00    +0.000 S 
ATOM     27  C   UNL     1       7.708   5.832  19.159  0.00  0.00    +0.000 C 
ENDBRANCH  25  26
ENDBRANCH  18  20
ENDBRANCH   3  16
TORSDOF 6
ENDMDL
MODEL 3
REMARK VINA RESULT:      -7.1      6.802     10.120
REMARK  Name = 
REMARK  9 active torsions:
REMARK  status: ('A' for Active; 'I' for Inactive)
REMARK    1  A    between atoms: C_1  and  O_2
REMARK    2  A    between atoms: O_2  and  C_3
REMARK    3  A    between atoms: C_6  and  C_7
REMARK    4  A    between atoms: C_9  and  C_10
REMARK    5  A    between atoms: N_12  and  C_13
REMARK    6  A    between atoms: C_18  and  S_19
REMARK    7  A    between atoms: S_19  and  C_20
REMARK    8  A    between atoms: C_24  and  O_25
REMARK    9  A    between atoms: O_25  and  C_26
REMARK                            x       y       z     vdW  Elec       q    Type
REMARK                         _______ _______ _______ _____ _____    ______ ____
ROOT
ATOM      1  C   UNL     1       2.698   7.144  18.704  0.00  0.00    +0.000 A 
ATOM      2  C   UNL     1       2.077   8.359  18.562  0.00  0.00    +0.000 A 
ATOM      3  C   UNL     1       1.399   8.561  19.790  0.00  0.00    +0.000 A 
ATOM      4  N   UNL     1       1.675   7.577  20.661  0.00  0.00    +0.000 NA
ATOM      5  O   UNL     1       2.469   6.683  19.965  0.00  0.00    +0.000 OA
ENDROOT
BRANCH   1   9
ATOM      6  C   UNL     1       5.051   4.490  16.329  0.00  0.00    +0.000 A 
ATOM      7  C   UNL     1       5.160   5.878  16.163  0.00  0.00    +0.000 A 
ATOM      8  C   UNL     1       4.364   6.752  16.904  0.00  0.00    +0.000 A 
ATOM      9  C   UNL     1       3.413   6.256  17.797  0.00  0.00    +0.000 A 
ATOM     10  C   UNL     1       3.217   4.870  17.854  0.00  0.00    +0.000 A 
ATOM     11  C   UNL     1       4.022   3.976  17.129  0.00  0.00    +0.000 A 
BRANCH   6  13
ATOM     12  C   UNL     1       6.514   4.174  14.508  0.00  0.00    +0.000 C 
ATOM     13  O   UNL     1       5.929   3.648  15.702  0.00  0.00    +0.000 OA
ENDBRANCH   6  13
BRANCH  11  14
ATOM     14  O   UNL     1       3.681   2.671  17.364  0.00  0.00    +0.000 OA
ATOM     15  C   UNL     1       2.403   2.381  17.908  0.00  0.00    +0.000 C 
ENDBRANCH  11  14
ENDBRANCH   1   9
BRANCH   3  16
ATOM     16  C   UNL     1       0.495   9.656  20.103  0.00  0.00    +0.000 C 
ATOM     17  O   UNL     1      -0.342  10.032  19.286  0.00  0.00    +0.000 OA
ATOM     18  N   UNL     1       0.700  10.234  21.347  0.00  0.00    +0.000 N 
ATOM     19  H   UNL     1       1.574  10.017  21.810  0.00  0.00    +0.000 HD
BRANCH  18  20
ATOM     20  C   UNL     1      -0.080  11.299  21.828  0.00  0.00    +0.000 A 
ATOM     21  C   UNL     1      -1.164  10.996  22.672  0.00  0.00    +0.000 A 
ATOM     22  C   UNL     1      -1.948  12.003  23.224  0.00  0.00    +0.000 A 
ATOM     23  C   UNL     1      -1.670  13.328  22.916  0.00  0.00    +0.000 A 
ATOM     24  C   UNL     1      -0.586  13.639  22.088  0.00  0.00    +0.000 A 
ATOM     25  C   UNL     1       0.243  12.637  21.550  0.00  0.00    +0.000 A 
BRANCH  25  26
ATOM     26  S   UNL     1       1.632  13.236  20.579  0.00  0.00    +0.000 S 
ATOM     27  C   UNL     1       2.106  14.803  21.363  0.00  0.00    +0.000 C 
ENDBRANCH  25  26
ENDBRANCH  18  20
ENDBRANCH   3  16
TORSDOF 6
ENDMDL
MODEL 4
REMARK VINA RESULT:      -7.0      6.554      8.279
REMARK  Name = 
REMARK  9 active torsions:
REMARK  status: ('A' for Active; 'I' for Inactive)
REMARK    1  A    between atoms: C_1  and  O_2
REMARK    2  A    between atoms: O_2  and  C_3
REMARK    3  A    between atoms: C_6  and  C_7
REMARK    4  A    between atoms: C_9  and  C_10
REMARK    5  A    between atoms: N_12  and  C_13
REMARK    6  A    between atoms: C_18  and  S_19
REMARK    7  A    between atoms: S_19  and  C_20
REMARK    8  A    between atoms: C_24  and  O_25
REMARK    9  A    between atoms: O_25  and  C_26
REMARK                            x       y       z     vdW  Elec       q    Type
REMARK                         _______ _______ _______ _____ _____    ______ ____
ROOT
ATOM      1  C   UNL     1       1.443   8.916  19.631  0.00  0.00    +0.000 A 
ATOM      2  C   UNL     1       2.195   7.768  19.638  0.00  0.00    +0.000 A 
ATOM      3  C   UNL     1       2.642   7.626  18.301  0.00  0.00    +0.000 A 
ATOM      4  N   UNL     1       2.270   8.676  17.552  0.00  0.00    +0.000 NA
ATOM      5  O   UNL     1       1.499   9.466  18.386  0.00  0.00    +0.000 OA
ENDROOT
BRANCH   1   9
ATOM      6  C   UNL     1      -0.838  11.033  22.552  0.00  0.00    +0.000 A 
ATOM      7  C   UNL     1      -0.270   9.790  22.860  0.00  0.00    +0.000 A 
ATOM      8  C   UNL     1       0.441   9.070  21.899  0.00  0.00    +0.000 A 
ATOM      9  C   UNL     1       0.564   9.560  20.597  0.00  0.00    +0.000 A 
ATOM     10  C   UNL     1      -0.124  10.735  20.264  0.00  0.00    +0.000 A 
ATOM     11  C   UNL     1      -0.827  11.480  21.225  0.00  0.00    +0.000 A 
BRANCH   6  13
ATOM     12  C   UNL     1      -2.827  11.963  23.412  0.00  0.00    +0.000 C 
ATOM     13  O   UNL     1      -1.413  11.793  23.535  0.00  0.00    +0.000 OA
ENDBRANCH   6  13
BRANCH  11  14
ATOM     14  O   UNL     1      -1.388  12.609  20.688  0.00  0.00    +0.000 OA
ATOM     15  C   UNL     1      -2.339  12.476  19.644  0.00  0.00    +0.000 C 
ENDBRANCH  11  14
ENDBRANCH   1   9
BRANCH   3  16
ATOM     16  C   UNL     1       3.386   6.499  17.759  0.00  0.00    +0.000 C 
ATOM     17  O   UNL     1       3.067   5.345  18.036  0.00  0.00    +0.000 OA
ATOM     18  N   UNL     1       4.470   6.851  16.969  0.00  0.00    +0.000 N 
ATOM     19  H   UNL     1       4.784   7.812  17.031  0.00  0.00    +0.000 HD
BRANCH  18  20
ATOM     20  C   UNL     1       5.302   5.901  16.353  0.00  0.00    +0.000 A 
ATOM     21  C   UNL     1       4.860   5.317  15.152  0.00  0.00    +0.000 A 
ATOM     22  C   UNL     1       5.654   4.406  14.462  0.00  0.00    +0.000 A 
ATOM     23  C   UNL     1       6.890   4.050  14.983  0.00  0.00    +0.000 A 
ATOM     24  C   UNL     1       7.343   4.636  16.170  0.00  0.00    +0.000 A 
ATOM     25  C   UNL     1       6.572   5.589  16.862  0.00  0.00    +0.000 A 
BRANCH  25  26
ATOM     26  S   UNL     1       7.356   6.289  18.321  0.00  0.00    +0.000 S 
ATOM     27  C   UNL     1       7.865   7.957  17.818  0.00  0.00    +0.000 C 
ENDBRANCH  25  26
ENDBRANCH  18  20
ENDBRANCH   3  16
TORSDOF 6
ENDMDL
MODEL 5
REMARK VINA RESULT:      -7.0      6.950      9.268
REMARK  Name = 
REMARK  9 active torsions:
REMARK  status: ('A' for Active; 'I' for Inactive)
REMARK    1  A    between atoms: C_1  and  O_2
REMARK    2  A    between atoms: O_2  and  C_3
REMARK    3  A    between atoms: C_6  and  C_7
REMARK    4  A    between atoms: C_9  and  C_10
REMARK    5  A    between atoms: N_12  and  C_13
REMARK    6  A    between atoms: C_18  and  S_19
REMARK    7  A    between atoms: S_19  and  C_20
REMARK    8  A    between atoms: C_24  and  O_25
REMARK    9  A    between atoms: O_25  and  C_26
REMARK                            x       y       z     vdW  Elec       q    Type
REMARK                         _______ _______ _______ _____ _____    ______ ____
ROOT
ATOM      1  C   UNL     1       2.995   7.501  17.995  0.00  0.00    +0.000 A 
ATOM      2  C   UNL     1       2.222   7.620  19.122  0.00  0.00    +0.000 A 
ATOM      3  C   UNL     1       1.559   8.863  18.973  0.00  0.00    +0.000 A 
ATOM      4  N   UNL     1       1.833   9.417  17.781  0.00  0.00    +0.000 NA
ATOM      5  O   UNL     1       2.752   8.571  17.186  0.00  0.00    +0.000 OA
ENDROOT
BRANCH   1   9
ATOM      6  C   UNL     1       5.990   4.917  16.391  0.00  0.00    +0.000 A 
ATOM      7  C   UNL     1       4.714   4.423  16.695  0.00  0.00    +0.000 A 
ATOM      8  C   UNL     1       3.742   5.249  17.260  0.00  0.00    +0.000 A 
ATOM      9  C   UNL     1       4.038   6.578  17.571  0.00  0.00    +0.000 A 
ATOM     10  C   UNL     1       5.355   7.023  17.390  0.00  0.00    +0.000 A 
ATOM     11  C   UNL     1       6.339   6.209  16.805  0.00  0.00    +0.000 A 
BRANCH   6  13
ATOM     12  C   UNL     1       6.642   4.028  14.307  0.00  0.00    +0.000 C 
ATOM     13  O   UNL     1       6.888   4.140  15.712  0.00  0.00    +0.000 OA
ENDBRANCH   6  13
BRANCH  11  14
ATOM     14  O   UNL     1       7.539   6.858  16.691  0.00  0.00    +0.000 OA
ATOM     15  C   UNL     1       7.801   7.975  17.525  0.00  0.00    +0.000 C 
ENDBRANCH  11  14
ENDBRANCH   1   9
BRANCH   3  16
ATOM     16  C   UNL     1       0.706   9.506  19.960  0.00  0.00    +0.000 C 
ATOM     17  O   UNL     1       0.453   8.952  21.027  0.00  0.00    +0.000 OA
ATOM     18  N   UNL     1       0.197  10.735  19.567  0.00  0.00    +0.000 N 
ATOM     19  H   UNL     1       0.259  10.959  18.582  0.00  0.00    +0.000 HD
BRANCH  18  20
ATOM     20  C   UNL     1      -0.640  11.509  20.389  0.00  0.00    +0.000 A 
ATOM     21  C   UNL     1      -0.153  11.894  21.652  0.00  0.00    +0.000 A 
ATOM     22  C   UNL     1      -0.907  12.701  22.497  0.00  0.00    +0.000 A 
ATOM     23  C   UNL     1      -2.171  13.111  22.097  0.00  0.00    +0.000 A 
ATOM     24  C   UNL     1      -2.658  12.744  20.838  0.00  0.00    +0.000 A 
ATOM     25  C   UNL     1      -1.896  11.960  19.952  0.00  0.00    +0.000 A 
BRANCH  25  26
ATOM     26  S   UNL     1      -2.655  11.661  18.350  0.00  0.00    +0.000 S 
ATOM     27  C   UNL     1      -4.442  11.741  18.662  0.00  0.00    +0.000 C 
ENDBRANCH  25  26
ENDBRANCH  18  20
ENDBRANCH   3  16
TORSDOF 6
ENDMDL
MODEL 6
REMARK VINA RESULT:      -6.9      6.876      8.347
REMARK  Name = 
REMARK  9 active torsions:
REMARK  status: ('A' for Active; 'I' for Inactive)
REMARK    1  A    between atoms: C_1  and  O_2
REMARK    2  A    between atoms: O_2  and  C_3
REMARK    3  A    between atoms: C_6  and  C_7
REMARK    4  A    between atoms: C_9  and  C_10
REMARK    5  A    between atoms: N_12  and  C_13
REMARK    6  A    between atoms: C_18  and  S_19
REMARK    7  A    between atoms: S_19  and  C_20
REMARK    8  A    between atoms: C_24  and  O_25
REMARK    9  A    between atoms: O_25  and  C_26
REMARK                            x       y       z     vdW  Elec       q    Type
REMARK                         _______ _______ _______ _____ _____    ______ ____
ROOT
ATOM      1  C   UNL     1       1.121   9.365  19.662  0.00  0.00    +0.000 A 
ATOM      2  C   UNL     1       1.751   8.146  19.655  0.00  0.00    +0.000 A 
ATOM      3  C   UNL     1       2.290   8.029  18.350  0.00  0.00    +0.000 A 
ATOM      4  N   UNL     1       2.088   9.151  17.641  0.00  0.00    +0.000 NA
ATOM      5  O   UNL     1       1.334   9.973  18.461  0.00  0.00    +0.000 OA
ENDROOT
BRANCH   1   9
ATOM      6  C   UNL     1      -1.175  11.570  22.506  0.00  0.00    +0.000 A 
ATOM      7  C   UNL     1      -0.694  10.291  22.819  0.00  0.00    +0.000 A 
ATOM      8  C   UNL     1       0.019   9.545  21.881  0.00  0.00    +0.000 A 
ATOM      9  C   UNL     1       0.234  10.045  20.595  0.00  0.00    +0.000 A 
ATOM     10  C   UNL     1      -0.368  11.263  20.250  0.00  0.00    +0.000 A 
ATOM     11  C   UNL     1      -1.073  12.035  21.189  0.00  0.00    +0.000 A 
BRANCH   6  13
ATOM     12  C   UNL     1      -3.174  12.235  23.563  0.00  0.00    +0.000 C 
ATOM     13  O   UNL     1      -1.752  12.348  23.474  0.00  0.00    +0.000 OA
ENDBRANCH   6  13
BRANCH  11  14
ATOM     14  O   UNL     1      -1.541  13.202  20.645  0.00  0.00    +0.000 OA
ATOM     15  C   UNL     1      -0.831  13.793  19.569  0.00  0.00    +0.000 C 
ENDBRANCH  11  14
ENDBRANCH   1   9
BRANCH   3  16
ATOM     16  C   UNL     1       2.958   6.861  17.798  0.00  0.00    +0.000 C 
ATOM     17  O   UNL     1       2.422   5.756  17.832  0.00  0.00    +0.000 OA
ATOM     18  N   UNL     1       4.226   7.109  17.293  0.00  0.00    +0.000 N 
ATOM     19  H   UNL     1       4.657   7.986  17.557  0.00  0.00    +0.000 HD
BRANCH  18  20
ATOM     20  C   UNL     1       5.022   6.107  16.713  0.00  0.00    +0.000 A 
ATOM     21  C   UNL     1       5.218   6.143  15.320  0.00  0.00    +0.000 A 
ATOM     22  C   UNL     1       6.033   5.212  14.686  0.00  0.00    +0.000 A 
ATOM     23  C   UNL     1       6.643   4.217  15.437  0.00  0.00    +0.000 A 
ATOM     24  C   UNL     1       6.465   4.182  16.825  0.00  0.00    +0.000 A 
ATOM     25  C   UNL     1       5.675   5.137  17.491  0.00  0.00    +0.000 A 
BRANCH  25  26
ATOM     26  S   UNL     1       5.632   4.977  19.281  0.00  0.00    +0.000 S 
ATOM     27  C   UNL     1       4.569   3.539  19.593  0.00  0.00    +0.000 C 
ENDBRANCH  25  26
ENDBRANCH  18  20
ENDBRANCH   3  16
TORSDOF 6
ENDMDL
MODEL 7
REMARK VINA RESULT:      -6.9      6.697      9.461
REMARK  Name = 
REMARK  9 active torsions:
REMARK  status: ('A' for Active; 'I' for Inactive)
REMARK    1  A    between atoms: C_1  and  O_2
REMARK    2  A    between atoms: O_2  and  C_3
REMARK    3  A    between atoms: C_6  and  C_7
REMARK    4  A    between atoms: C_9  and  C_10
REMARK    5  A    between atoms: N_12  and  C_13
REMARK    6  A    between atoms: C_18  and  S_19
REMARK    7  A    between atoms: S_19  and  C_20
REMARK    8  A    between atoms: C_24  and  O_25
REMARK    9  A    between atoms: O_25  and  C_26
REMARK                            x       y       z     vdW  Elec       q    Type
REMARK                         _______ _______ _______ _____ _____    ______ ____
ROOT
ATOM      1  C   UNL     1       3.049   7.276  18.401  0.00  0.00    +0.000 A 
ATOM      2  C   UNL     1       2.453   8.426  17.949  0.00  0.00    +0.000 A 
ATOM      3  C   UNL     1       1.550   8.790  18.978  0.00  0.00    +0.000 A 
ATOM      4  N   UNL     1       1.664   7.970  20.034  0.00  0.00    +0.000 NA
ATOM      5  O   UNL     1       2.587   7.010  19.655  0.00  0.00    +0.000 OA
ENDROOT
BRANCH   1   9
ATOM      6  C   UNL     1       5.548   4.525  16.302  0.00  0.00    +0.000 A 
ATOM      7  C   UNL     1       4.279   4.133  16.748  0.00  0.00    +0.000 A 
ATOM      8  C   UNL     1       3.473   5.011  17.473  0.00  0.00    +0.000 A 
ATOM      9  C   UNL     1       3.934   6.287  17.802  0.00  0.00    +0.000 A 
ATOM     10  C   UNL     1       5.255   6.619  17.471  0.00  0.00    +0.000 A 
ATOM     11  C   UNL     1       6.073   5.753  16.725  0.00  0.00    +0.000 A 
BRANCH   6  13
ATOM     12  C   UNL     1       6.133   3.992  14.082  0.00  0.00    +0.000 C 
ATOM     13  O   UNL     1       6.273   3.709  15.476  0.00  0.00    +0.000 OA
ENDBRANCH   6  13
BRANCH  11  14
ATOM     14  O   UNL     1       7.307   6.295  16.484  0.00  0.00    +0.000 OA
ATOM     15  C   UNL     1       7.751   7.380  17.282  0.00  0.00    +0.000 C 
ENDBRANCH  11  14
ENDBRANCH   1   9
BRANCH   3  16
ATOM     16  C   UNL     1       0.591   9.883  18.932  0.00  0.00    +0.000 C 
ATOM     17  O   UNL     1      -0.224   9.965  18.016  0.00  0.00    +0.000 OA
ATOM     18  N   UNL     1       0.719  10.804  19.961  0.00  0.00    +0.000 N 
ATOM     19  H   UNL     1       1.580  10.775  20.493  0.00  0.00    +0.000 HD
BRANCH  18  20
ATOM     20  C   UNL     1      -0.123  11.922  20.089  0.00  0.00    +0.000 A 
ATOM     21  C   UNL     1      -1.276  11.794  20.884  0.00  0.00    +0.000 A 
ATOM     22  C   UNL     1      -2.127  12.873  21.094  0.00  0.00    +0.000 A 
ATOM     23  C   UNL     1      -1.846  14.090  20.488  0.00  0.00    +0.000 A 
ATOM     24  C   UNL     1      -0.694  14.230  19.706  0.00  0.00    +0.000 A 
ATOM     25  C   UNL     1       0.201  13.161  19.512  0.00  0.00    +0.000 A 
BRANCH  25  26
ATOM     26  S   UNL     1       1.664  13.556  18.546  0.00  0.00    +0.000 S 
ATOM     27  C   UNL     1       1.873  15.350  18.732  0.00  0.00    +0.000 C 
ENDBRANCH  25  26
ENDBRANCH  18  20
ENDBRANCH   3  16
TORSDOF 6
ENDMDL
MODEL 8
REMARK VINA RESULT:      -6.9      6.795      9.340
REMARK  Name = 
REMARK  9 active torsions:
REMARK  status: ('A' for Active; 'I' for Inactive)
REMARK    1  A    between atoms: C_1  and  O_2
REMARK    2  A    between atoms: O_2  and  C_3
REMARK    3  A    between atoms: C_6  and  C_7
REMARK    4  A    between atoms: C_9  and  C_10
REMARK    5  A    between atoms: N_12  and  C_13
REMARK    6  A    between atoms: C_18  and  S_19
REMARK    7  A    between atoms: S_19  and  C_20
REMARK    8  A    between atoms: C_24  and  O_25
REMARK    9  A    between atoms: O_25  and  C_26
REMARK                            x       y       z     vdW  Elec       q    Type
REMARK                         _______ _______ _______ _____ _____    ______ ____
ROOT
ATOM      1  C   UNL     1       3.112   7.238  18.443  0.00  0.00    +0.000 A 
ATOM      2  C   UNL     1       2.631   8.463  18.052  0.00  0.00    +0.000 A 
ATOM      3  C   UNL     1       1.698   8.819  19.056  0.00  0.00    +0.000 A 
ATOM      4  N   UNL     1       1.687   7.915  20.049  0.00  0.00    +0.000 NA
ATOM      5  O   UNL     1       2.557   6.917  19.646  0.00  0.00    +0.000 OA
ENDROOT
BRANCH   1   9
ATOM      6  C   UNL     1       5.486   4.438  16.267  0.00  0.00    +0.000 A 
ATOM      7  C   UNL     1       4.213   4.080  16.731  0.00  0.00    +0.000 A 
ATOM      8  C   UNL     1       3.447   4.973  17.480  0.00  0.00    +0.000 A 
ATOM      9  C   UNL     1       3.955   6.230  17.817  0.00  0.00    +0.000 A 
ATOM     10  C   UNL     1       5.279   6.524  17.466  0.00  0.00    +0.000 A 
ATOM     11  C   UNL     1       6.056   5.643  16.695  0.00  0.00    +0.000 A 
BRANCH   6  13
ATOM     12  C   UNL     1       6.081   3.963  14.036  0.00  0.00    +0.000 C 
ATOM     13  O   UNL     1       6.170   3.610  15.418  0.00  0.00    +0.000 OA
ENDBRANCH   6  13
BRANCH  11  14
ATOM     14  O   UNL     1       7.303   6.150  16.439  0.00  0.00    +0.000 OA
ATOM     15  C   UNL     1       7.757   7.270  17.180  0.00  0.00    +0.000 C 
ENDBRANCH  11  14
ENDBRANCH   1   9
BRANCH   3  16
ATOM     16  C   UNL     1       0.827   9.984  19.045  0.00  0.00    +0.000 C 
ATOM     17  O   UNL     1       1.156  11.009  18.452  0.00  0.00    +0.000 OA
ATOM     18  N   UNL     1      -0.340   9.837  19.780  0.00  0.00    +0.000 N 
ATOM     19  H   UNL     1      -0.374   9.060  20.429  0.00  0.00    +0.000 HD
BRANCH  18  20
ATOM     20  C   UNL     1      -1.308  10.851  19.880  0.00  0.00    +0.000 A 
ATOM     21  C   UNL     1      -1.261  11.699  21.002  0.00  0.00    +0.000 A 
ATOM     22  C   UNL     1      -2.156  12.754  21.141  0.00  0.00    +0.000 A 
ATOM     23  C   UNL     1      -3.127  12.957  20.170  0.00  0.00    +0.000 A 
ATOM     24  C   UNL     1      -3.171  12.127  19.044  0.00  0.00    +0.000 A 
ATOM     25  C   UNL     1      -2.251  11.077  18.865  0.00  0.00    +0.000 A 
BRANCH  25  26
ATOM     26  S   UNL     1      -2.416  10.173  17.320  0.00  0.00    +0.000 S 
ATOM     27  C   UNL     1      -3.826  10.946  16.478  0.00  0.00    +0.000 C 
ENDBRANCH  25  26
ENDBRANCH  18  20
ENDBRANCH   3  16
TORSDOF 6
ENDMDL
MODEL 9
REMARK VINA RESULT:      -6.9      6.912      9.757
REMARK  Name = 
REMARK  9 active torsions:
REMARK  status: ('A' for Active; 'I' for Inactive)
REMARK    1  A    between atoms: C_1  and  O_2
REMARK    2  A    between atoms: O_2  and  C_3
REMARK    3  A    between atoms: C_6  and  C_7
REMARK    4  A    between atoms: C_9  and  C_10
REMARK    5  A    between atoms: N_12  and  C_13
REMARK    6  A    between atoms: C_18  and  S_19
REMARK    7  A    between atoms: S_19  and  C_20
REMARK    8  A    between atoms: C_24  and  O_25
REMARK    9  A    between atoms: O_25  and  C_26
REMARK                            x       y       z     vdW  Elec       q    Type
REMARK                         _______ _______ _______ _____ _____    ______ ____
ROOT
ATOM      1  C   UNL     1       2.919   7.318  18.528  0.00  0.00    +0.000 A 
ATOM      2  C   UNL     1       2.392   8.516  18.117  0.00  0.00    +0.000 A 
ATOM      3  C   UNL     1       1.500   8.890  19.152  0.00  0.00    +0.000 A 
ATOM      4  N   UNL     1       1.558   8.023  20.176  0.00  0.00    +0.000 NA
ATOM      5  O   UNL     1       2.430   7.030  19.767  0.00  0.00    +0.000 OA
ENDROOT
BRANCH   1   9
ATOM      6  C   UNL     1       5.257   4.496  16.340  0.00  0.00    +0.000 A 
ATOM      7  C   UNL     1       4.004   4.134  16.852  0.00  0.00    +0.000 A 
ATOM      8  C   UNL     1       3.252   5.035  17.606  0.00  0.00    +0.000 A 
ATOM      9  C   UNL     1       3.754   6.305  17.897  0.00  0.00    +0.000 A 
ATOM     10  C   UNL     1       5.063   6.607  17.497  0.00  0.00    +0.000 A 
ATOM     11  C   UNL     1       5.826   5.718  16.722  0.00  0.00    +0.000 A 
BRANCH   6  13
ATOM     12  C   UNL     1       5.900   4.055  14.115  0.00  0.00    +0.000 C 
ATOM     13  O   UNL     1       5.924   3.657  15.488  0.00  0.00    +0.000 OA
ENDBRANCH   6  13
BRANCH  11  14
ATOM     14  O   UNL     1       7.056   6.233  16.413  0.00  0.00    +0.000 OA
ATOM     15  C   UNL     1       7.636   7.197  17.277  0.00  0.00    +0.000 C 
ENDBRANCH  11  14
ENDBRANCH   1   9
BRANCH   3  16
ATOM     16  C   UNL     1       0.603  10.035  19.142  0.00  0.00    +0.000 C 
ATOM     17  O   UNL     1      -0.444  10.006  18.500  0.00  0.00    +0.000 OA
ATOM     18  N   UNL     1       1.057  11.128  19.866  0.00  0.00    +0.000 N 
ATOM     19  H   UNL     1       2.036  11.126  20.125  0.00  0.00    +0.000 HD
BRANCH  18  20
ATOM     20  C   UNL     1       0.325  12.321  19.978  0.00  0.00    +0.000 A 
ATOM     21  C   UNL     1       0.449  13.272  18.949  0.00  0.00    +0.000 A 
ATOM     22  C   UNL     1      -0.285  14.453  18.971  0.00  0.00    +0.000 A 
ATOM     23  C   UNL     1      -1.133  14.708  20.039  0.00  0.00    +0.000 A 
ATOM     24  C   UNL     1      -1.273  13.762  21.060  0.00  0.00    +0.000 A 
ATOM     25  C   UNL     1      -0.569  12.544  21.038  0.00  0.00    +0.000 A 
BRANCH  25  26
ATOM     26  S   UNL     1      -0.941  11.423  22.393  0.00  0.00    +0.000 S 
ATOM     27  C   UNL     1      -2.484  12.056  23.110  0.00  0.00    +0.000 C 
ENDBRANCH  25  26
ENDBRANCH  18  20
ENDBRANCH   3  16
TORSDOF 6
ENDMDL
