MODEL 1
REMARK VINA RESULT:      -8.3      0.000      0.000
REMARK  Name = 
REMARK  3 active torsions:
REMARK  status: ('A' for Active; 'I' for Inactive)
REMARK    1  A    between atoms: C_2  and  C_14
REMARK    2  A    between atoms: N_3  and  C_4
REMARK    3  A    between atoms: C_9  and  C_10
REMARK                            x       y       z     vdW  Elec       q    Type
REMARK                         _______ _______ _______ _____ _____    ______ ____
ROOT
ATOM      1  O   UNL     1       0.442  12.120  18.580  0.00  0.00    +0.000 OA
ATOM      2  C   UNL     1       0.124  10.934  18.688  0.00  0.00    +0.000 C 
ATOM      3  N   UNL     1      -1.194  10.464  18.614  0.00  0.00    +0.000 N 
ATOM      4  H   UNL     1      -1.297   9.454  18.544  0.00  0.00    +0.000 HD
ENDROOT
BRANCH   2   5
ATOM      5  C   UNL     1       1.212   9.899  19.220  0.00  0.00    +0.000 C 
ATOM      6  C   UNL     1       0.522   9.315  20.471  0.00  0.00    +0.000 C 
ATOM      7  C   UNL     1       1.556   8.548  21.233  0.00  0.00    +0.000 C 
ATOM      8  C   UNL     1       1.851   7.445  20.285  0.00  0.00    +0.000 A 
ATOM      9  C   UNL     1       1.384   6.156  20.525  0.00  0.00    +0.000 A 
ATOM     10  C   UNL     1       1.550   5.173  19.554  0.00  0.00    +0.000 A 
ATOM     11  C   UNL     1       2.410   5.385  18.486  0.00  0.00    +0.000 A 
ATOM     12  C   UNL     1       2.832   4.291  17.725  0.00  0.00    +0.000 A 
ATOM     13  C   UNL     1       3.978   4.377  16.953  0.00  0.00    +0.000 A 
ATOM     14  C   UNL     1       4.679   5.578  16.904  0.00  0.00    +0.000 A 
ATOM     15  C   UNL     1       4.143   6.739  17.499  0.00  0.00    +0.000 A 
ATOM     16  C   UNL     1       2.958   6.680  18.281  0.00  0.00    +0.000 A 
ATOM     17  C   UNL     1       2.369   7.747  19.025  0.00  0.00    +0.000 A 
ATOM     18  O   UNL     1       1.956   8.942  18.414  0.00  0.00    +0.000 OA
ENDBRANCH   2   5
BRANCH   3  19
ATOM     19  C   UNL     1      -2.407  11.229  18.772  0.00  0.00    +0.000 A 
ATOM     20  C   UNL     1      -2.691  11.949  19.946  0.00  0.00    +0.000 A 
ATOM     21  C   UNL     1      -3.913  12.620  20.139  0.00  0.00    +0.000 A 
ATOM     22  C   UNL     1      -4.893  12.595  19.158  0.00  0.00    +0.000 A 
ATOM     23  C   UNL     1      -4.636  11.906  17.977  0.00  0.00    +0.000 A 
ATOM     24  C   UNL     1      -3.406  11.225  17.767  0.00  0.00    +0.000 A 
BRANCH  24  25
ATOM     25  C   UNL     1      -3.284  10.505  16.457  0.00  0.00    +0.000 C 
ATOM     26  F   UNL     1      -2.264  10.949  15.662  0.00  0.00    +0.000 F 
ATOM     27  F   UNL     1      -3.066   9.168  16.617  0.00  0.00    +0.000 F 
ATOM     28  F   UNL     1      -4.414  10.601  15.697  0.00  0.00    +0.000 F 
ENDBRANCH  24  25
ENDBRANCH   3  19
TORSDOF 3
ENDMDL
MODEL 2
REMARK VINA RESULT:      -8.2      2.770      3.880
REMARK  Name = 
REMARK  3 active torsions:
REMARK  status: ('A' for Active; 'I' for Inactive)
REMARK    1  A    between atoms: C_2  and  C_14
REMARK    2  A    between atoms: N_3  and  C_4
REMARK    3  A    between atoms: C_9  and  C_10
REMARK                            x       y       z     vdW  Elec       q    Type
REMARK                         _______ _______ _______ _____ _____    ______ ____
ROOT
ATOM      1  O   UNL     1       2.169  10.330  17.578  0.00  0.00    +0.000 OA
ATOM      2  C   UNL     1       1.767   9.302  18.126  0.00  0.00    +0.000 C 
ATOM      3  N   UNL     1       0.499   9.167  18.710  0.00  0.00    +0.000 N 
ATOM      4  H   UNL     1       0.233   8.220  18.969  0.00  0.00    +0.000 HD
ENDROOT
BRANCH   2   5
ATOM      5  C   UNL     1       2.817   8.150  18.451  0.00  0.00    +0.000 C 
ATOM      6  C   UNL     1       1.942   7.106  19.177  0.00  0.00    +0.000 C 
ATOM      7  C   UNL     1       2.865   6.107  19.799  0.00  0.00    +0.000 C 
ATOM      8  C   UNL     1       3.463   5.479  18.594  0.00  0.00    +0.000 A 
ATOM      9  C   UNL     1       3.088   4.199  18.198  0.00  0.00    +0.000 A 
ATOM     10  C   UNL     1       3.552   3.691  16.989  0.00  0.00    +0.000 A 
ATOM     11  C   UNL     1       4.592   4.321  16.320  0.00  0.00    +0.000 A 
ATOM     12  C   UNL     1       5.272   3.628  15.315  0.00  0.00    +0.000 A 
ATOM     13  C   UNL     1       6.540   4.026  14.927  0.00  0.00    +0.000 A 
ATOM     14  C   UNL     1       7.111   5.151  15.513  0.00  0.00    +0.000 A 
ATOM     15  C   UNL     1       6.348   5.972  16.370  0.00  0.00    +0.000 A 
ATOM     16  C   UNL     1       5.037   5.593  16.769  0.00  0.00    +0.000 A 
ATOM     17  C   UNL     1       4.201   6.266  17.710  0.00  0.00    +0.000 A 
ATOM     18  O   UNL     1       3.806   7.603  17.534  0.00  0.00    +0.000 OA
ENDBRANCH   2   5
BRANCH   3  19
ATOM     19  C   UNL     1      -0.395  10.225  19.113  0.00  0.00    +0.000 A 
ATOM     20  C   UNL     1      -1.076  11.028  18.180  0.00  0.00    +0.000 A 
ATOM     21  C   UNL     1      -1.876  12.118  18.570  0.00  0.00    +0.000 A 
ATOM     22  C   UNL     1      -2.023  12.441  19.910  0.00  0.00    +0.000 A 
ATOM     23  C   UNL     1      -1.377  11.655  20.860  0.00  0.00    +0.000 A 
ATOM     24  C   UNL     1      -0.567  10.550  20.481  0.00  0.00    +0.000 A 
BRANCH  24  25
ATOM     25  C   UNL     1       0.088   9.814  21.613  0.00  0.00    +0.000 C 
ATOM     26  F   UNL     1      -0.240   8.489  21.690  0.00  0.00    +0.000 F 
ATOM     27  F   UNL     1       1.449   9.849  21.538  0.00  0.00    +0.000 F 
ATOM     28  F   UNL     1      -0.223  10.342  22.833  0.00  0.00    +0.000 F 
ENDBRANCH  24  25
ENDBRANCH   3  19
TORSDOF 3
ENDMDL
MODEL 3
REMARK VINA RESULT:      -8.1      3.714      4.974
REMARK  Name = 
REMARK  3 active torsions:
REMARK  status: ('A' for Active; 'I' for Inactive)
REMARK    1  A    between atoms: C_2  and  C_14
REMARK    2  A    between atoms: N_3  and  C_4
REMARK    3  A    between atoms: C_9  and  C_10
REMARK                            x       y       z     vdW  Elec       q    Type
REMARK                         _______ _______ _______ _____ _____    ______ ____
ROOT
ATOM      1  O   UNL     1       0.009   6.552  20.884  0.00  0.00    +0.000 OA
ATOM      2  C   UNL     1       1.202   6.864  20.913  0.00  0.00    +0.000 C 
ATOM      3  N   UNL     1       1.669   8.185  20.868  0.00  0.00    +0.000 N 
ATOM      4  H   UNL     1       2.658   8.308  21.074  0.00  0.00    +0.000 HD
ENDROOT
BRANCH   2   5
ATOM      5  C   UNL     1       2.294   5.724  20.707  0.00  0.00    +0.000 C 
ATOM      6  C   UNL     1       1.420   4.481  20.436  0.00  0.00    +0.000 C 
ATOM      7  C   UNL     1       2.311   3.283  20.521  0.00  0.00    +0.000 C 
ATOM      8  C   UNL     1       3.205   3.507  19.357  0.00  0.00    +0.000 A 
ATOM      9  C   UNL     1       3.067   2.749  18.198  0.00  0.00    +0.000 A 
ATOM     10  C   UNL     1       3.818   3.074  17.071  0.00  0.00    +0.000 A 
ATOM     11  C   UNL     1       4.889   3.950  17.176  0.00  0.00    +0.000 A 
ATOM     12  C   UNL     1       5.830   3.998  16.144  0.00  0.00    +0.000 A 
ATOM     13  C   UNL     1       7.095   4.512  16.375  0.00  0.00    +0.000 A 
ATOM     14  C   UNL     1       7.403   5.024  17.631  0.00  0.00    +0.000 A 
ATOM     15  C   UNL     1       6.395   5.171  18.608  0.00  0.00    +0.000 A 
ATOM     16  C   UNL     1       5.085   4.667  18.386  0.00  0.00    +0.000 A 
ATOM     17  C   UNL     1       4.006   4.648  19.321  0.00  0.00    +0.000 A 
ATOM     18  O   UNL     1       3.502   5.823  19.901  0.00  0.00    +0.000 OA
ENDBRANCH   2   5
BRANCH   3  19
ATOM     19  C   UNL     1       0.950   9.353  20.422  0.00  0.00    +0.000 A 
ATOM     20  C   UNL     1       1.091   9.871  19.122  0.00  0.00    +0.000 A 
ATOM     21  C   UNL     1       0.463  11.062  18.714  0.00  0.00    +0.000 A 
ATOM     22  C   UNL     1      -0.334  11.776  19.597  0.00  0.00    +0.000 A 
ATOM     23  C   UNL     1      -0.509  11.282  20.886  0.00  0.00    +0.000 A 
ATOM     24  C   UNL     1       0.118  10.079  21.311  0.00  0.00    +0.000 A 
BRANCH  24  25
ATOM     25  C   UNL     1      -0.142   9.686  22.735  0.00  0.00    +0.000 C 
ATOM     26  F   UNL     1       0.984   9.392  23.454  0.00  0.00    +0.000 F 
ATOM     27  F   UNL     1      -0.777  10.667  23.438  0.00  0.00    +0.000 F 
ATOM     28  F   UNL     1      -0.944   8.586  22.839  0.00  0.00    +0.000 F 
ENDBRANCH  24  25
ENDBRANCH   3  19
TORSDOF 3
ENDMDL
MODEL 4
REMARK VINA RESULT:      -8.1      3.769      8.236
REMARK  Name = 
REMARK  3 active torsions:
REMARK  status: ('A' for Active; 'I' for Inactive)
REMARK    1  A    between atoms: C_2  and  C_14
REMARK    2  A    between atoms: N_3  and  C_4
REMARK    3  A    between atoms: C_9  and  C_10
REMARK                            x       y       z     vdW  Elec       q    Type
REMARK                         _______ _______ _______ _____ _____    ______ ____
ROOT
ATOM      1  O   UNL     1       1.814   7.410  17.784  0.00  0.00    +0.000 OA
ATOM      2  C   UNL     1       2.206   7.749  18.902  0.00  0.00    +0.000 C 
ATOM      3  N   UNL     1       2.652   6.853  19.883  0.00  0.00    +0.000 N 
ATOM      4  H   UNL     1       3.109   7.276  20.689  0.00  0.00    +0.000 HD
ENDROOT
BRANCH   2   5
ATOM      5  C   UNL     1       1.939   9.244  19.383  0.00  0.00    +0.000 C 
ATOM      6  C   UNL     1       1.923  10.018  18.048  0.00  0.00    +0.000 C 
ATOM      7  C   UNL     1       1.978  11.476  18.378  0.00  0.00    +0.000 C 
ATOM      8  C   UNL     1       0.673  11.665  19.060  0.00  0.00    +0.000 A 
ATOM      9  C   UNL     1      -0.375  12.320  18.422  0.00  0.00    +0.000 A 
ATOM     10  C   UNL     1      -1.630  12.358  19.024  0.00  0.00    +0.000 A 
ATOM     11  C   UNL     1      -1.775  12.003  20.357  0.00  0.00    +0.000 A 
ATOM     12  C   UNL     1      -2.940  12.370  21.035  0.00  0.00    +0.000 A 
ATOM     13  C   UNL     1      -2.957  12.421  22.419  0.00  0.00    +0.000 A 
ATOM     14  C   UNL     1      -1.817  12.058  23.128  0.00  0.00    +0.000 A 
ATOM     15  C   UNL     1      -0.714  11.488  22.459  0.00  0.00    +0.000 A 
ATOM     16  C   UNL     1      -0.681  11.408  21.041  0.00  0.00    +0.000 A 
ATOM     17  C   UNL     1       0.408  10.960  20.234  0.00  0.00    +0.000 A 
ATOM     18  O   UNL     1       0.949   9.669  20.361  0.00  0.00    +0.000 OA
ENDBRANCH   2   5
BRANCH   3  19
ATOM     19  C   UNL     1       2.409   5.433  19.947  0.00  0.00    +0.000 A 
ATOM     20  C   UNL     1       1.244   4.897  20.527  0.00  0.00    +0.000 A 
ATOM     21  C   UNL     1       1.047   3.511  20.674  0.00  0.00    +0.000 A 
ATOM     22  C   UNL     1       2.010   2.613  20.241  0.00  0.00    +0.000 A 
ATOM     23  C   UNL     1       3.166   3.110  19.646  0.00  0.00    +0.000 A 
ATOM     24  C   UNL     1       3.378   4.506  19.490  0.00  0.00    +0.000 A 
BRANCH  24  25
ATOM     25  C   UNL     1       4.682   4.892  18.857  0.00  0.00    +0.000 C 
ATOM     26  F   UNL     1       5.507   5.626  19.664  0.00  0.00    +0.000 F 
ATOM     27  F   UNL     1       5.417   3.808  18.475  0.00  0.00    +0.000 F 
ATOM     28  F   UNL     1       4.517   5.636  17.724  0.00  0.00    +0.000 F 
ENDBRANCH  24  25
ENDBRANCH   3  19
TORSDOF 3
ENDMDL
MODEL 5
REMARK VINA RESULT:      -8.1      2.834      3.798
REMARK  Name = 
REMARK  3 active torsions:
REMARK  status: ('A' for Active; 'I' for Inactive)
REMARK    1  A    between atoms: C_2  and  C_14
REMARK    2  A    between atoms: N_3  and  C_4
REMARK    3  A    between atoms: C_9  and  C_10
REMARK                            x       y       z     vdW  Elec       q    Type
REMARK                         _______ _______ _______ _____ _____    ______ ____
ROOT
ATOM      1  O   UNL     1       0.415   8.632  21.240  0.00  0.00    +0.000 OA
ATOM      2  C   UNL     1       1.237   8.563  20.324  0.00  0.00    +0.000 C 
ATOM      3  N   UNL     1       1.207   9.369  19.178  0.00  0.00    +0.000 N 
ATOM      4  H   UNL     1       2.037   9.330  18.591  0.00  0.00    +0.000 HD
ENDROOT
BRANCH   2   5
ATOM      5  C   UNL     1       2.228   7.317  20.282  0.00  0.00    +0.000 C 
ATOM      6  C   UNL     1       1.263   6.126  20.467  0.00  0.00    +0.000 C 
ATOM      7  C   UNL     1       2.097   4.916  20.744  0.00  0.00    +0.000 C 
ATOM      8  C   UNL     1       2.813   4.759  19.454  0.00  0.00    +0.000 A 
ATOM      9  C   UNL     1       2.464   3.748  18.564  0.00  0.00    +0.000 A 
ATOM     10  C   UNL     1       3.050   3.710  17.302  0.00  0.00    +0.000 A 
ATOM     11  C   UNL     1       4.166   4.487  17.028  0.00  0.00    +0.000 A 
ATOM     12  C   UNL     1       4.942   4.190  15.904  0.00  0.00    +0.000 A 
ATOM     13  C   UNL     1       6.250   4.634  15.820  0.00  0.00    +0.000 A 
ATOM     14  C   UNL     1       6.771   5.419  16.844  0.00  0.00    +0.000 A 
ATOM     15  C   UNL     1       5.931   5.895  17.873  0.00  0.00    +0.000 A 
ATOM     16  C   UNL     1       4.579   5.467  17.969  0.00  0.00    +0.000 A 
ATOM     17  C   UNL     1       3.655   5.780  19.012  0.00  0.00    +0.000 A 
ATOM     18  O   UNL     1       3.303   7.103  19.324  0.00  0.00    +0.000 OA
ENDBRANCH   2   5
BRANCH   3  19
ATOM     19  C   UNL     1       0.088  10.123  18.668  0.00  0.00    +0.000 A 
ATOM     20  C   UNL     1      -0.866   9.557  17.802  0.00  0.00    +0.000 A 
ATOM     21  C   UNL     1      -1.905  10.315  17.231  0.00  0.00    +0.000 A 
ATOM     22  C   UNL     1      -2.027  11.667  17.510  0.00  0.00    +0.000 A 
ATOM     23  C   UNL     1      -1.110  12.254  18.377  0.00  0.00    +0.000 A 
ATOM     24  C   UNL     1      -0.057  11.502  18.962  0.00  0.00    +0.000 A 
BRANCH  24  25
ATOM     25  C   UNL     1       0.869  12.276  19.854  0.00  0.00    +0.000 C 
ATOM     26  F   UNL     1       2.162  12.333  19.413  0.00  0.00    +0.000 F 
ATOM     27  F   UNL     1       0.479  13.574  20.008  0.00  0.00    +0.000 F 
ATOM     28  F   UNL     1       0.933  11.763  21.118  0.00  0.00    +0.000 F 
ENDBRANCH  24  25
ENDBRANCH   3  19
TORSDOF 3
ENDMDL
MODEL 6
REMARK VINA RESULT:      -8.0      2.901      3.910
REMARK  Name = 
REMARK  3 active torsions:
REMARK  status: ('A' for Active; 'I' for Inactive)
REMARK    1  A    between atoms: C_2  and  C_14
REMARK    2  A    between atoms: N_3  and  C_4
REMARK    3  A    between atoms: C_9  and  C_10
REMARK                            x       y       z     vdW  Elec       q    Type
REMARK                         _______ _______ _______ _____ _____    ______ ____
ROOT
ATOM      1  O   UNL     1       0.088   8.039  21.334  0.00  0.00    +0.000 OA
ATOM      2  C   UNL     1       1.043   8.260  20.587  0.00  0.00    +0.000 C 
ATOM      3  N   UNL     1       1.097   9.323  19.674  0.00  0.00    +0.000 N 
ATOM      4  H   UNL     1       2.007   9.491  19.249  0.00  0.00    +0.000 HD
ENDROOT
BRANCH   2   5
ATOM      5  C   UNL     1       2.163   7.139  20.428  0.00  0.00    +0.000 C 
ATOM      6  C   UNL     1       1.359   5.841  20.661  0.00  0.00    +0.000 C 
ATOM      7  C   UNL     1       2.347   4.731  20.834  0.00  0.00    +0.000 C 
ATOM      8  C   UNL     1       2.963   4.682  19.485  0.00  0.00    +0.000 A 
ATOM      9  C   UNL     1       2.658   3.652  18.600  0.00  0.00    +0.000 A 
ATOM     10  C   UNL     1       3.134   3.705  17.293  0.00  0.00    +0.000 A 
ATOM     11  C   UNL     1       4.127   4.611  16.949  0.00  0.00    +0.000 A 
ATOM     12  C   UNL     1       4.832   4.426  15.757  0.00  0.00    +0.000 A 
ATOM     13  C   UNL     1       6.069   5.021  15.577  0.00  0.00    +0.000 A 
ATOM     14  C   UNL     1       6.582   5.843  16.575  0.00  0.00    +0.000 A 
ATOM     15  C   UNL     1       5.785   6.200  17.683  0.00  0.00    +0.000 A 
ATOM     16  C   UNL     1       4.504   5.616  17.879  0.00  0.00    +0.000 A 
ATOM     17  C   UNL     1       3.642   5.801  19.003  0.00  0.00    +0.000 A 
ATOM     18  O   UNL     1       3.169   7.069  19.379  0.00  0.00    +0.000 OA
ENDBRANCH   2   5
BRANCH   3  19
ATOM     19  C   UNL     1      -0.008  10.098  19.167  0.00  0.00    +0.000 A 
ATOM     20  C   UNL     1      -0.703   9.738  17.997  0.00  0.00    +0.000 A 
ATOM     21  C   UNL     1      -1.720  10.541  17.450  0.00  0.00    +0.000 A 
ATOM     22  C   UNL     1      -2.080  11.734  18.058  0.00  0.00    +0.000 A 
ATOM     23  C   UNL     1      -1.425  12.111  19.226  0.00  0.00    +0.000 A 
ATOM     24  C   UNL     1      -0.396  11.309  19.792  0.00  0.00    +0.000 A 
BRANCH  24  25
ATOM     25  C   UNL     1       0.237  11.857  21.037  0.00  0.00    +0.000 C 
ATOM     26  F   UNL     1       0.082  11.069  22.143  0.00  0.00    +0.000 F 
ATOM     27  F   UNL     1       1.582  12.035  20.902  0.00  0.00    +0.000 F 
ATOM     28  F   UNL     1      -0.259  13.081  21.384  0.00  0.00    +0.000 F 
ENDBRANCH  24  25
ENDBRANCH   3  19
TORSDOF 3
ENDMDL
MODEL 7
REMARK VINA RESULT:      -8.0      3.337      4.763
REMARK  Name = 
REMARK  3 active torsions:
REMARK  status: ('A' for Active; 'I' for Inactive)
REMARK    1  A    between atoms: C_2  and  C_14
REMARK    2  A    between atoms: N_3  and  C_4
REMARK    3  A    between atoms: C_9  and  C_10
REMARK                            x       y       z     vdW  Elec       q    Type
REMARK                         _______ _______ _______ _____ _____    ______ ____
ROOT
ATOM      1  O   UNL     1       0.231   6.091  20.826  0.00  0.00    +0.000 OA
ATOM      2  C   UNL     1       1.421   6.406  20.885  0.00  0.00    +0.000 C 
ATOM      3  N   UNL     1       1.880   7.728  20.980  0.00  0.00    +0.000 N 
ATOM      4  H   UNL     1       2.869   7.835  21.195  0.00  0.00    +0.000 HD
ENDROOT
BRANCH   2   5
ATOM      5  C   UNL     1       2.520   5.302  20.554  0.00  0.00    +0.000 C 
ATOM      6  C   UNL     1       1.654   4.058  20.262  0.00  0.00    +0.000 C 
ATOM      7  C   UNL     1       2.570   2.876  20.229  0.00  0.00    +0.000 C 
ATOM      8  C   UNL     1       3.392   3.183  19.031  0.00  0.00    +0.000 A 
ATOM      9  C   UNL     1       3.202   2.489  17.840  0.00  0.00    +0.000 A 
ATOM     10  C   UNL     1       3.882   2.891  16.695  0.00  0.00    +0.000 A 
ATOM     11  C   UNL     1       4.942   3.782  16.789  0.00  0.00    +0.000 A 
ATOM     12  C   UNL     1       5.822   3.907  15.711  0.00  0.00    +0.000 A 
ATOM     13  C   UNL     1       7.089   4.434  15.900  0.00  0.00    +0.000 A 
ATOM     14  C   UNL     1       7.459   4.882  17.165  0.00  0.00    +0.000 A 
ATOM     15  C   UNL     1       6.505   4.952  18.202  0.00  0.00    +0.000 A 
ATOM     16  C   UNL     1       5.194   4.435  18.025  0.00  0.00    +0.000 A 
ATOM     17  C   UNL     1       4.170   4.341  19.016  0.00  0.00    +0.000 A 
ATOM     18  O   UNL     1       3.678   5.472  19.689  0.00  0.00    +0.000 OA
ENDBRANCH   2   5
BRANCH   3  19
ATOM     19  C   UNL     1       1.151   8.932  20.665  0.00  0.00    +0.000 A 
ATOM     20  C   UNL     1       0.390   9.621  21.627  0.00  0.00    +0.000 A 
ATOM     21  C   UNL     1      -0.396  10.742  21.301  0.00  0.00    +0.000 A 
ATOM     22  C   UNL     1      -0.444  11.214  19.998  0.00  0.00    +0.000 A 
ATOM     23  C   UNL     1       0.311  10.566  19.026  0.00  0.00    +0.000 A 
ATOM     24  C   UNL     1       1.110   9.433  19.340  0.00  0.00    +0.000 A 
BRANCH  24  25
ATOM     25  C   UNL     1       1.847   8.824  18.184  0.00  0.00    +0.000 C 
ATOM     26  F   UNL     1       3.059   8.280  18.510  0.00  0.00    +0.000 F 
ATOM     27  F   UNL     1       1.143   7.817  17.592  0.00  0.00    +0.000 F 
ATOM     28  F   UNL     1       2.102   9.724  17.189  0.00  0.00    +0.000 F 
ENDBRANCH  24  25
ENDBRANCH   3  19
TORSDOF 3
ENDMDL
MODEL 8
REMARK VINA RESULT:      -8.0      1.597      2.784
REMARK  Name = 
REMARK  3 active torsions:
REMARK  status: ('A' for Active; 'I' for Inactive)
REMARK    1  A    between atoms: C_2  and  C_14
REMARK    2  A    between atoms: N_3  and  C_4
REMARK    3  A    between atoms: C_9  and  C_10
REMARK                            x       y       z     vdW  Elec       q    Type
REMARK                         _______ _______ _______ _____ _____    ______ ____
ROOT
ATOM      1  O   UNL     1       1.932  10.208  17.375  0.00  0.00    +0.000 OA
ATOM      2  C   UNL     1       1.609   9.348  18.198  0.00  0.00    +0.000 C 
ATOM      3  N   UNL     1       0.483   9.440  19.028  0.00  0.00    +0.000 N 
ATOM      4  H   UNL     1       0.238   8.590  19.530  0.00  0.00    +0.000 HD
ENDROOT
BRANCH   2   5
ATOM      5  C   UNL     1       2.656   8.203  18.555  0.00  0.00    +0.000 C 
ATOM      6  C   UNL     1       1.758   7.134  19.212  0.00  0.00    +0.000 C 
ATOM      7  C   UNL     1       2.659   6.133  19.863  0.00  0.00    +0.000 C 
ATOM      8  C   UNL     1       3.330   5.539  18.679  0.00  0.00    +0.000 A 
ATOM      9  C   UNL     1       2.995   4.263  18.237  0.00  0.00    +0.000 A 
ATOM     10  C   UNL     1       3.531   3.786  17.045  0.00  0.00    +0.000 A 
ATOM     11  C   UNL     1       4.596   4.443  16.447  0.00  0.00    +0.000 A 
ATOM     12  C   UNL     1       5.339   3.780  15.466  0.00  0.00    +0.000 A 
ATOM     13  C   UNL     1       6.621   4.203  15.155  0.00  0.00    +0.000 A 
ATOM     14  C   UNL     1       7.143   5.322  15.795  0.00  0.00    +0.000 A 
ATOM     15  C   UNL     1       6.324   6.114  16.626  0.00  0.00    +0.000 A 
ATOM     16  C   UNL     1       4.999   5.711  16.945  0.00  0.00    +0.000 A 
ATOM     17  C   UNL     1       4.104   6.353  17.852  0.00  0.00    +0.000 A 
ATOM     18  O   UNL     1       3.701   7.688  17.682  0.00  0.00    +0.000 OA
ENDBRANCH   2   5
BRANCH   3  19
ATOM     19  C   UNL     1      -0.266  10.627  19.358  0.00  0.00    +0.000 A 
ATOM     20  C   UNL     1       0.138  11.510  20.377  0.00  0.00    +0.000 A 
ATOM     21  C   UNL     1      -0.639  12.618  20.763  0.00  0.00    +0.000 A 
ATOM     22  C   UNL     1      -1.849  12.881  20.140  0.00  0.00    +0.000 A 
ATOM     23  C   UNL     1      -2.270  12.038  19.116  0.00  0.00    +0.000 A 
ATOM     24  C   UNL     1      -1.495  10.916  18.714  0.00  0.00    +0.000 A 
BRANCH  24  25
ATOM     25  C   UNL     1      -2.089  10.082  17.617  0.00  0.00    +0.000 C 
ATOM     26  F   UNL     1      -2.959   9.119  18.048  0.00  0.00    +0.000 F 
ATOM     27  F   UNL     1      -2.790  10.830  16.717  0.00  0.00    +0.000 F 
ATOM     28  F   UNL     1      -1.143   9.425  16.885  0.00  0.00    +0.000 F 
ENDBRANCH  24  25
ENDBRANCH   3  19
TORSDOF 3
ENDMDL
MODEL 9
REMARK VINA RESULT:      -8.0      0.921      1.257
REMARK  Name = 
REMARK  3 active torsions:
REMARK  status: ('A' for Active; 'I' for Inactive)
REMARK    1  A    between atoms: C_2  and  C_14
REMARK    2  A    between atoms: N_3  and  C_4
REMARK    3  A    between atoms: C_9  and  C_10
REMARK                            x       y       z     vdW  Elec       q    Type
REMARK                         _______ _______ _______ _____ _____    ______ ____
ROOT
ATOM      1  O   UNL     1       1.209  11.286  18.482  0.00  0.00    +0.000 OA
ATOM      2  C   UNL     1       0.699  10.215  18.819  0.00  0.00    +0.000 C 
ATOM      3  N   UNL     1      -0.672  10.036  19.050  0.00  0.00    +0.000 N 
ATOM      4  H   UNL     1      -0.979   9.071  19.150  0.00  0.00    +0.000 HD
ENDROOT
BRANCH   2   5
ATOM      5  C   UNL     1       1.653   9.032  19.295  0.00  0.00    +0.000 C 
ATOM      6  C   UNL     1       0.945   8.537  20.574  0.00  0.00    +0.000 C 
ATOM      7  C   UNL     1       1.894   7.625  21.284  0.00  0.00    +0.000 C 
ATOM      8  C   UNL     1       1.989   6.501  20.318  0.00  0.00    +0.000 A 
ATOM      9  C   UNL     1       1.357   5.288  20.573  0.00  0.00    +0.000 A 
ATOM     10  C   UNL     1       1.340   4.302  19.591  0.00  0.00    +0.000 A 
ATOM     11  C   UNL     1       2.173   4.404  18.486  0.00  0.00    +0.000 A 
ATOM     12  C   UNL     1       2.402   3.270  17.702  0.00  0.00    +0.000 A 
ATOM     13  C   UNL     1       3.513   3.203  16.878  0.00  0.00    +0.000 A 
ATOM     14  C   UNL     1       4.373   4.294  16.803  0.00  0.00    +0.000 A 
ATOM     15  C   UNL     1       4.032   5.513  17.427  0.00  0.00    +0.000 A 
ATOM     16  C   UNL     1       2.887   5.611  18.263  0.00  0.00    +0.000 A 
ATOM     17  C   UNL     1       2.488   6.741  19.038  0.00  0.00    +0.000 A 
ATOM     18  O   UNL     1       2.219   7.989  18.452  0.00  0.00    +0.000 OA
ENDBRANCH   2   5
BRANCH   3  19
ATOM     19  C   UNL     1      -1.657  11.058  19.307  0.00  0.00    +0.000 A 
ATOM     20  C   UNL     1      -1.578  11.913  20.422  0.00  0.00    +0.000 A 
ATOM     21  C   UNL     1      -2.585  12.848  20.725  0.00  0.00    +0.000 A 
ATOM     22  C   UNL     1      -3.707  12.961  19.918  0.00  0.00    +0.000 A 
ATOM     23  C   UNL     1      -3.807  12.144  18.797  0.00  0.00    +0.000 A 
ATOM     24  C   UNL     1      -2.798  11.196  18.478  0.00  0.00    +0.000 A 
BRANCH  24  25
ATOM     25  C   UNL     1      -3.057  10.366  17.255  0.00  0.00    +0.000 C 
ATOM     26  F   UNL     1      -4.195  10.702  16.575  0.00  0.00    +0.000 F 
ATOM     27  F   UNL     1      -2.047  10.455  16.342  0.00  0.00    +0.000 F 
ATOM     28  F   UNL     1      -3.175   9.035  17.537  0.00  0.00    +0.000 F 
ENDBRANCH  24  25
ENDBRANCH   3  19
TORSDOF 3
ENDMDL
