MODEL 1
REMARK VINA RESULT:      -6.7      0.000      0.000
REMARK  Name = 
REMARK  3 active torsions:
REMARK  status: ('A' for Active; 'I' for Inactive)
REMARK    1  A    between atoms: C_1  and  C_2
REMARK    2  A    between atoms: C_2  and  N_3
REMARK    3  A    between atoms: N_5  and  C_6
REMARK                            x       y       z     vdW  Elec       q    Type
REMARK                         _______ _______ _______ _____ _____    ______ ____
ROOT
ATOM      1  N   UNL     1       2.607   6.024  19.169  0.00  0.00    +0.000 N 
ATOM      2  C   UNL     1       1.909   4.970  19.895  0.00  0.00    +0.000 C 
ATOM      3  N   UNL     1       2.856   4.049  20.503  0.00  0.00    +0.000 NA
ATOM      4  C   UNL     1       2.234   3.178  21.519  0.00  0.00    +0.000 C 
ATOM      5  S   UNL     1       3.679   3.184  19.313  0.00  0.00    +0.000 S 
ATOM      6  O   UNL     1       4.858   2.609  19.924  0.00  0.00    +0.000 OA
ATOM      7  O   UNL     1       2.718   2.353  18.622  0.00  0.00    +0.000 OA
ATOM      8  C   UNL     1       4.187   4.430  18.187  0.00  0.00    +0.000 A 
ATOM      9  C   UNL     1       5.187   4.083  17.265  0.00  0.00    +0.000 A 
ATOM     10  C   UNL     1       5.610   5.023  16.345  0.00  0.00    +0.000 A 
ATOM     11 CL   UNL     1       6.811   4.618  15.186  0.00  0.00    +0.000 Cl
ATOM     12  C   UNL     1       5.053   6.295  16.354  0.00  0.00    +0.000 A 
ATOM     13  C   UNL     1       4.070   6.626  17.300  0.00  0.00    +0.000 A 
ATOM     14  C   UNL     1       3.597   5.702  18.251  0.00  0.00    +0.000 A 
ENDROOT
BRANCH   1  16
ATOM     15  C   UNL     1       1.492   7.444  20.841  0.00  0.00    +0.000 C 
ATOM     16  C   UNL     1       2.293   7.405  19.549  0.00  0.00    +0.000 C 
ENDBRANCH   1  16
TORSDOF 1
ENDMDL
MODEL 2
REMARK VINA RESULT:      -6.4      0.999      1.076
REMARK  Name = 
REMARK  3 active torsions:
REMARK  status: ('A' for Active; 'I' for Inactive)
REMARK    1  A    between atoms: C_1  and  C_2
REMARK    2  A    between atoms: C_2  and  N_3
REMARK    3  A    between atoms: N_5  and  C_6
REMARK                            x       y       z     vdW  Elec       q    Type
REMARK                         _______ _______ _______ _____ _____    ______ ____
ROOT
ATOM      1  N   UNL     1       2.674   5.823  18.753  0.00  0.00    +0.000 N 
ATOM      2  C   UNL     1       1.711   4.841  19.236  0.00  0.00    +0.000 C 
ATOM      3  N   UNL     1       2.384   3.622  19.655  0.00  0.00    +0.000 NA
ATOM      4  C   UNL     1       1.517   2.739  20.460  0.00  0.00    +0.000 C 
ATOM      5  S   UNL     1       3.063   2.839  18.327  0.00  0.00    +0.000 S 
ATOM      6  O   UNL     1       4.040   1.895  18.824  0.00  0.00    +0.000 OA
ATOM      7  O   UNL     1       1.984   2.410  17.463  0.00  0.00    +0.000 OA
ATOM      8  C   UNL     1       3.911   4.127  17.489  0.00  0.00    +0.000 A 
ATOM      9  C   UNL     1       4.863   3.743  16.532  0.00  0.00    +0.000 A 
ATOM     10  C   UNL     1       5.545   4.720  15.831  0.00  0.00    +0.000 A 
ATOM     11 CL   UNL     1       6.695   4.280  14.633  0.00  0.00    +0.000 Cl
ATOM     12  C   UNL     1       5.292   6.060  16.094  0.00  0.00    +0.000 A 
ATOM     13  C   UNL     1       4.351   6.420  17.072  0.00  0.00    +0.000 A 
ATOM     14  C   UNL     1       3.622   5.464  17.805  0.00  0.00    +0.000 A 
ENDROOT
BRANCH   1  16
ATOM     15  C   UNL     1       1.960   8.167  18.531  0.00  0.00    +0.000 C 
ATOM     16  C   UNL     1       2.658   7.136  19.404  0.00  0.00    +0.000 C 
ENDBRANCH   1  16
TORSDOF 1
ENDMDL
MODEL 3
REMARK VINA RESULT:      -6.2      2.406      3.414
REMARK  Name = 
REMARK  3 active torsions:
REMARK  status: ('A' for Active; 'I' for Inactive)
REMARK    1  A    between atoms: C_1  and  C_2
REMARK    2  A    between atoms: C_2  and  N_3
REMARK    3  A    between atoms: N_5  and  C_6
REMARK                            x       y       z     vdW  Elec       q    Type
REMARK                         _______ _______ _______ _____ _____    ______ ____
ROOT
ATOM      1  N   UNL     1       6.369   5.282  18.344  0.00  0.00    +0.000 N 
ATOM      2  C   UNL     1       5.204   5.245  19.219  0.00  0.00    +0.000 C 
ATOM      3  N   UNL     1       4.566   3.939  19.174  0.00  0.00    +0.000 NA
ATOM      4  C   UNL     1       3.608   3.733  20.277  0.00  0.00    +0.000 C 
ATOM      5  S   UNL     1       3.887   3.669  17.656  0.00  0.00    +0.000 S 
ATOM      6  O   UNL     1       3.642   2.249  17.529  0.00  0.00    +0.000 OA
ATOM      7  O   UNL     1       2.820   4.629  17.469  0.00  0.00    +0.000 OA
ATOM      8  C   UNL     1       5.176   4.112  16.551  0.00  0.00    +0.000 A 
ATOM      9  C   UNL     1       5.051   3.678  15.223  0.00  0.00    +0.000 A 
ATOM     10  C   UNL     1       6.032   4.015  14.309  0.00  0.00    +0.000 A 
ATOM     11 CL   UNL     1       5.892   3.523  12.669  0.00  0.00    +0.000 Cl
ATOM     12  C   UNL     1       7.128   4.763  14.719  0.00  0.00    +0.000 A 
ATOM     13  C   UNL     1       7.242   5.167  16.059  0.00  0.00    +0.000 A 
ATOM     14  C   UNL     1       6.266   4.859  17.026  0.00  0.00    +0.000 A 
ENDROOT
BRANCH   1  16
ATOM     15  C   UNL     1       8.037   7.078  18.563  0.00  0.00    +0.000 C 
ATOM     16  C   UNL     1       7.644   5.663  18.959  0.00  0.00    +0.000 C 
ENDBRANCH   1  16
TORSDOF 1
ENDMDL
MODEL 4
REMARK VINA RESULT:      -6.0      3.510      4.927
REMARK  Name = 
REMARK  3 active torsions:
REMARK  status: ('A' for Active; 'I' for Inactive)
REMARK    1  A    between atoms: C_1  and  C_2
REMARK    2  A    between atoms: C_2  and  N_3
REMARK    3  A    between atoms: N_5  and  C_6
REMARK                            x       y       z     vdW  Elec       q    Type
REMARK                         _______ _______ _______ _____ _____    ______ ____
ROOT
ATOM      1  N   UNL     1       4.142   4.181  17.995  0.00  0.00    +0.000 N 
ATOM      2  C   UNL     1       5.154   3.883  16.989  0.00  0.00    +0.000 C 
ATOM      3  N   UNL     1       6.217   4.875  17.018  0.00  0.00    +0.000 NA
ATOM      4  C   UNL     1       7.420   4.446  16.277  0.00  0.00    +0.000 C 
ATOM      5  S   UNL     1       5.636   6.373  16.512  0.00  0.00    +0.000 S 
ATOM      6  O   UNL     1       6.582   7.380  16.941  0.00  0.00    +0.000 OA
ATOM      7  O   UNL     1       5.252   6.255  15.122  0.00  0.00    +0.000 OA
ATOM      8  C   UNL     1       4.159   6.567  17.439  0.00  0.00    +0.000 A 
ATOM      9  C   UNL     1       3.616   7.860  17.505  0.00  0.00    +0.000 A 
ATOM     10  C   UNL     1       2.443   8.062  18.208  0.00  0.00    +0.000 A 
ATOM     11 CL   UNL     1       1.739   9.627  18.282  0.00  0.00    +0.000 Cl
ATOM     12  C   UNL     1       1.830   6.993  18.848  0.00  0.00    +0.000 A 
ATOM     13  C   UNL     1       2.404   5.713  18.787  0.00  0.00    +0.000 A 
ATOM     14  C   UNL     1       3.590   5.452  18.075  0.00  0.00    +0.000 A 
ENDROOT
BRANCH   1  16
ATOM     15  C   UNL     1       3.383   1.855  18.261  0.00  0.00    +0.000 C 
ATOM     16  C   UNL     1       3.845   3.122  18.964  0.00  0.00    +0.000 C 
ENDBRANCH   1  16
TORSDOF 1
ENDMDL
MODEL 5
REMARK VINA RESULT:      -6.0      2.817      4.060
REMARK  Name = 
REMARK  3 active torsions:
REMARK  status: ('A' for Active; 'I' for Inactive)
REMARK    1  A    between atoms: C_1  and  C_2
REMARK    2  A    between atoms: C_2  and  N_3
REMARK    3  A    between atoms: N_5  and  C_6
REMARK                            x       y       z     vdW  Elec       q    Type
REMARK                         _______ _______ _______ _____ _____    ______ ____
ROOT
ATOM      1  N   UNL     1       5.174   4.569  17.675  0.00  0.00    +0.000 N 
ATOM      2  C   UNL     1       4.883   3.327  18.380  0.00  0.00    +0.000 C 
ATOM      3  N   UNL     1       3.553   2.844  18.044  0.00  0.00    +0.000 NA
ATOM      4  C   UNL     1       3.337   1.440  18.446  0.00  0.00    +0.000 C 
ATOM      5  S   UNL     1       2.378   3.888  18.652  0.00  0.00    +0.000 S 
ATOM      6  O   UNL     1       1.139   3.604  17.962  0.00  0.00    +0.000 OA
ATOM      7  O   UNL     1       2.453   3.849  20.096  0.00  0.00    +0.000 OA
ATOM      8  C   UNL     1       2.946   5.470  18.150  0.00  0.00    +0.000 A 
ATOM      9  C   UNL     1       2.018   6.523  18.201  0.00  0.00    +0.000 A 
ATOM     10  C   UNL     1       2.420   7.793  17.833  0.00  0.00    +0.000 A 
ATOM     11 CL   UNL     1       1.316   9.106  17.914  0.00  0.00    +0.000 Cl
ATOM     12  C   UNL     1       3.725   8.006  17.406  0.00  0.00    +0.000 A 
ATOM     13  C   UNL     1       4.628   6.933  17.342  0.00  0.00    +0.000 A 
ATOM     14  C   UNL     1       4.272   5.623  17.716  0.00  0.00    +0.000 A 
ENDROOT
BRANCH   1  16
ATOM     15  C   UNL     1       7.633   4.654  17.710  0.00  0.00    +0.000 C 
ATOM     16  C   UNL     1       6.383   4.589  16.846  0.00  0.00    +0.000 C 
ENDBRANCH   1  16
TORSDOF 1
ENDMDL
MODEL 6
REMARK VINA RESULT:      -5.9      2.634      3.805
REMARK  Name = 
REMARK  3 active torsions:
REMARK  status: ('A' for Active; 'I' for Inactive)
REMARK    1  A    between atoms: C_1  and  C_2
REMARK    2  A    between atoms: C_2  and  N_3
REMARK    3  A    between atoms: N_5  and  C_6
REMARK                            x       y       z     vdW  Elec       q    Type
REMARK                         _______ _______ _______ _____ _____    ______ ____
ROOT
ATOM      1  N   UNL     1       2.241   3.766  20.358  0.00  0.00    +0.000 N 
ATOM      2  C   UNL     1       2.327   2.573  19.526  0.00  0.00    +0.000 C 
ATOM      3  N   UNL     1       3.476   2.647  18.637  0.00  0.00    +0.000 NA
ATOM      4  C   UNL     1       3.811   1.346  18.027  0.00  0.00    +0.000 C 
ATOM      5  S   UNL     1       3.258   3.869  17.496  0.00  0.00    +0.000 S 
ATOM      6  O   UNL     1       4.551   4.172  16.924  0.00  0.00    +0.000 OA
ATOM      7  O   UNL     1       2.139   3.498  16.657  0.00  0.00    +0.000 OA
ATOM      8  C   UNL     1       2.742   5.238  18.465  0.00  0.00    +0.000 A 
ATOM      9  C   UNL     1       2.809   6.503  17.861  0.00  0.00    +0.000 A 
ATOM     10  C   UNL     1       2.398   7.613  18.575  0.00  0.00    +0.000 A 
ATOM     11 CL   UNL     1       2.440   9.170  17.853  0.00  0.00    +0.000 Cl
ATOM     12  C   UNL     1       1.941   7.462  19.878  0.00  0.00    +0.000 A 
ATOM     13  C   UNL     1       1.905   6.189  20.469  0.00  0.00    +0.000 A 
ATOM     14  C   UNL     1       2.301   5.027  19.781  0.00  0.00    +0.000 A 
ENDROOT
BRANCH   1  16
ATOM     15  C   UNL     1       1.355   2.353  22.167  0.00  0.00    +0.000 C 
ATOM     16  C   UNL     1       2.212   3.557  21.809  0.00  0.00    +0.000 C 
ENDBRANCH   1  16
TORSDOF 1
ENDMDL
MODEL 7
REMARK VINA RESULT:      -5.7      2.818      4.353
REMARK  Name = 
REMARK  3 active torsions:
REMARK  status: ('A' for Active; 'I' for Inactive)
REMARK    1  A    between atoms: C_1  and  C_2
REMARK    2  A    between atoms: C_2  and  N_3
REMARK    3  A    between atoms: N_5  and  C_6
REMARK                            x       y       z     vdW  Elec       q    Type
REMARK                         _______ _______ _______ _____ _____    ______ ____
ROOT
ATOM      1  N   UNL     1       2.980   6.937  18.143  0.00  0.00    +0.000 N 
ATOM      2  C   UNL     1       4.205   7.046  17.360  0.00  0.00    +0.000 C 
ATOM      3  N   UNL     1       4.475   5.805  16.652  0.00  0.00    +0.000 NA
ATOM      4  C   UNL     1       5.490   5.962  15.592  0.00  0.00    +0.000 C 
ATOM      5  S   UNL     1       4.851   4.576  17.742  0.00  0.00    +0.000 S 
ATOM      6  O   UNL     1       4.706   3.314  17.049  0.00  0.00    +0.000 OA
ATOM      7  O   UNL     1       6.092   4.928  18.398  0.00  0.00    +0.000 OA
ATOM      8  C   UNL     1       3.580   4.701  18.945  0.00  0.00    +0.000 A 
ATOM      9  C   UNL     1       3.408   3.604  19.802  0.00  0.00    +0.000 A 
ATOM     10  C   UNL     1       2.432   3.659  20.779  0.00  0.00    +0.000 A 
ATOM     11 CL   UNL     1       2.217   2.343  21.863  0.00  0.00    +0.000 Cl
ATOM     12  C   UNL     1       1.629   4.787  20.887  0.00  0.00    +0.000 A 
ATOM     13  C   UNL     1       1.805   5.864  20.003  0.00  0.00    +0.000 A 
ATOM     14  C   UNL     1       2.792   5.861  18.999  0.00  0.00    +0.000 A 
ENDROOT
BRANCH   1  16
ATOM     15  C   UNL     1       2.519   9.344  17.920  0.00  0.00    +0.000 C 
ATOM     16  C   UNL     1       1.941   7.938  17.883  0.00  0.00    +0.000 C 
ENDBRANCH   1  16
TORSDOF 1
ENDMDL
MODEL 8
REMARK VINA RESULT:      -5.7      3.403      4.319
REMARK  Name = 
REMARK  3 active torsions:
REMARK  status: ('A' for Active; 'I' for Inactive)
REMARK    1  A    between atoms: C_1  and  C_2
REMARK    2  A    between atoms: C_2  and  N_3
REMARK    3  A    between atoms: N_5  and  C_6
REMARK                            x       y       z     vdW  Elec       q    Type
REMARK                         _______ _______ _______ _____ _____    ______ ____
ROOT
ATOM      1  N   UNL     1       4.618   3.878  16.941  0.00  0.00    +0.000 N 
ATOM      2  C   UNL     1       5.349   4.019  18.193  0.00  0.00    +0.000 C 
ATOM      3  N   UNL     1       6.095   5.267  18.216  0.00  0.00    +0.000 NA
ATOM      4  C   UNL     1       6.568   5.625  19.568  0.00  0.00    +0.000 C 
ATOM      5  S   UNL     1       7.334   5.233  17.076  0.00  0.00    +0.000 S 
ATOM      6  O   UNL     1       7.764   6.596  16.851  0.00  0.00    +0.000 OA
ATOM      7  O   UNL     1       8.277   4.210  17.474  0.00  0.00    +0.000 OA
ATOM      8  C   UNL     1       6.532   4.656  15.625  0.00  0.00    +0.000 A 
ATOM      9  C   UNL     1       7.209   4.841  14.410  0.00  0.00    +0.000 A 
ATOM     10  C   UNL     1       6.628   4.389  13.240  0.00  0.00    +0.000 A 
ATOM     11 CL   UNL     1       7.445   4.575  11.741  0.00  0.00    +0.000 Cl
ATOM     12  C   UNL     1       5.383   3.775  13.282  0.00  0.00    +0.000 A 
ATOM     13  C   UNL     1       4.715   3.621  14.508  0.00  0.00    +0.000 A 
ATOM     14  C   UNL     1       5.269   4.054  15.727  0.00  0.00    +0.000 A 
ENDROOT
BRANCH   1  16
ATOM     15  C   UNL     1       2.516   4.776  17.854  0.00  0.00    +0.000 C 
ATOM     16  C   UNL     1       3.170   3.667  17.043  0.00  0.00    +0.000 C 
ENDBRANCH   1  16
TORSDOF 1
ENDMDL
MODEL 9
REMARK VINA RESULT:      -5.7      2.827      4.397
REMARK  Name = 
REMARK  3 active torsions:
REMARK  status: ('A' for Active; 'I' for Inactive)
REMARK    1  A    between atoms: C_1  and  C_2
REMARK    2  A    between atoms: C_2  and  N_3
REMARK    3  A    between atoms: N_5  and  C_6
REMARK                            x       y       z     vdW  Elec       q    Type
REMARK                         _______ _______ _______ _____ _____    ______ ____
ROOT
ATOM      1  N   UNL     1       4.127   4.934  17.873  0.00  0.00    +0.000 N 
ATOM      2  C   UNL     1       4.474   3.556  18.195  0.00  0.00    +0.000 C 
ATOM      3  N   UNL     1       3.277   2.769  18.446  0.00  0.00    +0.000 NA
ATOM      4  C   UNL     1       3.536   1.316  18.436  0.00  0.00    +0.000 C 
ATOM      5  S   UNL     1       2.516   3.290  19.856  0.00  0.00    +0.000 S 
ATOM      6  O   UNL     1       1.162   2.781  19.839  0.00  0.00    +0.000 OA
ATOM      7  O   UNL     1       3.401   3.015  20.967  0.00  0.00    +0.000 OA
ATOM      8  C   UNL     1       2.458   5.033  19.664  0.00  0.00    +0.000 A 
ATOM      9  C   UNL     1       1.581   5.736  20.504  0.00  0.00    +0.000 A 
ATOM     10  C   UNL     1       1.511   7.113  20.405  0.00  0.00    +0.000 A 
ATOM     11 CL   UNL     1       0.469   8.002  21.440  0.00  0.00    +0.000 Cl
ATOM     12  C   UNL     1       2.295   7.776  19.469  0.00  0.00    +0.000 A 
ATOM     13  C   UNL     1       3.148   7.049  18.623  0.00  0.00    +0.000 A 
ATOM     14  C   UNL     1       3.264   5.648  18.693  0.00  0.00    +0.000 A 
ENDROOT
BRANCH   1  16
ATOM     15  C   UNL     1       5.248   4.352  15.761  0.00  0.00    +0.000 C 
ATOM     16  C   UNL     1       4.633   5.461  16.601  0.00  0.00    +0.000 C 
ENDBRANCH   1  16
TORSDOF 1
ENDMDL
