MODEL 1
REMARK VINA RESULT:      -7.1      0.000      0.000
REMARK  Name = 
REMARK  8 active torsions:
REMARK  status: ('A' for Active; 'I' for Inactive)
REMARK    1  A    between atoms: C_1  and  N_2
REMARK    2  A    between atoms: N_2  and  C_3
REMARK    3  A    between atoms: N_2  and  C_4
REMARK    4  A    between atoms: C_4  and  C_5
REMARK    5  A    between atoms: C_5  and  C_6
REMARK    6  A    between atoms: C_6  and  N_7
REMARK    7  A    between atoms: N_7  and  C_8
REMARK    8  A    between atoms: N_20  and  C_21
REMARK                            x       y       z     vdW  Elec       q    Type
REMARK                         _______ _______ _______ _____ _____    ______ ____
ROOT
ATOM      1  C   UNL     1       3.065   6.340  19.299  0.00  0.00    +0.000 A 
ATOM      2  C   UNL     1       2.374   7.577  19.215  0.00  0.00    +0.000 A 
ATOM      3  C   UNL     1       2.555   8.366  18.076  0.00  0.00    +0.000 A 
ATOM      4  N   UNL     1       3.398   8.048  17.069  0.00  0.00    +0.000 NA
ATOM      5  C   UNL     1       4.097   6.913  17.155  0.00  0.00    +0.000 A 
ATOM      6  C   UNL     1       4.978   6.648  16.113  0.00  0.00    +0.000 A 
ATOM      7  C   UNL     1       5.752   5.491  16.073  0.00  0.00    +0.000 A 
ATOM      8  C   UNL     1       5.640   4.566  17.096  0.00  0.00    +0.000 A 
ATOM      9  C   UNL     1       4.769   4.821  18.161  0.00  0.00    +0.000 A 
ATOM     10  C   UNL     1       3.978   6.005  18.232  0.00  0.00    +0.000 A 
ATOM     11  C   UNL     1       1.855   9.694  17.935  0.00  0.00    +0.000 C 
ATOM     12  C   UNL     1       0.610   9.792  18.812  0.00  0.00    +0.000 C 
ATOM     13  N   UNL     1       0.976   9.467  20.190  0.00  0.00    +0.000 NA
ATOM     14  C   UNL     1      -0.146   9.668  21.110  0.00  0.00    +0.000 C 
ATOM     15  C   UNL     1       1.422   8.066  20.277  0.00  0.00    +0.000 C 
ENDROOT
BRANCH   1  16
ATOM     16  N   UNL     1       3.008   5.493  20.445  0.00  0.00    +0.000 N 
ATOM     17  H   UNL     1       3.748   4.803  20.416  0.00  0.00    +0.000 HD
BRANCH  16  18
ATOM     18  C   UNL     1       1.759   4.829  20.832  0.00  0.00    +0.000 C 
BRANCH  18  19
ATOM     19  C   UNL     1       2.031   3.407  21.320  0.00  0.00    +0.000 C 
BRANCH  19  20
ATOM     20  C   UNL     1       2.681   2.565  20.212  0.00  0.00    +0.000 C 
BRANCH  20  22
ATOM     21  C   UNL     1       2.792   2.033  17.839  0.00  0.00    +0.000 C 
ATOM     22  N   UNL     1       2.044   2.720  18.893  0.00  0.00    +0.000 NA
ATOM     23  C   UNL     1       0.664   2.226  18.929  0.00  0.00    +0.000 C 
ENDBRANCH  20  22
ENDBRANCH  19  20
ENDBRANCH  18  19
ENDBRANCH  16  18
ENDBRANCH   1  16
TORSDOF 5
ENDMDL
MODEL 2
REMARK VINA RESULT:      -6.9      1.611      5.899
REMARK  Name = 
REMARK  8 active torsions:
REMARK  status: ('A' for Active; 'I' for Inactive)
REMARK    1  A    between atoms: C_1  and  N_2
REMARK    2  A    between atoms: N_2  and  C_3
REMARK    3  A    between atoms: N_2  and  C_4
REMARK    4  A    between atoms: C_4  and  C_5
REMARK    5  A    between atoms: C_5  and  C_6
REMARK    6  A    between atoms: C_6  and  N_7
REMARK    7  A    between atoms: N_7  and  C_8
REMARK    8  A    between atoms: N_20  and  C_21
REMARK                            x       y       z     vdW  Elec       q    Type
REMARK                         _______ _______ _______ _____ _____    ______ ____
ROOT
ATOM      1  C   UNL     1       3.468   5.525  18.959  0.00  0.00    +0.000 A 
ATOM      2  C   UNL     1       4.651   5.500  18.175  0.00  0.00    +0.000 A 
ATOM      3  C   UNL     1       4.889   4.388  17.364  0.00  0.00    +0.000 A 
ATOM      4  N   UNL     1       4.085   3.301  17.324  0.00  0.00    +0.000 NA
ATOM      5  C   UNL     1       2.995   3.284  18.096  0.00  0.00    +0.000 A 
ATOM      6  C   UNL     1       2.221   2.131  18.048  0.00  0.00    +0.000 A 
ATOM      7  C   UNL     1       1.051   1.993  18.789  0.00  0.00    +0.000 A 
ATOM      8  C   UNL     1       0.633   3.037  19.596  0.00  0.00    +0.000 A 
ATOM      9  C   UNL     1       1.406   4.201  19.668  0.00  0.00    +0.000 A 
ATOM     10  C   UNL     1       2.615   4.360  18.931  0.00  0.00    +0.000 A 
ATOM     11  C   UNL     1       6.133   4.300  16.517  0.00  0.00    +0.000 C 
ATOM     12  C   UNL     1       6.740   5.671  16.229  0.00  0.00    +0.000 C 
ATOM     13  N   UNL     1       6.943   6.373  17.496  0.00  0.00    +0.000 NA
ATOM     14  C   UNL     1       7.643   7.644  17.304  0.00  0.00    +0.000 C 
ATOM     15  C   UNL     1       5.646   6.632  18.143  0.00  0.00    +0.000 C 
ENDROOT
BRANCH   1  16
ATOM     16  N   UNL     1       3.162   6.577  19.874  0.00  0.00    +0.000 N 
ATOM     17  H   UNL     1       2.972   6.204  20.796  0.00  0.00    +0.000 HD
BRANCH  16  18
ATOM     18  C   UNL     1       2.148   7.585  19.553  0.00  0.00    +0.000 C 
BRANCH  18  19
ATOM     19  C   UNL     1       2.231   7.988  18.081  0.00  0.00    +0.000 C 
BRANCH  19  20
ATOM     20  C   UNL     1       1.825   9.457  17.894  0.00  0.00    +0.000 C 
BRANCH  20  22
ATOM     21  C   UNL     1       1.049  11.148  19.464  0.00  0.00    +0.000 C 
ATOM     22  N   UNL     1       0.734   9.892  18.783  0.00  0.00    +0.000 NA
ATOM     23  C   UNL     1      -0.516  10.033  18.030  0.00  0.00    +0.000 C 
ENDBRANCH  20  22
ENDBRANCH  19  20
ENDBRANCH  18  19
ENDBRANCH  16  18
ENDBRANCH   1  16
TORSDOF 5
ENDMDL
MODEL 3
REMARK VINA RESULT:      -6.8      0.776      1.031
REMARK  Name = 
REMARK  8 active torsions:
REMARK  status: ('A' for Active; 'I' for Inactive)
REMARK    1  A    between atoms: C_1  and  N_2
REMARK    2  A    between atoms: N_2  and  C_3
REMARK    3  A    between atoms: N_2  and  C_4
REMARK    4  A    between atoms: C_4  and  C_5
REMARK    5  A    between atoms: C_5  and  C_6
REMARK    6  A    between atoms: C_6  and  N_7
REMARK    7  A    between atoms: N_7  and  C_8
REMARK    8  A    between atoms: N_20  and  C_21
REMARK                            x       y       z     vdW  Elec       q    Type
REMARK                         _______ _______ _______ _____ _____    ______ ____
ROOT
ATOM      1  C   UNL     1       2.977   6.278  19.648  0.00  0.00    +0.000 A 
ATOM      2  C   UNL     1       2.302   7.504  19.410  0.00  0.00    +0.000 A 
ATOM      3  C   UNL     1       2.538   8.174  18.207  0.00  0.00    +0.000 A 
ATOM      4  N   UNL     1       3.421   7.752  17.274  0.00  0.00    +0.000 NA
ATOM      5  C   UNL     1       4.105   6.628  17.504  0.00  0.00    +0.000 A 
ATOM      6  C   UNL     1       5.026   6.256  16.532  0.00  0.00    +0.000 A 
ATOM      7  C   UNL     1       5.791   5.097  16.641  0.00  0.00    +0.000 A 
ATOM      8  C   UNL     1       5.628   4.280  17.746  0.00  0.00    +0.000 A 
ATOM      9  C   UNL     1       4.714   4.645  18.741  0.00  0.00    +0.000 A 
ATOM     10  C   UNL     1       3.932   5.833  18.660  0.00  0.00    +0.000 A 
ATOM     11  C   UNL     1       1.857   9.484  17.905  0.00  0.00    +0.000 C 
ATOM     12  C   UNL     1       0.577   9.676  18.713  0.00  0.00    +0.000 C 
ATOM     13  N   UNL     1       0.881   9.488  20.131  0.00  0.00    +0.000 NA
ATOM     14  C   UNL     1      -0.277   9.786  20.977  0.00  0.00    +0.000 C 
ATOM     15  C   UNL     1       1.311   8.101  20.376  0.00  0.00    +0.000 C 
ENDROOT
BRANCH   1  16
ATOM     16  N   UNL     1       2.864   5.550  20.869  0.00  0.00    +0.000 N 
ATOM     17  H   UNL     1       3.742   5.559  21.373  0.00  0.00    +0.000 HD
BRANCH  16  18
ATOM     18  C   UNL     1       2.322   4.189  20.889  0.00  0.00    +0.000 C 
BRANCH  18  19
ATOM     19  C   UNL     1       0.981   4.129  20.160  0.00  0.00    +0.000 C 
BRANCH  19  20
ATOM     20  C   UNL     1       0.793   2.769  19.471  0.00  0.00    +0.000 C 
BRANCH  20  22
ATOM     21  C   UNL     1       1.241   4.115  17.493  0.00  0.00    +0.000 C 
ATOM     22  N   UNL     1       1.177   2.763  18.049  0.00  0.00    +0.000 NA
ATOM     23  C   UNL     1       2.466   2.089  17.868  0.00  0.00    +0.000 C 
ENDBRANCH  20  22
ENDBRANCH  19  20
ENDBRANCH  18  19
ENDBRANCH  16  18
ENDBRANCH   1  16
TORSDOF 5
ENDMDL
MODEL 4
REMARK VINA RESULT:      -6.8      1.647      6.019
REMARK  Name = 
REMARK  8 active torsions:
REMARK  status: ('A' for Active; 'I' for Inactive)
REMARK    1  A    between atoms: C_1  and  N_2
REMARK    2  A    between atoms: N_2  and  C_3
REMARK    3  A    between atoms: N_2  and  C_4
REMARK    4  A    between atoms: C_4  and  C_5
REMARK    5  A    between atoms: C_5  and  C_6
REMARK    6  A    between atoms: C_6  and  N_7
REMARK    7  A    between atoms: N_7  and  C_8
REMARK    8  A    between atoms: N_20  and  C_21
REMARK                            x       y       z     vdW  Elec       q    Type
REMARK                         _______ _______ _______ _____ _____    ______ ____
ROOT
ATOM      1  C   UNL     1       3.403   5.487  19.046  0.00  0.00    +0.000 A 
ATOM      2  C   UNL     1       4.561   5.462  18.225  0.00  0.00    +0.000 A 
ATOM      3  C   UNL     1       4.755   4.369  17.378  0.00  0.00    +0.000 A 
ATOM      4  N   UNL     1       3.931   3.299  17.333  0.00  0.00    +0.000 NA
ATOM      5  C   UNL     1       2.864   3.279  18.136  0.00  0.00    +0.000 A 
ATOM      6  C   UNL     1       2.068   2.141  18.080  0.00  0.00    +0.000 A 
ATOM      7  C   UNL     1       0.917   2.003  18.852  0.00  0.00    +0.000 A 
ATOM      8  C   UNL     1       0.543   3.031  19.699  0.00  0.00    +0.000 A 
ATOM      9  C   UNL     1       1.339   4.180  19.780  0.00  0.00    +0.000 A 
ATOM     10  C   UNL     1       2.529   4.338  19.011  0.00  0.00    +0.000 A 
ATOM     11  C   UNL     1       5.972   4.284  16.492  0.00  0.00    +0.000 C 
ATOM     12  C   UNL     1       6.594   5.651  16.223  0.00  0.00    +0.000 C 
ATOM     13  N   UNL     1       6.847   6.314  17.502  0.00  0.00    +0.000 NA
ATOM     14  C   UNL     1       7.565   7.578  17.323  0.00  0.00    +0.000 C 
ATOM     15  C   UNL     1       5.575   6.577  18.194  0.00  0.00    +0.000 C 
ENDROOT
BRANCH   1  16
ATOM     16  N   UNL     1       3.143   6.518  19.997  0.00  0.00    +0.000 N 
ATOM     17  H   UNL     1       2.940   6.122  20.906  0.00  0.00    +0.000 HD
BRANCH  16  18
ATOM     18  C   UNL     1       2.170   7.577  19.715  0.00  0.00    +0.000 C 
BRANCH  18  19
ATOM     19  C   UNL     1       1.422   7.977  20.986  0.00  0.00    +0.000 C 
BRANCH  19  20
ATOM     20  C   UNL     1       0.502   9.178  20.723  0.00  0.00    +0.000 C 
BRANCH  20  22
ATOM     21  C   UNL     1       0.960  11.565  20.871  0.00  0.00    +0.000 C 
ATOM     22  N   UNL     1       0.747  10.323  21.617  0.00  0.00    +0.000 NA
ATOM     23  C   UNL     1      -0.368  10.489  22.554  0.00  0.00    +0.000 C 
ENDBRANCH  20  22
ENDBRANCH  19  20
ENDBRANCH  18  19
ENDBRANCH  16  18
ENDBRANCH   1  16
TORSDOF 5
ENDMDL
MODEL 5
REMARK VINA RESULT:      -6.7      1.628      5.892
REMARK  Name = 
REMARK  8 active torsions:
REMARK  status: ('A' for Active; 'I' for Inactive)
REMARK    1  A    between atoms: C_1  and  N_2
REMARK    2  A    between atoms: N_2  and  C_3
REMARK    3  A    between atoms: N_2  and  C_4
REMARK    4  A    between atoms: C_4  and  C_5
REMARK    5  A    between atoms: C_5  and  C_6
REMARK    6  A    between atoms: C_6  and  N_7
REMARK    7  A    between atoms: N_7  and  C_8
REMARK    8  A    between atoms: N_20  and  C_21
REMARK                            x       y       z     vdW  Elec       q    Type
REMARK                         _______ _______ _______ _____ _____    ______ ____
ROOT
ATOM      1  C   UNL     1       3.444   5.522  18.929  0.00  0.00    +0.000 A 
ATOM      2  C   UNL     1       4.642   5.503  18.168  0.00  0.00    +0.000 A 
ATOM      3  C   UNL     1       4.914   4.381  17.380  0.00  0.00    +0.000 A 
ATOM      4  N   UNL     1       4.128   3.282  17.343  0.00  0.00    +0.000 NA
ATOM      5  C   UNL     1       3.023   3.260  18.093  0.00  0.00    +0.000 A 
ATOM      6  C   UNL     1       2.268   2.094  18.049  0.00  0.00    +0.000 A 
ATOM      7  C   UNL     1       1.086   1.949  18.770  0.00  0.00    +0.000 A 
ATOM      8  C   UNL     1       0.636   3.000  19.551  0.00  0.00    +0.000 A 
ATOM      9  C   UNL     1       1.389   4.177  19.619  0.00  0.00    +0.000 A 
ATOM     10  C   UNL     1       2.610   4.343  18.903  0.00  0.00    +0.000 A 
ATOM     11  C   UNL     1       6.176   4.300  16.559  0.00  0.00    +0.000 C 
ATOM     12  C   UNL     1       6.766   5.675  16.260  0.00  0.00    +0.000 C 
ATOM     13  N   UNL     1       6.933   6.401  17.519  0.00  0.00    +0.000 NA
ATOM     14  C   UNL     1       7.617   7.680  17.319  0.00  0.00    +0.000 C 
ATOM     15  C   UNL     1       5.620   6.649  18.136  0.00  0.00    +0.000 C 
ENDROOT
BRANCH   1  16
ATOM     16  N   UNL     1       3.104   6.584  19.819  0.00  0.00    +0.000 N 
ATOM     17  H   UNL     1       2.785   6.216  20.707  0.00  0.00    +0.000 HD
BRANCH  16  18
ATOM     18  C   UNL     1       2.201   7.659  19.401  0.00  0.00    +0.000 C 
BRANCH  18  19
ATOM     19  C   UNL     1       1.420   8.205  20.596  0.00  0.00    +0.000 C 
BRANCH  19  20
ATOM     20  C   UNL     1       0.883   9.613  20.299  0.00  0.00    +0.000 C 
BRANCH  20  22
ATOM     21  C   UNL     1      -0.501  10.092  18.355  0.00  0.00    +0.000 C 
ATOM     22  N   UNL     1       0.864   9.955  18.867  0.00  0.00    +0.000 NA
ATOM     23  C   UNL     1       1.615  11.190  18.623  0.00  0.00    +0.000 C 
ENDBRANCH  20  22
ENDBRANCH  19  20
ENDBRANCH  18  19
ENDBRANCH  16  18
ENDBRANCH   1  16
TORSDOF 5
ENDMDL
MODEL 6
REMARK VINA RESULT:      -6.7      1.119      4.518
REMARK  Name = 
REMARK  8 active torsions:
REMARK  status: ('A' for Active; 'I' for Inactive)
REMARK    1  A    between atoms: C_1  and  N_2
REMARK    2  A    between atoms: N_2  and  C_3
REMARK    3  A    between atoms: N_2  and  C_4
REMARK    4  A    between atoms: C_4  and  C_5
REMARK    5  A    between atoms: C_5  and  C_6
REMARK    6  A    between atoms: C_6  and  N_7
REMARK    7  A    between atoms: N_7  and  C_8
REMARK    8  A    between atoms: N_20  and  C_21
REMARK                            x       y       z     vdW  Elec       q    Type
REMARK                         _______ _______ _______ _____ _____    ______ ____
ROOT
ATOM      1  C   UNL     1       2.605   6.516  19.750  0.00  0.00    +0.000 A 
ATOM      2  C   UNL     1       3.375   6.415  18.562  0.00  0.00    +0.000 A 
ATOM      3  C   UNL     1       3.383   7.497  17.678  0.00  0.00    +0.000 A 
ATOM      4  N   UNL     1       2.650   8.619  17.859  0.00  0.00    +0.000 NA
ATOM      5  C   UNL     1       1.877   8.710  18.945  0.00  0.00    +0.000 A 
ATOM      6  C   UNL     1       1.116   9.866  19.067  0.00  0.00    +0.000 A 
ATOM      7  C   UNL     1       0.283  10.093  20.160  0.00  0.00    +0.000 A 
ATOM      8  C   UNL     1       0.213   9.145  21.166  0.00  0.00    +0.000 A 
ATOM      9  C   UNL     1       0.962   7.968  21.054  0.00  0.00    +0.000 A 
ATOM     10  C   UNL     1       1.809   7.707  19.938  0.00  0.00    +0.000 A 
ATOM     11  C   UNL     1       4.174   7.443  16.396  0.00  0.00    +0.000 C 
ATOM     12  C   UNL     1       5.306   6.422  16.453  0.00  0.00    +0.000 C 
ATOM     13  N   UNL     1       4.756   5.128  16.856  0.00  0.00    +0.000 NA
ATOM     14  C   UNL     1       5.768   4.071  16.805  0.00  0.00    +0.000 C 
ATOM     15  C   UNL     1       4.218   5.212  18.224  0.00  0.00    +0.000 C 
ENDROOT
BRANCH   1  16
ATOM     16  N   UNL     1       2.470   5.446  20.685  0.00  0.00    +0.000 N 
ATOM     17  H   UNL     1       3.322   4.901  20.727  0.00  0.00    +0.000 HD
BRANCH  16  18
ATOM     18  C   UNL     1       1.326   4.532  20.626  0.00  0.00    +0.000 C 
BRANCH  18  19
ATOM     19  C   UNL     1       1.644   3.221  21.342  0.00  0.00    +0.000 C 
BRANCH  19  20
ATOM     20  C   UNL     1       2.016   2.124  20.333  0.00  0.00    +0.000 C 
BRANCH  20  22
ATOM     21  C   UNL     1       4.446   2.131  20.188  0.00  0.00    +0.000 C 
ATOM     22  N   UNL     1       3.190   2.449  19.506  0.00  0.00    +0.000 NA
ATOM     23  C   UNL     1       3.126   1.741  18.224  0.00  0.00    +0.000 C 
ENDBRANCH  20  22
ENDBRANCH  19  20
ENDBRANCH  18  19
ENDBRANCH  16  18
ENDBRANCH   1  16
TORSDOF 5
ENDMDL
MODEL 7
REMARK VINA RESULT:      -6.5      1.745      5.797
REMARK  Name = 
REMARK  8 active torsions:
REMARK  status: ('A' for Active; 'I' for Inactive)
REMARK    1  A    between atoms: C_1  and  N_2
REMARK    2  A    between atoms: N_2  and  C_3
REMARK    3  A    between atoms: N_2  and  C_4
REMARK    4  A    between atoms: C_4  and  C_5
REMARK    5  A    between atoms: C_5  and  C_6
REMARK    6  A    between atoms: C_6  and  N_7
REMARK    7  A    between atoms: N_7  and  C_8
REMARK    8  A    between atoms: N_20  and  C_21
REMARK                            x       y       z     vdW  Elec       q    Type
REMARK                         _______ _______ _______ _____ _____    ______ ____
ROOT
ATOM      1  C   UNL     1       3.344   6.158  18.246  0.00  0.00    +0.000 A 
ATOM      2  C   UNL     1       3.263   5.109  19.198  0.00  0.00    +0.000 A 
ATOM      3  C   UNL     1       2.441   5.282  20.314  0.00  0.00    +0.000 A 
ATOM      4  N   UNL     1       1.758   6.420  20.573  0.00  0.00    +0.000 NA
ATOM      5  C   UNL     1       1.863   7.438  19.715  0.00  0.00    +0.000 A 
ATOM      6  C   UNL     1       1.171   8.598  20.044  0.00  0.00    +0.000 A 
ATOM      7  C   UNL     1       1.183   9.725  19.226  0.00  0.00    +0.000 A 
ATOM      8  C   UNL     1       1.898   9.694  18.041  0.00  0.00    +0.000 A 
ATOM      9  C   UNL     1       2.612   8.540  17.699  0.00  0.00    +0.000 A 
ATOM     10  C   UNL     1       2.627   7.380  18.527  0.00  0.00    +0.000 A 
ATOM     11  C   UNL     1       2.324   4.207  21.364  0.00  0.00    +0.000 C 
ATOM     12  C   UNL     1       2.702   2.828  20.830  0.00  0.00    +0.000 C 
ATOM     13  N   UNL     1       4.028   2.906  20.218  0.00  0.00    +0.000 NA
ATOM     14  C   UNL     1       4.509   1.588  19.800  0.00  0.00    +0.000 C 
ATOM     15  C   UNL     1       3.991   3.798  19.046  0.00  0.00    +0.000 C 
ENDROOT
BRANCH   1  16
ATOM     16  N   UNL     1       4.205   6.114  17.109  0.00  0.00    +0.000 N 
ATOM     17  H   UNL     1       3.820   6.660  16.348  0.00  0.00    +0.000 HD
BRANCH  16  18
ATOM     18  C   UNL     1       4.687   4.837  16.577  0.00  0.00    +0.000 C 
BRANCH  18  19
ATOM     19  C   UNL     1       6.077   4.997  15.962  0.00  0.00    +0.000 C 
BRANCH  19  20
ATOM     20  C   UNL     1       7.160   4.986  17.051  0.00  0.00    +0.000 C 
BRANCH  20  22
ATOM     21  C   UNL     1       7.639   5.713  19.324  0.00  0.00    +0.000 C 
ATOM     22  N   UNL     1       7.015   6.062  18.047  0.00  0.00    +0.000 NA
ATOM     23  C   UNL     1       7.586   7.312  17.538  0.00  0.00    +0.000 C 
ENDBRANCH  20  22
ENDBRANCH  19  20
ENDBRANCH  18  19
ENDBRANCH  16  18
ENDBRANCH   1  16
TORSDOF 5
ENDMDL
MODEL 8
REMARK VINA RESULT:      -6.5      1.716      5.826
REMARK  Name = 
REMARK  8 active torsions:
REMARK  status: ('A' for Active; 'I' for Inactive)
REMARK    1  A    between atoms: C_1  and  N_2
REMARK    2  A    between atoms: N_2  and  C_3
REMARK    3  A    between atoms: N_2  and  C_4
REMARK    4  A    between atoms: C_4  and  C_5
REMARK    5  A    between atoms: C_5  and  C_6
REMARK    6  A    between atoms: C_6  and  N_7
REMARK    7  A    between atoms: N_7  and  C_8
REMARK    8  A    between atoms: N_20  and  C_21
REMARK                            x       y       z     vdW  Elec       q    Type
REMARK                         _______ _______ _______ _____ _____    ______ ____
ROOT
ATOM      1  C   UNL     1       3.418   5.690  18.529  0.00  0.00    +0.000 A 
ATOM      2  C   UNL     1       4.738   5.667  18.008  0.00  0.00    +0.000 A 
ATOM      3  C   UNL     1       5.234   4.463  17.500  0.00  0.00    +0.000 A 
ATOM      4  N   UNL     1       4.549   3.298  17.529  0.00  0.00    +0.000 NA
ATOM      5  C   UNL     1       3.325   3.289  18.065  0.00  0.00    +0.000 A 
ATOM      6  C   UNL     1       2.676   2.061  18.104  0.00  0.00    +0.000 A 
ATOM      7  C   UNL     1       1.391   1.918  18.620  0.00  0.00    +0.000 A 
ATOM      8  C   UNL     1       0.727   3.033  19.102  0.00  0.00    +0.000 A 
ATOM      9  C   UNL     1       1.369   4.276  19.083  0.00  0.00    +0.000 A 
ATOM     10  C   UNL     1       2.690   4.444  18.575  0.00  0.00    +0.000 A 
ATOM     11  C   UNL     1       6.632   4.376  16.943  0.00  0.00    +0.000 C 
ATOM     12  C   UNL     1       7.171   5.734  16.505  0.00  0.00    +0.000 C 
ATOM     13  N   UNL     1       7.042   6.675  17.617  0.00  0.00    +0.000 NA
ATOM     14  C   UNL     1       7.660   7.966  17.309  0.00  0.00    +0.000 C 
ATOM     15  C   UNL     1       5.621   6.887  17.938  0.00  0.00    +0.000 C 
ENDROOT
BRANCH   1  16
ATOM     16  N   UNL     1       2.840   6.846  19.134  0.00  0.00    +0.000 N 
ATOM     17  H   UNL     1       2.146   6.579  19.822  0.00  0.00    +0.000 HD
BRANCH  16  18
ATOM     18  C   UNL     1       2.301   7.936  18.317  0.00  0.00    +0.000 C 
BRANCH  18  19
ATOM     19  C   UNL     1       1.501   8.913  19.178  0.00  0.00    +0.000 C 
BRANCH  19  20
ATOM     20  C   UNL     1       1.339   8.375  20.607  0.00  0.00    +0.000 C 
BRANCH  20  22
ATOM     21  C   UNL     1       0.543   9.359  22.687  0.00  0.00    +0.000 C 
ATOM     22  N   UNL     1       0.187   8.941  21.330  0.00  0.00    +0.000 NA
ATOM     23  C   UNL     1      -0.376  10.075  20.591  0.00  0.00    +0.000 C 
ENDBRANCH  20  22
ENDBRANCH  19  20
ENDBRANCH  18  19
ENDBRANCH  16  18
ENDBRANCH   1  16
TORSDOF 5
ENDMDL
MODEL 9
REMARK VINA RESULT:      -6.5      1.734      5.776
REMARK  Name = 
REMARK  8 active torsions:
REMARK  status: ('A' for Active; 'I' for Inactive)
REMARK    1  A    between atoms: C_1  and  N_2
REMARK    2  A    between atoms: N_2  and  C_3
REMARK    3  A    between atoms: N_2  and  C_4
REMARK    4  A    between atoms: C_4  and  C_5
REMARK    5  A    between atoms: C_5  and  C_6
REMARK    6  A    between atoms: C_6  and  N_7
REMARK    7  A    between atoms: N_7  and  C_8
REMARK    8  A    between atoms: N_20  and  C_21
REMARK                            x       y       z     vdW  Elec       q    Type
REMARK                         _______ _______ _______ _____ _____    ______ ____
ROOT
ATOM      1  C   UNL     1       3.024   6.373  18.346  0.00  0.00    +0.000 A 
ATOM      2  C   UNL     1       3.002   5.273  19.242  0.00  0.00    +0.000 A 
ATOM      3  C   UNL     1       2.256   5.384  20.418  0.00  0.00    +0.000 A 
ATOM      4  N   UNL     1       1.595   6.506  20.783  0.00  0.00    +0.000 NA
ATOM      5  C   UNL     1       1.648   7.570  19.978  0.00  0.00    +0.000 A 
ATOM      6  C   UNL     1       0.984   8.710  20.415  0.00  0.00    +0.000 A 
ATOM      7  C   UNL     1       0.946   9.880  19.661  0.00  0.00    +0.000 A 
ATOM      8  C   UNL     1       1.582   9.915  18.432  0.00  0.00    +0.000 A 
ATOM      9  C   UNL     1       2.267   8.781  17.981  0.00  0.00    +0.000 A 
ATOM     10  C   UNL     1       2.332   7.578  18.741  0.00  0.00    +0.000 A 
ATOM     11  C   UNL     1       2.204   4.252  21.412  0.00  0.00    +0.000 C 
ATOM     12  C   UNL     1       2.541   2.905  20.779  0.00  0.00    +0.000 C 
ATOM     13  N   UNL     1       3.824   3.017  20.086  0.00  0.00    +0.000 NA
ATOM     14  C   UNL     1       4.272   1.724  19.566  0.00  0.00    +0.000 C 
ATOM     15  C   UNL     1       3.714   3.972  18.971  0.00  0.00    +0.000 C 
ENDROOT
BRANCH   1  16
ATOM     16  N   UNL     1       3.809   6.392  17.154  0.00  0.00    +0.000 N 
ATOM     17  H   UNL     1       3.828   5.475  16.726  0.00  0.00    +0.000 HD
BRANCH  16  18
ATOM     18  C   UNL     1       5.167   6.943  17.153  0.00  0.00    +0.000 C 
BRANCH  18  19
ATOM     19  C   UNL     1       6.193   5.853  17.458  0.00  0.00    +0.000 C 
BRANCH  19  20
ATOM     20  C   UNL     1       7.243   5.763  16.340  0.00  0.00    +0.000 C 
BRANCH  20  22
ATOM     21  C   UNL     1       5.951   3.756  15.862  0.00  0.00    +0.000 C 
ATOM     22  N   UNL     1       7.132   4.548  15.515  0.00  0.00    +0.000 NA
ATOM     23  C   UNL     1       7.098   4.896  14.091  0.00  0.00    +0.000 C 
ENDBRANCH  20  22
ENDBRANCH  19  20
ENDBRANCH  18  19
ENDBRANCH  16  18
ENDBRANCH   1  16
TORSDOF 5
ENDMDL
