MODEL 1
REMARK VINA RESULT:      -7.6      0.000      0.000
REMARK  Name = 
REMARK  5 active torsions:
REMARK  status: ('A' for Active; 'I' for Inactive)
REMARK    1  A    between atoms: C_1  and  O_2
REMARK    2  A    between atoms: O_2  and  C_3
REMARK    3  A    between atoms: C_3  and  C_5
REMARK    4  A    between atoms: C_8  and  C_9
REMARK    5  A    between atoms: N_10  and  N_11
REMARK                            x       y       z     vdW  Elec       q    Type
REMARK                         _______ _______ _______ _____ _____    ______ ____
ROOT
ATOM      1  C   UNL     1       3.322   5.984  19.024  0.00  0.00    +0.000 C 
ATOM      2  N   UNL     1       2.637   7.078  19.175  0.00  0.00    +0.000 NA
ENDROOT
BRANCH   2   3
ATOM      3  N   UNL     1       2.041   7.220  20.411  0.00  0.00    +0.000 N 
ATOM      4  C   UNL     1       1.400   8.340  20.841  0.00  0.00    +0.000 A 
ATOM      5  N   UNL     1       1.376   9.546  20.318  0.00  0.00    +0.000 NA
ATOM      6  C   UNL     1       0.552  10.286  21.123  0.00  0.00    +0.000 A 
ATOM      7  C   UNL     1       0.206  11.641  21.038  0.00  0.00    +0.000 A 
ATOM      8  C   UNL     1      -0.675  12.167  21.989  0.00  0.00    +0.000 A 
ATOM      9  C   UNL     1      -1.208  11.357  22.996  0.00  0.00    +0.000 A 
ATOM     10  C   UNL     1      -0.879   9.998  23.091  0.00  0.00    +0.000 A 
ATOM     11  C   UNL     1       0.017   9.505  22.141  0.00  0.00    +0.000 A 
ATOM     12  N   UNL     1       0.572   8.268  21.934  0.00  0.00    +0.000 N 
ATOM     13  H   UNL     1       2.513   6.675  21.133  0.00  0.00    +0.000 HD
ATOM     14  H   UNL     1       0.360   7.426  22.446  0.00  0.00    +0.000 HD
ENDBRANCH   2   3
BRANCH   1  18
ATOM     15  C   UNL     1       5.539   4.870  15.548  0.00  0.00    +0.000 A 
ATOM     16  C   UNL     1       5.267   6.227  15.788  0.00  0.00    +0.000 A 
ATOM     17  C   UNL     1       4.523   6.615  16.909  0.00  0.00    +0.000 A 
ATOM     18  C   UNL     1       4.055   5.642  17.793  0.00  0.00    +0.000 A 
ATOM     19  C   UNL     1       4.308   4.287  17.552  0.00  0.00    +0.000 A 
ATOM     20  C   UNL     1       5.047   3.902  16.433  0.00  0.00    +0.000 A 
BRANCH  15  21
ATOM     21  C   UNL     1       6.360   4.502  14.359  0.00  0.00    +0.000 C 
ATOM     22  O   UNL     1       6.029   3.656  13.542  0.00  0.00    +0.000 OA
BRANCH  21  24
ATOM     23  C   UNL     1       8.042   5.421  13.012  0.00  0.00    +0.000 C 
ATOM     24  O   UNL     1       7.492   5.248  14.319  0.00  0.00    +0.000 OA
ENDBRANCH  21  24
ENDBRANCH  15  21
ENDBRANCH   1  18
TORSDOF 4
ENDMDL
MODEL 2
REMARK VINA RESULT:      -7.6      0.658      1.414
REMARK  Name = 
REMARK  5 active torsions:
REMARK  status: ('A' for Active; 'I' for Inactive)
REMARK    1  A    between atoms: C_1  and  O_2
REMARK    2  A    between atoms: O_2  and  C_3
REMARK    3  A    between atoms: C_3  and  C_5
REMARK    4  A    between atoms: C_8  and  C_9
REMARK    5  A    between atoms: N_10  and  N_11
REMARK                            x       y       z     vdW  Elec       q    Type
REMARK                         _______ _______ _______ _____ _____    ______ ____
ROOT
ATOM      1  C   UNL     1       3.135   6.106  19.315  0.00  0.00    +0.000 C 
ATOM      2  N   UNL     1       2.531   7.250  19.442  0.00  0.00    +0.000 NA
ENDROOT
BRANCH   2   3
ATOM      3  N   UNL     1       1.813   7.397  20.610  0.00  0.00    +0.000 N 
ATOM      4  C   UNL     1       1.224   8.552  21.021  0.00  0.00    +0.000 A 
ATOM      5  N   UNL     1       1.361   9.775  20.557  0.00  0.00    +0.000 NA
ATOM      6  C   UNL     1       0.517  10.553  21.301  0.00  0.00    +0.000 A 
ATOM      7  C   UNL     1       0.297  11.936  21.244  0.00  0.00    +0.000 A 
ATOM      8  C   UNL     1      -0.639  12.502  22.118  0.00  0.00    +0.000 A 
ATOM      9  C   UNL     1      -1.348  11.705  23.020  0.00  0.00    +0.000 A 
ATOM     10  C   UNL     1      -1.147  10.319  23.085  0.00  0.00    +0.000 A 
ATOM     11  C   UNL     1      -0.195   9.785  22.216  0.00  0.00    +0.000 A 
ATOM     12  N   UNL     1       0.274   8.513  22.012  0.00  0.00    +0.000 N 
ATOM     13  H   UNL     1       2.152   6.785  21.353  0.00  0.00    +0.000 HD
ATOM     14  H   UNL     1      -0.064   7.674  22.457  0.00  0.00    +0.000 HD
ENDBRANCH   2   3
BRANCH   1  18
ATOM     15  C   UNL     1       5.468   5.185  15.858  0.00  0.00    +0.000 A 
ATOM     16  C   UNL     1       5.062   4.148  16.713  0.00  0.00    +0.000 A 
ATOM     17  C   UNL     1       4.315   4.428  17.864  0.00  0.00    +0.000 A 
ATOM     18  C   UNL     1       3.972   5.748  18.156  0.00  0.00    +0.000 A 
ATOM     19  C   UNL     1       4.387   6.789  17.318  0.00  0.00    +0.000 A 
ATOM     20  C   UNL     1       5.133   6.509  16.173  0.00  0.00    +0.000 A 
BRANCH  15  21
ATOM     21  C   UNL     1       6.237   4.841  14.628  0.00  0.00    +0.000 C 
ATOM     22  O   UNL     1       7.363   5.252  14.394  0.00  0.00    +0.000 OA
BRANCH  21  24
ATOM     23  C   UNL     1       6.200   3.555  12.670  0.00  0.00    +0.000 C 
ATOM     24  O   UNL     1       5.514   4.009  13.839  0.00  0.00    +0.000 OA
ENDBRANCH  21  24
ENDBRANCH  15  21
ENDBRANCH   1  18
TORSDOF 4
ENDMDL
MODEL 3
REMARK VINA RESULT:      -7.5      0.651      1.006
REMARK  Name = 
REMARK  5 active torsions:
REMARK  status: ('A' for Active; 'I' for Inactive)
REMARK    1  A    between atoms: C_1  and  O_2
REMARK    2  A    between atoms: O_2  and  C_3
REMARK    3  A    between atoms: C_3  and  C_5
REMARK    4  A    between atoms: C_8  and  C_9
REMARK    5  A    between atoms: N_10  and  N_11
REMARK                            x       y       z     vdW  Elec       q    Type
REMARK                         _______ _______ _______ _____ _____    ______ ____
ROOT
ATOM      1  C   UNL     1       3.688   6.198  19.185  0.00  0.00    +0.000 C 
ATOM      2  N   UNL     1       2.519   6.765  19.180  0.00  0.00    +0.000 NA
ENDROOT
BRANCH   2   3
ATOM      3  N   UNL     1       1.983   6.998  20.430  0.00  0.00    +0.000 N 
ATOM      4  C   UNL     1       1.379   8.154  20.814  0.00  0.00    +0.000 A 
ATOM      5  N   UNL     1       1.347   9.324  20.214  0.00  0.00    +0.000 NA
ATOM      6  C   UNL     1       0.572  10.128  21.006  0.00  0.00    +0.000 A 
ATOM      7  C   UNL     1       0.241  11.480  20.848  0.00  0.00    +0.000 A 
ATOM      8  C   UNL     1      -0.587  12.082  21.802  0.00  0.00    +0.000 A 
ATOM      9  C   UNL     1      -1.083  11.349  22.883  0.00  0.00    +0.000 A 
ATOM     10  C   UNL     1      -0.769   9.993  23.052  0.00  0.00    +0.000 A 
ATOM     11  C   UNL     1       0.074   9.424  22.097  0.00  0.00    +0.000 A 
ATOM     12  N   UNL     1       0.602   8.167  21.947  0.00  0.00    +0.000 N 
ATOM     13  H   UNL     1       2.481   6.493  21.163  0.00  0.00    +0.000 HD
ATOM     14  H   UNL     1       0.402   7.364  22.522  0.00  0.00    +0.000 HD
ENDBRANCH   2   3
BRANCH   1  18
ATOM     15  C   UNL     1       5.895   5.103  15.697  0.00  0.00    +0.000 A 
ATOM     16  C   UNL     1       6.211   6.296  16.368  0.00  0.00    +0.000 A 
ATOM     17  C   UNL     1       5.488   6.687  17.500  0.00  0.00    +0.000 A 
ATOM     18  C   UNL     1       4.448   5.880  17.964  0.00  0.00    +0.000 A 
ATOM     19  C   UNL     1       4.115   4.698  17.292  0.00  0.00    +0.000 A 
ATOM     20  C   UNL     1       4.836   4.311  16.161  0.00  0.00    +0.000 A 
BRANCH  15  21
ATOM     21  C   UNL     1       6.709   4.709  14.512  0.00  0.00    +0.000 C 
ATOM     22  O   UNL     1       7.641   5.369  14.079  0.00  0.00    +0.000 OA
BRANCH  21  24
ATOM     23  C   UNL     1       6.140   3.491  12.593  0.00  0.00    +0.000 C 
ATOM     24  O   UNL     1       6.275   3.524  14.016  0.00  0.00    +0.000 OA
ENDBRANCH  21  24
ENDBRANCH  15  21
ENDBRANCH   1  18
TORSDOF 4
ENDMDL
MODEL 4
REMARK VINA RESULT:      -7.5      6.178      8.533
REMARK  Name = 
REMARK  5 active torsions:
REMARK  status: ('A' for Active; 'I' for Inactive)
REMARK    1  A    between atoms: C_1  and  O_2
REMARK    2  A    between atoms: O_2  and  C_3
REMARK    3  A    between atoms: C_3  and  C_5
REMARK    4  A    between atoms: C_8  and  C_9
REMARK    5  A    between atoms: N_10  and  N_11
REMARK                            x       y       z     vdW  Elec       q    Type
REMARK                         _______ _______ _______ _____ _____    ______ ____
ROOT
ATOM      1  C   UNL     1       8.241   8.375  18.151  0.00  0.00    +0.000 C 
ATOM      2  N   UNL     1       7.752   7.984  17.012  0.00  0.00    +0.000 NA
ENDROOT
BRANCH   2   3
ATOM      3  N   UNL     1       7.411   6.649  16.958  0.00  0.00    +0.000 N 
ATOM      4  C   UNL     1       6.163   6.155  17.181  0.00  0.00    +0.000 A 
ATOM      5  N   UNL     1       5.102   6.750  17.678  0.00  0.00    +0.000 NA
ATOM      6  C   UNL     1       4.103   5.815  17.652  0.00  0.00    +0.000 A 
ATOM      7  C   UNL     1       2.777   5.915  18.096  0.00  0.00    +0.000 A 
ATOM      8  C   UNL     1       1.936   4.806  17.948  0.00  0.00    +0.000 A 
ATOM      9  C   UNL     1       2.404   3.628  17.359  0.00  0.00    +0.000 A 
ATOM     10  C   UNL     1       3.724   3.513  16.902  0.00  0.00    +0.000 A 
ATOM     11  C   UNL     1       4.545   4.627  17.080  0.00  0.00    +0.000 A 
ATOM     12  N   UNL     1       5.862   4.874  16.786  0.00  0.00    +0.000 N 
ATOM     13  H   UNL     1       8.183   6.041  17.230  0.00  0.00    +0.000 HD
ATOM     14  H   UNL     1       6.490   4.255  16.298  0.00  0.00    +0.000 HD
ENDBRANCH   2   3
BRANCH   1  18
ATOM     15  C   UNL     1       9.457  12.419  18.791  0.00  0.00    +0.000 A 
ATOM     16  C   UNL     1       9.873  11.422  19.688  0.00  0.00    +0.000 A 
ATOM     17  C   UNL     1       9.470  10.093  19.512  0.00  0.00    +0.000 A 
ATOM     18  C   UNL     1       8.651   9.762  18.432  0.00  0.00    +0.000 A 
ATOM     19  C   UNL     1       8.218  10.751  17.542  0.00  0.00    +0.000 A 
ATOM     20  C   UNL     1       8.619  12.075  17.721  0.00  0.00    +0.000 A 
BRANCH  15  21
ATOM     21  C   UNL     1       9.933  13.816  18.998  0.00  0.00    +0.000 C 
ATOM     22  O   UNL     1       9.385  14.798  18.521  0.00  0.00    +0.000 OA
BRANCH  21  24
ATOM     23  C   UNL     1      11.738  15.067  19.813  0.00  0.00    +0.000 C 
ATOM     24  O   UNL     1      11.031  13.826  19.793  0.00  0.00    +0.000 OA
ENDBRANCH  21  24
ENDBRANCH  15  21
ENDBRANCH   1  18
TORSDOF 4
ENDMDL
MODEL 5
REMARK VINA RESULT:      -7.5      6.170      8.486
REMARK  Name = 
REMARK  5 active torsions:
REMARK  status: ('A' for Active; 'I' for Inactive)
REMARK    1  A    between atoms: C_1  and  O_2
REMARK    2  A    between atoms: O_2  and  C_3
REMARK    3  A    between atoms: C_3  and  C_5
REMARK    4  A    between atoms: C_8  and  C_9
REMARK    5  A    between atoms: N_10  and  N_11
REMARK                            x       y       z     vdW  Elec       q    Type
REMARK                         _______ _______ _______ _____ _____    ______ ____
ROOT
ATOM      1  C   UNL     1       8.248   8.438  18.114  0.00  0.00    +0.000 C 
ATOM      2  N   UNL     1       7.589   8.057  17.061  0.00  0.00    +0.000 NA
ENDROOT
BRANCH   2   3
ATOM      3  N   UNL     1       7.278   6.714  17.028  0.00  0.00    +0.000 N 
ATOM      4  C   UNL     1       6.039   6.197  17.244  0.00  0.00    +0.000 A 
ATOM      5  N   UNL     1       4.957   6.778  17.714  0.00  0.00    +0.000 NA
ATOM      6  C   UNL     1       3.979   5.820  17.693  0.00  0.00    +0.000 A 
ATOM      7  C   UNL     1       2.646   5.899  18.116  0.00  0.00    +0.000 A 
ATOM      8  C   UNL     1       1.832   4.769  17.979  0.00  0.00    +0.000 A 
ATOM      9  C   UNL     1       2.334   3.590  17.420  0.00  0.00    +0.000 A 
ATOM     10  C   UNL     1       3.662   3.496  16.984  0.00  0.00    +0.000 A 
ATOM     11  C   UNL     1       4.456   4.632  17.151  0.00  0.00    +0.000 A 
ATOM     12  N   UNL     1       5.771   4.902  16.871  0.00  0.00    +0.000 N 
ATOM     13  H   UNL     1       8.059   6.129  17.324  0.00  0.00    +0.000 HD
ATOM     14  H   UNL     1       6.420   4.288  16.404  0.00  0.00    +0.000 HD
ENDBRANCH   2   3
BRANCH   1  18
ATOM     15  C   UNL     1       9.410  12.451  19.002  0.00  0.00    +0.000 A 
ATOM     16  C   UNL     1       8.675  12.187  17.835  0.00  0.00    +0.000 A 
ATOM     17  C   UNL     1       8.302  10.877  17.511  0.00  0.00    +0.000 A 
ATOM     18  C   UNL     1       8.662   9.830  18.361  0.00  0.00    +0.000 A 
ATOM     19  C   UNL     1       9.408  10.082  19.517  0.00  0.00    +0.000 A 
ATOM     20  C   UNL     1       9.781  11.388  19.837  0.00  0.00    +0.000 A 
BRANCH  15  21
ATOM     21  C   UNL     1       9.762  13.863  19.325  0.00  0.00    +0.000 C 
ATOM     22  O   UNL     1       9.649  14.353  20.439  0.00  0.00    +0.000 OA
BRANCH  21  24
ATOM     23  C   UNL     1      10.790  15.787  18.470  0.00  0.00    +0.000 C 
ATOM     24  O   UNL     1      10.231  14.495  18.221  0.00  0.00    +0.000 OA
ENDBRANCH  21  24
ENDBRANCH  15  21
ENDBRANCH   1  18
TORSDOF 4
ENDMDL
MODEL 6
REMARK VINA RESULT:      -7.4      5.517     10.211
REMARK  Name = 
REMARK  5 active torsions:
REMARK  status: ('A' for Active; 'I' for Inactive)
REMARK    1  A    between atoms: C_1  and  O_2
REMARK    2  A    between atoms: O_2  and  C_3
REMARK    3  A    between atoms: C_3  and  C_5
REMARK    4  A    between atoms: C_8  and  C_9
REMARK    5  A    between atoms: N_10  and  N_11
REMARK                            x       y       z     vdW  Elec       q    Type
REMARK                         _______ _______ _______ _____ _____    ______ ____
ROOT
ATOM      1  C   UNL     1       0.869   9.201  20.531  0.00  0.00    +0.000 C 
ATOM      2  N   UNL     1       1.407   8.127  21.025  0.00  0.00    +0.000 NA
ENDROOT
BRANCH   2   3
ATOM      3  N   UNL     1       2.287   7.480  20.182  0.00  0.00    +0.000 N 
ATOM      4  C   UNL     1       2.222   6.163  19.852  0.00  0.00    +0.000 A 
ATOM      5  N   UNL     1       1.496   5.201  20.378  0.00  0.00    +0.000 NA
ATOM      6  C   UNL     1       1.782   4.077  19.650  0.00  0.00    +0.000 A 
ATOM      7  C   UNL     1       1.308   2.768  19.810  0.00  0.00    +0.000 A 
ATOM      8  C   UNL     1       1.749   1.783  18.918  0.00  0.00    +0.000 A 
ATOM      9  C   UNL     1       2.633   2.100  17.883  0.00  0.00    +0.000 A 
ATOM     10  C   UNL     1       3.111   3.406  17.704  0.00  0.00    +0.000 A 
ATOM     11  C   UNL     1       2.670   4.363  18.619  0.00  0.00    +0.000 A 
ATOM     12  N   UNL     1       2.931   5.701  18.770  0.00  0.00    +0.000 N 
ATOM     13  H   UNL     1       3.224   7.882  20.220  0.00  0.00    +0.000 HD
ATOM     14  H   UNL     1       3.488   6.273  18.155  0.00  0.00    +0.000 HD
ENDBRANCH   2   3
BRANCH   1  18
ATOM     15  C   UNL     1      -1.813  11.815  22.584  0.00  0.00    +0.000 A 
ATOM     16  C   UNL     1      -1.225  10.745  23.278  0.00  0.00    +0.000 A 
ATOM     17  C   UNL     1      -0.360   9.862  22.621  0.00  0.00    +0.000 A 
ATOM     18  C   UNL     1      -0.081  10.054  21.268  0.00  0.00    +0.000 A 
ATOM     19  C   UNL     1      -0.676  11.107  20.564  0.00  0.00    +0.000 A 
ATOM     20  C   UNL     1      -1.540  11.985  21.220  0.00  0.00    +0.000 A 
BRANCH  15  21
ATOM     21  C   UNL     1      -2.705  12.749  23.328  0.00  0.00    +0.000 C 
ATOM     22  O   UNL     1      -2.350  13.843  23.742  0.00  0.00    +0.000 OA
BRANCH  21  24
ATOM     23  C   UNL     1      -4.536  12.386  24.745  0.00  0.00    +0.000 C 
ATOM     24  O   UNL     1      -3.946  12.216  23.454  0.00  0.00    +0.000 OA
ENDBRANCH  21  24
ENDBRANCH  15  21
ENDBRANCH   1  18
TORSDOF 4
ENDMDL
MODEL 7
REMARK VINA RESULT:      -7.2      5.529     10.153
REMARK  Name = 
REMARK  5 active torsions:
REMARK  status: ('A' for Active; 'I' for Inactive)
REMARK    1  A    between atoms: C_1  and  O_2
REMARK    2  A    between atoms: O_2  and  C_3
REMARK    3  A    between atoms: C_3  and  C_5
REMARK    4  A    between atoms: C_8  and  C_9
REMARK    5  A    between atoms: N_10  and  N_11
REMARK                            x       y       z     vdW  Elec       q    Type
REMARK                         _______ _______ _______ _____ _____    ______ ____
ROOT
ATOM      1  C   UNL     1       0.883   9.366  20.550  0.00  0.00    +0.000 C 
ATOM      2  N   UNL     1       1.353   8.291  21.107  0.00  0.00    +0.000 NA
ENDROOT
BRANCH   2   3
ATOM      3  N   UNL     1       2.258   7.589  20.338  0.00  0.00    +0.000 N 
ATOM      4  C   UNL     1       2.117   6.290  19.963  0.00  0.00    +0.000 A 
ATOM      5  N   UNL     1       1.262   5.383  20.384  0.00  0.00    +0.000 NA
ATOM      6  C   UNL     1       1.526   4.255  19.655  0.00  0.00    +0.000 A 
ATOM      7  C   UNL     1       0.930   2.988  19.727  0.00  0.00    +0.000 A 
ATOM      8  C   UNL     1       1.376   1.989  18.855  0.00  0.00    +0.000 A 
ATOM      9  C   UNL     1       2.386   2.249  17.925  0.00  0.00    +0.000 A 
ATOM     10  C   UNL     1       2.988   3.512  17.834  0.00  0.00    +0.000 A 
ATOM     11  C   UNL     1       2.537   4.484  18.728  0.00  0.00    +0.000 A 
ATOM     12  N   UNL     1       2.892   5.791  18.945  0.00  0.00    +0.000 N 
ATOM     13  H   UNL     1       3.216   7.907  20.483  0.00  0.00    +0.000 HD
ATOM     14  H   UNL     1       3.556   6.326  18.407  0.00  0.00    +0.000 HD
ENDBRANCH   2   3
BRANCH   1  18
ATOM     15  C   UNL     1      -1.967  11.854  22.532  0.00  0.00    +0.000 A 
ATOM     16  C   UNL     1      -1.707  12.054  21.167  0.00  0.00    +0.000 A 
ATOM     17  C   UNL     1      -0.762  11.266  20.500  0.00  0.00    +0.000 A 
ATOM     18  C   UNL     1      -0.078  10.273  21.202  0.00  0.00    +0.000 A 
ATOM     19  C   UNL     1      -0.318  10.078  22.567  0.00  0.00    +0.000 A 
ATOM     20  C   UNL     1      -1.260  10.866  23.230  0.00  0.00    +0.000 A 
BRANCH  15  21
ATOM     21  C   UNL     1      -3.003  12.696  23.196  0.00  0.00    +0.000 C 
ATOM     22  O   UNL     1      -2.744  13.605  23.971  0.00  0.00    +0.000 OA
BRANCH  21  24
ATOM     23  C   UNL     1      -5.307  13.077  23.374  0.00  0.00    +0.000 C 
ATOM     24  O   UNL     1      -4.243  12.315  22.802  0.00  0.00    +0.000 OA
ENDBRANCH  21  24
ENDBRANCH  15  21
ENDBRANCH   1  18
TORSDOF 4
ENDMDL
MODEL 8
REMARK VINA RESULT:      -7.2      6.097      7.708
REMARK  Name = 
REMARK  5 active torsions:
REMARK  status: ('A' for Active; 'I' for Inactive)
REMARK    1  A    between atoms: C_1  and  O_2
REMARK    2  A    between atoms: O_2  and  C_3
REMARK    3  A    between atoms: C_3  and  C_5
REMARK    4  A    between atoms: C_8  and  C_9
REMARK    5  A    between atoms: N_10  and  N_11
REMARK                            x       y       z     vdW  Elec       q    Type
REMARK                         _______ _______ _______ _____ _____    ______ ____
ROOT
ATOM      1  C   UNL     1       6.398   7.113  17.300  0.00  0.00    +0.000 C 
ATOM      2  N   UNL     1       7.533   7.471  17.820  0.00  0.00    +0.000 NA
ENDROOT
BRANCH   2   3
ATOM      3  N   UNL     1       8.022   8.678  17.365  0.00  0.00    +0.000 N 
ATOM      4  C   UNL     1       8.635   9.611  18.141  0.00  0.00    +0.000 A 
ATOM      5  N   UNL     1       8.716   9.691  19.451  0.00  0.00    +0.000 NA
ATOM      6  C   UNL     1       9.475  10.800  19.711  0.00  0.00    +0.000 A 
ATOM      7  C   UNL     1       9.841  11.361  20.942  0.00  0.00    +0.000 A 
ATOM      8  C   UNL     1      10.642  12.508  20.943  0.00  0.00    +0.000 A 
ATOM      9  C   UNL     1      11.078  13.077  19.743  0.00  0.00    +0.000 A 
ATOM     10  C   UNL     1      10.728  12.525  18.504  0.00  0.00    +0.000 A 
ATOM     11  C   UNL     1       9.913  11.393  18.532  0.00  0.00    +0.000 A 
ATOM     12  N   UNL     1       9.365  10.612  17.547  0.00  0.00    +0.000 N 
ATOM     13  H   UNL     1       7.485   9.040  16.577  0.00  0.00    +0.000 HD
ATOM     14  H   UNL     1       9.524  10.703  16.556  0.00  0.00    +0.000 HD
ENDBRANCH   2   3
BRANCH   1  18
ATOM     15  C   UNL     1       4.193   3.587  18.274  0.00  0.00    +0.000 A 
ATOM     16  C   UNL     1       5.129   4.092  19.191  0.00  0.00    +0.000 A 
ATOM     17  C   UNL     1       5.879   5.233  18.886  0.00  0.00    +0.000 A 
ATOM     18  C   UNL     1       5.689   5.872  17.660  0.00  0.00    +0.000 A 
ATOM     19  C   UNL     1       4.770   5.366  16.733  0.00  0.00    +0.000 A 
ATOM     20  C   UNL     1       4.025   4.227  17.039  0.00  0.00    +0.000 A 
BRANCH  15  21
ATOM     21  C   UNL     1       3.394   2.386  18.651  0.00  0.00    +0.000 C 
ATOM     22  O   UNL     1       3.716   1.241  18.373  0.00  0.00    +0.000 OA
BRANCH  21  24
ATOM     23  C   UNL     1       1.054   2.350  18.759  0.00  0.00    +0.000 C 
ATOM     24  O   UNL     1       2.291   2.755  19.348  0.00  0.00    +0.000 OA
ENDBRANCH  21  24
ENDBRANCH  15  21
ENDBRANCH   1  18
TORSDOF 4
ENDMDL
MODEL 9
REMARK VINA RESULT:      -7.1      4.740      9.846
REMARK  Name = 
REMARK  5 active torsions:
REMARK  status: ('A' for Active; 'I' for Inactive)
REMARK    1  A    between atoms: C_1  and  O_2
REMARK    2  A    between atoms: O_2  and  C_3
REMARK    3  A    between atoms: C_3  and  C_5
REMARK    4  A    between atoms: C_8  and  C_9
REMARK    5  A    between atoms: N_10  and  N_11
REMARK                            x       y       z     vdW  Elec       q    Type
REMARK                         _______ _______ _______ _____ _____    ______ ____
ROOT
ATOM      1  C   UNL     1       1.554   8.089  21.372  0.00  0.00    +0.000 C 
ATOM      2  N   UNL     1       1.732   7.534  20.211  0.00  0.00    +0.000 NA
ENDROOT
BRANCH   2   3
ATOM      3  N   UNL     1       2.625   6.482  20.204  0.00  0.00    +0.000 N 
ATOM      4  C   UNL     1       3.480   6.195  19.186  0.00  0.00    +0.000 A 
ATOM      5  N   UNL     1       3.519   6.673  17.962  0.00  0.00    +0.000 NA
ATOM      6  C   UNL     1       4.596   6.078  17.363  0.00  0.00    +0.000 A 
ATOM      7  C   UNL     1       5.070   6.209  16.051  0.00  0.00    +0.000 A 
ATOM      8  C   UNL     1       6.213   5.492  15.677  0.00  0.00    +0.000 A 
ATOM      9  C   UNL     1       6.875   4.673  16.596  0.00  0.00    +0.000 A 
ATOM     10  C   UNL     1       6.420   4.537  17.915  0.00  0.00    +0.000 A 
ATOM     11  C   UNL     1       5.267   5.247  18.254  0.00  0.00    +0.000 A 
ATOM     12  N   UNL     1       4.535   5.344  19.409  0.00  0.00    +0.000 N 
ATOM     13  H   UNL     1       2.282   5.681  20.734  0.00  0.00    +0.000 HD
ATOM     14  H   UNL     1       4.764   4.925  20.296  0.00  0.00    +0.000 HD
ENDBRANCH   2   3
BRANCH   1  18
ATOM     15  C   UNL     1      -1.225  11.237  22.156  0.00  0.00    +0.000 A 
ATOM     16  C   UNL     1      -0.680  11.101  20.869  0.00  0.00    +0.000 A 
ATOM     17  C   UNL     1       0.249  10.091  20.593  0.00  0.00    +0.000 A 
ATOM     18  C   UNL     1       0.630   9.212  21.608  0.00  0.00    +0.000 A 
ATOM     19  C   UNL     1       0.105   9.350  22.898  0.00  0.00    +0.000 A 
ATOM     20  C   UNL     1      -0.819  10.359  23.171  0.00  0.00    +0.000 A 
BRANCH  15  21
ATOM     21  C   UNL     1      -2.233  12.307  22.400  0.00  0.00    +0.000 C 
ATOM     22  O   UNL     1      -2.228  13.387  21.828  0.00  0.00    +0.000 OA
BRANCH  21  24
ATOM     23  C   UNL     1      -4.206  12.822  23.553  0.00  0.00    +0.000 C 
ATOM     24  O   UNL     1      -3.142  11.897  23.319  0.00  0.00    +0.000 OA
ENDBRANCH  21  24
ENDBRANCH  15  21
ENDBRANCH   1  18
TORSDOF 4
ENDMDL
