MODEL 1
REMARK VINA RESULT:      -8.1      0.000      0.000
REMARK  Name = 
REMARK  6 active torsions:
REMARK  status: ('A' for Active; 'I' for Inactive)
REMARK    1  A    between atoms: C_1  and  O_2
REMARK    2  A    between atoms: O_2  and  C_3
REMARK    3  A    between atoms: C_7  and  C_8
REMARK    4  A    between atoms: C_8  and  N_9
REMARK    5  A    between atoms: C_11  and  C_12
REMARK    6  A    between atoms: C_12  and  O_14
REMARK                            x       y       z     vdW  Elec       q    Type
REMARK                         _______ _______ _______ _____ _____    ______ ____
ROOT
ATOM      1  N   UNL     1       5.837   4.898  16.727  0.00  0.00    +0.000 N 
ATOM      2  N   UNL     1       5.198   3.716  17.097  0.00  0.00    +0.000 NA
ATOM      3  C   UNL     1       4.066   3.834  17.743  0.00  0.00    +0.000 A 
ATOM      4  C   UNL     1       3.526   5.118  18.198  0.00  0.00    +0.000 A 
ATOM      5  C   UNL     1       2.622   5.271  19.254  0.00  0.00    +0.000 A 
ATOM      6  C   UNL     1       2.095   6.534  19.520  0.00  0.00    +0.000 A 
ATOM      7  C   UNL     1       2.442   7.630  18.721  0.00  0.00    +0.000 A 
ATOM      8  C   UNL     1       3.365   7.474  17.688  0.00  0.00    +0.000 A 
ATOM      9  C   UNL     1       3.940   6.224  17.464  0.00  0.00    +0.000 A 
ATOM     10  C   UNL     1       5.058   6.051  16.514  0.00  0.00    +0.000 A 
ATOM     11  O   UNL     1       5.270   6.905  15.663  0.00  0.00    +0.000 OA
ENDROOT
BRANCH   3  12
ATOM     12  C   UNL     1       3.210   2.564  17.813  0.00  0.00    +0.000 C 
ATOM     13  O   UNL     1       2.092   2.454  17.355  0.00  0.00    +0.000 OA
BRANCH  12  14
ATOM     14  O   UNL     1       3.932   1.559  18.350  0.00  0.00    +0.000 OA
ATOM     15  H   UNL     1       4.690   1.943  18.849  0.00  0.00    +0.000 HD
ENDBRANCH  12  14
ENDBRANCH   3  12
BRANCH   1  16
ATOM     16  C   UNL     1       7.097   4.773  15.981  0.00  0.00    +0.000 C 
BRANCH  16  21
ATOM     17  C   UNL     1       6.103   3.428  12.528  0.00  0.00    +0.000 A 
ATOM     18  C   UNL     1       6.915   4.192  11.694  0.00  0.00    +0.000 A 
ATOM     19  C   UNL     1       7.744   5.179  12.226  0.00  0.00    +0.000 A 
ATOM     20  C   UNL     1       7.776   5.399  13.605  0.00  0.00    +0.000 A 
ATOM     21  C   UNL     1       6.972   4.645  14.470  0.00  0.00    +0.000 A 
ATOM     22  C   UNL     1       6.120   3.666  13.909  0.00  0.00    +0.000 A 
BRANCH  17  24
ATOM     23  C   UNL     1       6.065   1.409  11.254  0.00  0.00    +0.000 C 
ATOM     24  O   UNL     1       5.364   2.479  11.874  0.00  0.00    +0.000 OA
ENDBRANCH  17  24
ENDBRANCH  16  21
ENDBRANCH   1  16
TORSDOF 5
ENDMDL
MODEL 2
REMARK VINA RESULT:      -7.8      2.367      6.688
REMARK  Name = 
REMARK  6 active torsions:
REMARK  status: ('A' for Active; 'I' for Inactive)
REMARK    1  A    between atoms: C_1  and  O_2
REMARK    2  A    between atoms: O_2  and  C_3
REMARK    3  A    between atoms: C_7  and  C_8
REMARK    4  A    between atoms: C_8  and  N_9
REMARK    5  A    between atoms: C_11  and  C_12
REMARK    6  A    between atoms: C_12  and  O_14
REMARK                            x       y       z     vdW  Elec       q    Type
REMARK                         _______ _______ _______ _____ _____    ______ ____
ROOT
ATOM      1  N   UNL     1       4.640   3.881  17.252  0.00  0.00    +0.000 N 
ATOM      2  N   UNL     1       5.074   4.053  15.939  0.00  0.00    +0.000 NA
ATOM      3  C   UNL     1       6.097   4.848  15.754  0.00  0.00    +0.000 A 
ATOM      4  C   UNL     1       6.701   5.647  16.824  0.00  0.00    +0.000 A 
ATOM      5  C   UNL     1       7.441   6.816  16.622  0.00  0.00    +0.000 A 
ATOM      6  C   UNL     1       8.061   7.426  17.712  0.00  0.00    +0.000 A 
ATOM      7  C   UNL     1       7.970   6.859  18.988  0.00  0.00    +0.000 A 
ATOM      8  C   UNL     1       7.208   5.707  19.185  0.00  0.00    +0.000 A 
ATOM      9  C   UNL     1       6.536   5.135  18.106  0.00  0.00    +0.000 A 
ATOM     10  C   UNL     1       5.569   4.035  18.298  0.00  0.00    +0.000 A 
ATOM     11  O   UNL     1       5.591   3.380  19.331  0.00  0.00    +0.000 OA
ENDROOT
BRANCH   3  12
ATOM     12  C   UNL     1       6.781   4.738  14.387  0.00  0.00    +0.000 C 
ATOM     13  O   UNL     1       7.628   5.500  13.971  0.00  0.00    +0.000 OA
BRANCH  12  14
ATOM     14  O   UNL     1       6.389   3.602  13.773  0.00  0.00    +0.000 OA
ATOM     15  H   UNL     1       6.353   2.877  14.439  0.00  0.00    +0.000 HD
ENDBRANCH  12  14
ENDBRANCH   3  12
BRANCH   1  16
ATOM     16  C   UNL     1       3.506   2.972  17.468  0.00  0.00    +0.000 C 
BRANCH  16  21
ATOM     17  C   UNL     1       1.699   4.992  20.184  0.00  0.00    +0.000 A 
ATOM     18  C   UNL     1       1.089   3.978  20.917  0.00  0.00    +0.000 A 
ATOM     19  C   UNL     1       1.205   2.648  20.515  0.00  0.00    +0.000 A 
ATOM     20  C   UNL     1       1.950   2.321  19.380  0.00  0.00    +0.000 A 
ATOM     21  C   UNL     1       2.578   3.319  18.623  0.00  0.00    +0.000 A 
ATOM     22  C   UNL     1       2.427   4.664  19.032  0.00  0.00    +0.000 A 
BRANCH  17  24
ATOM     23  C   UNL     1       2.075   7.342  19.991  0.00  0.00    +0.000 C 
ATOM     24  O   UNL     1       1.526   6.245  20.708  0.00  0.00    +0.000 OA
ENDBRANCH  17  24
ENDBRANCH  16  21
ENDBRANCH   1  16
TORSDOF 5
ENDMDL
MODEL 3
REMARK VINA RESULT:      -7.6      2.240      7.026
REMARK  Name = 
REMARK  6 active torsions:
REMARK  status: ('A' for Active; 'I' for Inactive)
REMARK    1  A    between atoms: C_1  and  O_2
REMARK    2  A    between atoms: O_2  and  C_3
REMARK    3  A    between atoms: C_7  and  C_8
REMARK    4  A    between atoms: C_8  and  N_9
REMARK    5  A    between atoms: C_11  and  C_12
REMARK    6  A    between atoms: C_12  and  O_14
REMARK                            x       y       z     vdW  Elec       q    Type
REMARK                         _______ _______ _______ _____ _____    ______ ____
ROOT
ATOM      1  N   UNL     1       5.386   3.786  18.272  0.00  0.00    +0.000 N 
ATOM      2  N   UNL     1       6.282   4.813  18.564  0.00  0.00    +0.000 NA
ATOM      3  C   UNL     1       6.863   5.397  17.548  0.00  0.00    +0.000 A 
ATOM      4  C   UNL     1       6.717   4.939  16.163  0.00  0.00    +0.000 A 
ATOM      5  C   UNL     1       7.635   5.196  15.140  0.00  0.00    +0.000 A 
ATOM      6  C   UNL     1       7.330   4.802  13.837  0.00  0.00    +0.000 A 
ATOM      7  C   UNL     1       6.107   4.186  13.551  0.00  0.00    +0.000 A 
ATOM      8  C   UNL     1       5.208   3.910  14.582  0.00  0.00    +0.000 A 
ATOM      9  C   UNL     1       5.543   4.245  15.892  0.00  0.00    +0.000 A 
ATOM     10  C   UNL     1       4.717   3.804  17.034  0.00  0.00    +0.000 A 
ATOM     11  O   UNL     1       3.563   3.442  16.845  0.00  0.00    +0.000 OA
ENDROOT
BRANCH   3  12
ATOM     12  C   UNL     1       7.542   6.737  17.854  0.00  0.00    +0.000 C 
ATOM     13  O   UNL     1       7.378   7.759  17.222  0.00  0.00    +0.000 OA
BRANCH  12  14
ATOM     14  O   UNL     1       8.249   6.636  18.999  0.00  0.00    +0.000 OA
ATOM     15  H   UNL     1       9.141   7.029  18.857  0.00  0.00    +0.000 HD
ENDBRANCH  12  14
ENDBRANCH   3  12
BRANCH   1  16
ATOM     16  C   UNL     1       4.713   3.142  19.408  0.00  0.00    +0.000 C 
BRANCH  16  21
ATOM     17  C   UNL     1       1.833   5.437  20.488  0.00  0.00    +0.000 A 
ATOM     18  C   UNL     1       0.780   4.531  20.573  0.00  0.00    +0.000 A 
ATOM     19  C   UNL     1       0.970   3.192  20.231  0.00  0.00    +0.000 A 
ATOM     20  C   UNL     1       2.227   2.747  19.815  0.00  0.00    +0.000 A 
ATOM     21  C   UNL     1       3.308   3.635  19.723  0.00  0.00    +0.000 A 
ATOM     22  C   UNL     1       3.088   4.992  20.049  0.00  0.00    +0.000 A 
BRANCH  17  24
ATOM     23  C   UNL     1       1.901   7.780  20.031  0.00  0.00    +0.000 C 
ATOM     24  O   UNL     1       1.512   6.709  20.880  0.00  0.00    +0.000 OA
ENDBRANCH  17  24
ENDBRANCH  16  21
ENDBRANCH   1  16
TORSDOF 5
ENDMDL
MODEL 4
REMARK VINA RESULT:      -7.2      1.722      3.081
REMARK  Name = 
REMARK  6 active torsions:
REMARK  status: ('A' for Active; 'I' for Inactive)
REMARK    1  A    between atoms: C_1  and  O_2
REMARK    2  A    between atoms: O_2  and  C_3
REMARK    3  A    between atoms: C_7  and  C_8
REMARK    4  A    between atoms: C_8  and  N_9
REMARK    5  A    between atoms: C_11  and  C_12
REMARK    6  A    between atoms: C_12  and  O_14
REMARK                            x       y       z     vdW  Elec       q    Type
REMARK                         _______ _______ _______ _____ _____    ______ ____
ROOT
ATOM      1  N   UNL     1       5.404   5.326  16.972  0.00  0.00    +0.000 N 
ATOM      2  N   UNL     1       4.532   6.407  17.081  0.00  0.00    +0.000 NA
ATOM      3  C   UNL     1       3.405   6.196  17.711  0.00  0.00    +0.000 A 
ATOM      4  C   UNL     1       2.975   4.873  18.174  0.00  0.00    +0.000 A 
ATOM      5  C   UNL     1       1.647   4.505  18.409  0.00  0.00    +0.000 A 
ATOM      6  C   UNL     1       1.374   3.252  18.956  0.00  0.00    +0.000 A 
ATOM      7  C   UNL     1       2.419   2.383  19.294  0.00  0.00    +0.000 A 
ATOM      8  C   UNL     1       3.739   2.748  19.032  0.00  0.00    +0.000 A 
ATOM      9  C   UNL     1       4.006   3.974  18.426  0.00  0.00    +0.000 A 
ATOM     10  C   UNL     1       5.362   4.320  17.955  0.00  0.00    +0.000 A 
ATOM     11  O   UNL     1       6.330   3.707  18.386  0.00  0.00    +0.000 OA
ENDROOT
BRANCH   3  12
ATOM     12  C   UNL     1       2.640   7.453  18.141  0.00  0.00    +0.000 C 
ATOM     13  O   UNL     1       2.232   7.668  19.262  0.00  0.00    +0.000 OA
BRANCH  12  14
ATOM     14  O   UNL     1       2.600   8.331  17.117  0.00  0.00    +0.000 OA
ATOM     15  H   UNL     1       1.764   8.849  17.176  0.00  0.00    +0.000 HD
ENDBRANCH  12  14
ENDBRANCH   3  12
BRANCH   1  16
ATOM     16  C   UNL     1       6.682   5.564  16.286  0.00  0.00    +0.000 C 
BRANCH  16  21
ATOM     17  C   UNL     1       5.961   3.707  13.007  0.00  0.00    +0.000 A 
ATOM     18  C   UNL     1       6.988   4.178  12.195  0.00  0.00    +0.000 A 
ATOM     19  C   UNL     1       7.884   5.135  12.673  0.00  0.00    +0.000 A 
ATOM     20  C   UNL     1       7.765   5.617  13.979  0.00  0.00    +0.000 A 
ATOM     21  C   UNL     1       6.742   5.159  14.820  0.00  0.00    +0.000 A 
ATOM     22  C   UNL     1       5.830   4.208  14.309  0.00  0.00    +0.000 A 
BRANCH  17  24
ATOM     23  C   UNL     1       5.782   1.899  11.457  0.00  0.00    +0.000 C 
ATOM     24  O   UNL     1       5.176   2.752  12.419  0.00  0.00    +0.000 OA
ENDBRANCH  17  24
ENDBRANCH  16  21
ENDBRANCH   1  16
TORSDOF 5
ENDMDL
MODEL 5
REMARK VINA RESULT:      -7.2      6.253      9.376
REMARK  Name = 
REMARK  6 active torsions:
REMARK  status: ('A' for Active; 'I' for Inactive)
REMARK    1  A    between atoms: C_1  and  O_2
REMARK    2  A    between atoms: O_2  and  C_3
REMARK    3  A    between atoms: C_7  and  C_8
REMARK    4  A    between atoms: C_8  and  N_9
REMARK    5  A    between atoms: C_11  and  C_12
REMARK    6  A    between atoms: C_12  and  O_14
REMARK                            x       y       z     vdW  Elec       q    Type
REMARK                         _______ _______ _______ _____ _____    ______ ____
ROOT
ATOM      1  N   UNL     1       0.254  10.341  19.126  0.00  0.00    +0.000 N 
ATOM      2  N   UNL     1       0.152  10.229  20.511  0.00  0.00    +0.000 NA
ATOM      3  C   UNL     1       0.746   9.203  21.066  0.00  0.00    +0.000 A 
ATOM      4  C   UNL     1       1.381   8.127  20.300  0.00  0.00    +0.000 A 
ATOM      5  C   UNL     1       1.598   6.831  20.779  0.00  0.00    +0.000 A 
ATOM      6  C   UNL     1       2.313   5.927  19.995  0.00  0.00    +0.000 A 
ATOM      7  C   UNL     1       2.835   6.319  18.757  0.00  0.00    +0.000 A 
ATOM      8  C   UNL     1       2.590   7.605  18.275  0.00  0.00    +0.000 A 
ATOM      9  C   UNL     1       1.821   8.487  19.031  0.00  0.00    +0.000 A 
ATOM     10  C   UNL     1       1.376   9.784  18.482  0.00  0.00    +0.000 A 
ATOM     11  O   UNL     1       1.945  10.260  17.509  0.00  0.00    +0.000 OA
ENDROOT
BRANCH   3  12
ATOM     12  C   UNL     1       0.938   9.292  22.584  0.00  0.00    +0.000 C 
ATOM     13  O   UNL     1       0.045   9.229  23.402  0.00  0.00    +0.000 OA
BRANCH  12  14
ATOM     14  O   UNL     1       2.255   9.328  22.874  0.00  0.00    +0.000 OA
ATOM     15  H   UNL     1       2.705   9.928  22.235  0.00  0.00    +0.000 HD
ENDBRANCH  12  14
ENDBRANCH   3  12
BRANCH   1  16
ATOM     16  C   UNL     1      -0.391  11.503  18.500  0.00  0.00    +0.000 C 
BRANCH  16  21
ATOM     17  C   UNL     1      -3.549  10.736  16.461  0.00  0.00    +0.000 A 
ATOM     18  C   UNL     1      -4.540  11.260  17.286  0.00  0.00    +0.000 A 
ATOM     19  C   UNL     1      -4.210  11.811  18.524  0.00  0.00    +0.000 A 
ATOM     20  C   UNL     1      -2.877  11.855  18.939  0.00  0.00    +0.000 A 
ATOM     21  C   UNL     1      -1.857  11.338  18.129  0.00  0.00    +0.000 A 
ATOM     22  C   UNL     1      -2.215  10.761  16.889  0.00  0.00    +0.000 A 
BRANCH  17  24
ATOM     23  C   UNL     1      -3.075  10.105  14.207  0.00  0.00    +0.000 C 
ATOM     24  O   UNL     1      -4.012  10.255  15.265  0.00  0.00    +0.000 OA
ENDBRANCH  17  24
ENDBRANCH  16  21
ENDBRANCH   1  16
TORSDOF 5
ENDMDL
MODEL 6
REMARK VINA RESULT:      -7.2      2.659      4.123
REMARK  Name = 
REMARK  6 active torsions:
REMARK  status: ('A' for Active; 'I' for Inactive)
REMARK    1  A    between atoms: C_1  and  O_2
REMARK    2  A    between atoms: O_2  and  C_3
REMARK    3  A    between atoms: C_7  and  C_8
REMARK    4  A    between atoms: C_8  and  N_9
REMARK    5  A    between atoms: C_11  and  C_12
REMARK    6  A    between atoms: C_12  and  O_14
REMARK                            x       y       z     vdW  Elec       q    Type
REMARK                         _______ _______ _______ _____ _____    ______ ____
ROOT
ATOM      1  N   UNL     1       4.561   5.665  18.549  0.00  0.00    +0.000 N 
ATOM      2  N   UNL     1       3.660   6.691  18.830  0.00  0.00    +0.000 NA
ATOM      3  C   UNL     1       2.590   6.368  19.511  0.00  0.00    +0.000 A 
ATOM      4  C   UNL     1       2.244   4.988  19.863  0.00  0.00    +0.000 A 
ATOM      5  C   UNL     1       0.950   4.541  20.149  0.00  0.00    +0.000 A 
ATOM      6  C   UNL     1       0.763   3.228  20.580  0.00  0.00    +0.000 A 
ATOM      7  C   UNL     1       1.861   2.377  20.754  0.00  0.00    +0.000 A 
ATOM      8  C   UNL     1       3.145   2.823  20.441  0.00  0.00    +0.000 A 
ATOM      9  C   UNL     1       3.322   4.114  19.949  0.00  0.00    +0.000 A 
ATOM     10  C   UNL     1       4.627   4.565  19.424  0.00  0.00    +0.000 A 
ATOM     11  O   UNL     1       5.645   3.953  19.721  0.00  0.00    +0.000 OA
ENDROOT
BRANCH   3  12
ATOM     12  C   UNL     1       1.814   7.542  20.120  0.00  0.00    +0.000 C 
ATOM     13  O   UNL     1       1.445   7.606  21.273  0.00  0.00    +0.000 OA
BRANCH  12  14
ATOM     14  O   UNL     1       1.713   8.537  19.215  0.00  0.00    +0.000 OA
ATOM     15  H   UNL     1       1.790   9.401  19.682  0.00  0.00    +0.000 HD
ENDBRANCH  12  14
ENDBRANCH   3  12
BRANCH   1  16
ATOM     16  C   UNL     1       5.775   6.027  17.806  0.00  0.00    +0.000 C 
BRANCH  16  21
ATOM     17  C   UNL     1       7.189   5.136  14.352  0.00  0.00    +0.000 A 
ATOM     18  C   UNL     1       6.273   4.182  13.920  0.00  0.00    +0.000 A 
ATOM     19  C   UNL     1       5.229   3.777  14.752  0.00  0.00    +0.000 A 
ATOM     20  C   UNL     1       5.088   4.339  16.023  0.00  0.00    +0.000 A 
ATOM     21  C   UNL     1       5.994   5.303  16.485  0.00  0.00    +0.000 A 
ATOM     22  C   UNL     1       7.058   5.682  15.636  0.00  0.00    +0.000 A 
BRANCH  17  24
ATOM     23  C   UNL     1       7.792   5.341  12.051  0.00  0.00    +0.000 C 
ATOM     24  O   UNL     1       8.142   5.459  13.423  0.00  0.00    +0.000 OA
ENDBRANCH  17  24
ENDBRANCH  16  21
ENDBRANCH   1  16
TORSDOF 5
ENDMDL
MODEL 7
REMARK VINA RESULT:      -7.1      3.662      7.383
REMARK  Name = 
REMARK  6 active torsions:
REMARK  status: ('A' for Active; 'I' for Inactive)
REMARK    1  A    between atoms: C_1  and  O_2
REMARK    2  A    between atoms: O_2  and  C_3
REMARK    3  A    between atoms: C_7  and  C_8
REMARK    4  A    between atoms: C_8  and  N_9
REMARK    5  A    between atoms: C_11  and  C_12
REMARK    6  A    between atoms: C_12  and  O_14
REMARK                            x       y       z     vdW  Elec       q    Type
REMARK                         _______ _______ _______ _____ _____    ______ ____
ROOT
ATOM      1  N   UNL     1       3.286   6.484  18.065  0.00  0.00    +0.000 N 
ATOM      2  N   UNL     1       4.643   6.183  17.968  0.00  0.00    +0.000 NA
ATOM      3  C   UNL     1       5.015   4.995  18.373  0.00  0.00    +0.000 A 
ATOM      4  C   UNL     1       4.112   4.046  19.029  0.00  0.00    +0.000 A 
ATOM      5  C   UNL     1       4.523   3.013  19.876  0.00  0.00    +0.000 A 
ATOM      6  C   UNL     1       3.576   2.105  20.351  0.00  0.00    +0.000 A 
ATOM      7  C   UNL     1       2.236   2.209  19.960  0.00  0.00    +0.000 A 
ATOM      8  C   UNL     1       1.830   3.260  19.137  0.00  0.00    +0.000 A 
ATOM      9  C   UNL     1       2.766   4.202  18.716  0.00  0.00    +0.000 A 
ATOM     10  C   UNL     1       2.354   5.431  18.007  0.00  0.00    +0.000 A 
ATOM     11  O   UNL     1       1.252   5.485  17.476  0.00  0.00    +0.000 OA
ENDROOT
BRANCH   3  12
ATOM     12  C   UNL     1       6.413   4.553  17.925  0.00  0.00    +0.000 C 
ATOM     13  O   UNL     1       7.430   4.711  18.567  0.00  0.00    +0.000 OA
BRANCH  12  14
ATOM     14  O   UNL     1       6.322   3.856  16.773  0.00  0.00    +0.000 OA
ATOM     15  H   UNL     1       7.226   3.583  16.495  0.00  0.00    +0.000 HD
ENDBRANCH  12  14
ENDBRANCH   3  12
BRANCH   1  16
ATOM     16  C   UNL     1       2.859   7.807  17.590  0.00  0.00    +0.000 C 
BRANCH  16  21
ATOM     17  C   UNL     1       0.943   8.873  20.739  0.00  0.00    +0.000 A 
ATOM     18  C   UNL     1       0.062   9.815  20.216  0.00  0.00    +0.000 A 
ATOM     19  C   UNL     1       0.112  10.156  18.864  0.00  0.00    +0.000 A 
ATOM     20  C   UNL     1       1.040   9.541  18.021  0.00  0.00    +0.000 A 
ATOM     21  C   UNL     1       1.939   8.587  18.518  0.00  0.00    +0.000 A 
ATOM     22  C   UNL     1       1.888   8.274  19.895  0.00  0.00    +0.000 A 
BRANCH  17  24
ATOM     23  C   UNL     1      -0.126   9.459  22.792  0.00  0.00    +0.000 C 
ATOM     24  O   UNL     1       0.762   8.616  22.071  0.00  0.00    +0.000 OA
ENDBRANCH  17  24
ENDBRANCH  16  21
ENDBRANCH   1  16
TORSDOF 5
ENDMDL
MODEL 8
REMARK VINA RESULT:      -7.1      2.660      7.038
REMARK  Name = 
REMARK  6 active torsions:
REMARK  status: ('A' for Active; 'I' for Inactive)
REMARK    1  A    between atoms: C_1  and  O_2
REMARK    2  A    between atoms: O_2  and  C_3
REMARK    3  A    between atoms: C_7  and  C_8
REMARK    4  A    between atoms: C_8  and  N_9
REMARK    5  A    between atoms: C_11  and  C_12
REMARK    6  A    between atoms: C_12  and  O_14
REMARK                            x       y       z     vdW  Elec       q    Type
REMARK                         _______ _______ _______ _____ _____    ______ ____
ROOT
ATOM      1  N   UNL     1       3.541   5.276  19.090  0.00  0.00    +0.000 N 
ATOM      2  N   UNL     1       2.971   4.044  18.776  0.00  0.00    +0.000 NA
ATOM      3  C   UNL     1       3.578   3.326  17.865  0.00  0.00    +0.000 A 
ATOM      4  C   UNL     1       4.721   3.811  17.086  0.00  0.00    +0.000 A 
ATOM      5  C   UNL     1       5.096   3.318  15.833  0.00  0.00    +0.000 A 
ATOM      6  C   UNL     1       6.270   3.783  15.242  0.00  0.00    +0.000 A 
ATOM      7  C   UNL     1       7.081   4.709  15.908  0.00  0.00    +0.000 A 
ATOM      8  C   UNL     1       6.685   5.216  17.146  0.00  0.00    +0.000 A 
ATOM      9  C   UNL     1       5.480   4.798  17.706  0.00  0.00    +0.000 A 
ATOM     10  C   UNL     1       4.928   5.445  18.914  0.00  0.00    +0.000 A 
ATOM     11  O   UNL     1       5.660   6.107  19.637  0.00  0.00    +0.000 OA
ENDROOT
BRANCH   3  12
ATOM     12  C   UNL     1       3.164   1.852  17.800  0.00  0.00    +0.000 C 
ATOM     13  O   UNL     1       3.850   0.922  18.168  0.00  0.00    +0.000 OA
BRANCH  12  14
ATOM     14  O   UNL     1       1.883   1.757  17.388  0.00  0.00    +0.000 OA
ATOM     15  H   UNL     1       1.397   1.154  17.997  0.00  0.00    +0.000 HD
ENDBRANCH  12  14
ENDBRANCH   3  12
BRANCH   1  16
ATOM     16  C   UNL     1       2.878   6.075  20.129  0.00  0.00    +0.000 C 
BRANCH  16  21
ATOM     17  C   UNL     1       0.813   9.309  20.142  0.00  0.00    +0.000 A 
ATOM     18  C   UNL     1       0.911   9.700  18.810  0.00  0.00    +0.000 A 
ATOM     19  C   UNL     1       1.684   8.964  17.912  0.00  0.00    +0.000 A 
ATOM     20  C   UNL     1       2.355   7.816  18.342  0.00  0.00    +0.000 A 
ATOM     21  C   UNL     1       2.272   7.395  19.676  0.00  0.00    +0.000 A 
ATOM     22  C   UNL     1       1.504   8.169  20.575  0.00  0.00    +0.000 A 
BRANCH  17  24
ATOM     23  C   UNL     1      -0.042   9.862  22.301  0.00  0.00    +0.000 C 
ATOM     24  O   UNL     1      -0.000  10.106  20.902  0.00  0.00    +0.000 OA
ENDBRANCH  17  24
ENDBRANCH  16  21
ENDBRANCH   1  16
TORSDOF 5
ENDMDL
MODEL 9
REMARK VINA RESULT:      -7.1      6.109      9.731
REMARK  Name = 
REMARK  6 active torsions:
REMARK  status: ('A' for Active; 'I' for Inactive)
REMARK    1  A    between atoms: C_1  and  O_2
REMARK    2  A    between atoms: O_2  and  C_3
REMARK    3  A    between atoms: C_7  and  C_8
REMARK    4  A    between atoms: C_8  and  N_9
REMARK    5  A    between atoms: C_11  and  C_12
REMARK    6  A    between atoms: C_12  and  O_14
REMARK                            x       y       z     vdW  Elec       q    Type
REMARK                         _______ _______ _______ _____ _____    ______ ____
ROOT
ATOM      1  N   UNL     1       0.451  10.065  19.023  0.00  0.00    +0.000 N 
ATOM      2  N   UNL     1       0.316  10.052  20.410  0.00  0.00    +0.000 NA
ATOM      3  C   UNL     1       0.854   9.043  21.047  0.00  0.00    +0.000 A 
ATOM      4  C   UNL     1       1.458   7.891  20.370  0.00  0.00    +0.000 A 
ATOM      5  C   UNL     1       1.609   6.624  20.941  0.00  0.00    +0.000 A 
ATOM      6  C   UNL     1       2.301   5.639  20.237  0.00  0.00    +0.000 A 
ATOM      7  C   UNL     1       2.864   5.924  18.987  0.00  0.00    +0.000 A 
ATOM      8  C   UNL     1       2.685   7.183  18.414  0.00  0.00    +0.000 A 
ATOM      9  C   UNL     1       1.939   8.145  19.090  0.00  0.00    +0.000 A 
ATOM     10  C   UNL     1       1.561   9.419  18.445  0.00  0.00    +0.000 A 
ATOM     11  O   UNL     1       2.170   9.803  17.455  0.00  0.00    +0.000 OA
ENDROOT
BRANCH   3  12
ATOM     12  C   UNL     1       1.019   9.228  22.560  0.00  0.00    +0.000 C 
ATOM     13  O   UNL     1       0.110   9.221  23.363  0.00  0.00    +0.000 OA
BRANCH  12  14
ATOM     14  O   UNL     1       2.330   9.276  22.871  0.00  0.00    +0.000 OA
ATOM     15  H   UNL     1       2.454   8.922  23.782  0.00  0.00    +0.000 HD
ENDBRANCH  12  14
ENDBRANCH   3  12
BRANCH   1  16
ATOM     16  C   UNL     1      -0.131  11.207  18.305  0.00  0.00    +0.000 C 
BRANCH  16  21
ATOM     17  C   UNL     1      -3.942  11.625  18.450  0.00  0.00    +0.000 A 
ATOM     18  C   UNL     1      -4.353  10.706  17.489  0.00  0.00    +0.000 A 
ATOM     19  C   UNL     1      -3.414   9.987  16.750  0.00  0.00    +0.000 A 
ATOM     20  C   UNL     1      -2.049  10.175  16.980  0.00  0.00    +0.000 A 
ATOM     21  C   UNL     1      -1.604  11.091  17.942  0.00  0.00    +0.000 A 
ATOM     22  C   UNL     1      -2.572  11.828  18.663  0.00  0.00    +0.000 A 
BRANCH  17  24
ATOM     23  C   UNL     1      -6.179  11.508  19.275  0.00  0.00    +0.000 C 
ATOM     24  O   UNL     1      -4.969  12.236  19.117  0.00  0.00    +0.000 OA
ENDBRANCH  17  24
ENDBRANCH  16  21
ENDBRANCH   1  16
TORSDOF 5
ENDMDL
