MODEL 1
REMARK VINA RESULT:      -7.5      0.000      0.000
REMARK  Name = 
REMARK  9 active torsions:
REMARK  status: ('A' for Active; 'I' for Inactive)
REMARK    1  A    between atoms: C_1  and  O_2
REMARK    2  A    between atoms: O_2  and  C_3
REMARK    3  A    between atoms: C_6  and  C_7
REMARK    4  A    between atoms: C_9  and  C_10
REMARK    5  A    between atoms: C_18  and  O_19
REMARK    6  A    between atoms: O_19  and  C_20
REMARK    7  A    between atoms: C_20  and  C_21
REMARK    8  A    between atoms: C_21  and  C_22
REMARK    9  A    between atoms: C_22  and  N_23
REMARK                            x       y       z     vdW  Elec       q    Type
REMARK                         _______ _______ _______ _____ _____    ______ ____
ROOT
ATOM      1  C   UNL     1       2.813   3.593  21.167  0.00  0.00    +0.000 A 
ATOM      2  C   UNL     1       3.536   2.534  20.627  0.00  0.00    +0.000 A 
ATOM      3  C   UNL     1       4.332   2.731  19.495  0.00  0.00    +0.000 A 
ATOM      4  C   UNL     1       4.423   3.997  18.884  0.00  0.00    +0.000 A 
ATOM      5  C   UNL     1       3.712   5.070  19.451  0.00  0.00    +0.000 A 
ATOM      6  C   UNL     1       2.919   4.858  20.593  0.00  0.00    +0.000 A 
ENDROOT
BRANCH   4   7
ATOM      7  C   UNL     1       5.272   4.147  17.708  0.00  0.00    +0.000 A 
ATOM      8  C   UNL     1       5.071   4.054  16.351  0.00  0.00    +0.000 A 
ATOM      9  C   UNL     1       6.324   4.358  15.764  0.00  0.00    +0.000 A 
ATOM     10  N   UNL     1       7.231   4.627  16.717  0.00  0.00    +0.000 NA
ATOM     11  O   UNL     1       6.573   4.498  17.922  0.00  0.00    +0.000 OA
BRANCH   9  12
ATOM     12  C   UNL     1       6.659   4.421  14.342  0.00  0.00    +0.000 A 
ATOM     13  C   UNL     1       6.087   3.511  13.441  0.00  0.00    +0.000 A 
ATOM     14  C   UNL     1       6.429   3.539  12.088  0.00  0.00    +0.000 A 
ATOM     15  C   UNL     1       7.342   4.484  11.621  0.00  0.00    +0.000 A 
ATOM     16  C   UNL     1       7.910   5.401  12.503  0.00  0.00    +0.000 A 
ATOM     17  C   UNL     1       7.571   5.371  13.858  0.00  0.00    +0.000 A 
ENDBRANCH   9  12
ENDBRANCH   4   7
BRANCH   1  19
ATOM     18  C   UNL     1       1.101   2.270  22.112  0.00  0.00    +0.000 C 
ATOM     19  O   UNL     1       2.074   3.300  22.279  0.00  0.00    +0.000 OA
ENDBRANCH   1  19
BRANCH   5  20
ATOM     20  O   UNL     1       3.857   6.295  18.848  0.00  0.00    +0.000 OA
BRANCH  20  21
ATOM     21  C   UNL     1       2.773   6.768  18.054  0.00  0.00    +0.000 C 
BRANCH  21  22
ATOM     22  C   UNL     1       2.049   7.877  18.813  0.00  0.00    +0.000 C 
BRANCH  22  23
ATOM     23  C   UNL     1       1.822   9.104  17.923  0.00  0.00    +0.000 C 
BRANCH  23  24
ATOM     24  N   UNL     1       0.962  10.080  18.580  0.00  0.00    +0.000 NA
ATOM     25  C   UNL     1      -0.391  10.178  18.034  0.00  0.00    +0.000 C 
ATOM     26  C   UNL     1      -0.986  11.177  19.004  0.00  0.00    +0.000 C 
ATOM     27  C   UNL     1      -0.436  10.728  20.352  0.00  0.00    +0.000 C 
ATOM     28  C   UNL     1       0.798   9.888  20.017  0.00  0.00    +0.000 C 
ENDBRANCH  23  24
ENDBRANCH  22  23
ENDBRANCH  21  22
ENDBRANCH  20  21
ENDBRANCH   5  20
TORSDOF 8
ENDMDL
MODEL 2
REMARK VINA RESULT:      -7.3      3.148      8.931
REMARK  Name = 
REMARK  9 active torsions:
REMARK  status: ('A' for Active; 'I' for Inactive)
REMARK    1  A    between atoms: C_1  and  O_2
REMARK    2  A    between atoms: O_2  and  C_3
REMARK    3  A    between atoms: C_6  and  C_7
REMARK    4  A    between atoms: C_9  and  C_10
REMARK    5  A    between atoms: C_18  and  O_19
REMARK    6  A    between atoms: O_19  and  C_20
REMARK    7  A    between atoms: C_20  and  C_21
REMARK    8  A    between atoms: C_21  and  C_22
REMARK    9  A    between atoms: C_22  and  N_23
REMARK                            x       y       z     vdW  Elec       q    Type
REMARK                         _______ _______ _______ _____ _____    ______ ____
ROOT
ATOM      1  C   UNL     1       4.495   5.876  17.790  0.00  0.00    +0.000 A 
ATOM      2  C   UNL     1       4.335   7.074  17.099  0.00  0.00    +0.000 A 
ATOM      3  C   UNL     1       3.355   7.988  17.496  0.00  0.00    +0.000 A 
ATOM      4  C   UNL     1       2.519   7.723  18.598  0.00  0.00    +0.000 A 
ATOM      5  C   UNL     1       2.705   6.524  19.309  0.00  0.00    +0.000 A 
ATOM      6  C   UNL     1       3.697   5.614  18.902  0.00  0.00    +0.000 A 
ENDROOT
BRANCH   4   7
ATOM      7  C   UNL     1       1.517   8.714  18.971  0.00  0.00    +0.000 A 
ATOM      8  C   UNL     1       0.987   9.153  20.161  0.00  0.00    +0.000 A 
ATOM      9  C   UNL     1       0.071  10.177  19.809  0.00  0.00    +0.000 A 
ATOM     10  N   UNL     1       0.056  10.348  18.478  0.00  0.00    +0.000 NA
ATOM     11  O   UNL     1       0.957   9.441  17.961  0.00  0.00    +0.000 OA
BRANCH   9  12
ATOM     12  C   UNL     1      -0.752  10.991  20.701  0.00  0.00    +0.000 A 
ATOM     13  C   UNL     1      -1.696  11.884  20.173  0.00  0.00    +0.000 A 
ATOM     14  C   UNL     1      -2.459  12.693  21.016  0.00  0.00    +0.000 A 
ATOM     15  C   UNL     1      -2.292  12.611  22.398  0.00  0.00    +0.000 A 
ATOM     16  C   UNL     1      -1.366  11.721  22.937  0.00  0.00    +0.000 A 
ATOM     17  C   UNL     1      -0.598  10.914  22.094  0.00  0.00    +0.000 A 
ENDBRANCH   9  12
ENDBRANCH   4   7
BRANCH   1  19
ATOM     18  C   UNL     1       6.588   4.869  18.216  0.00  0.00    +0.000 C 
ATOM     19  O   UNL     1       5.486   5.055  17.329  0.00  0.00    +0.000 OA
ENDBRANCH   1  19
BRANCH   5  20
ATOM     20  O   UNL     1       1.894   6.320  20.399  0.00  0.00    +0.000 OA
BRANCH  20  21
ATOM     21  C   UNL     1       2.050   5.097  21.113  0.00  0.00    +0.000 C 
BRANCH  21  22
ATOM     22  C   UNL     1       0.972   4.116  20.658  0.00  0.00    +0.000 C 
BRANCH  22  23
ATOM     23  C   UNL     1       1.437   2.665  20.823  0.00  0.00    +0.000 C 
BRANCH  23  24
ATOM     24  N   UNL     1       2.036   2.160  19.593  0.00  0.00    +0.000 NA
ATOM     25  C   UNL     1       1.604   2.838  18.372  0.00  0.00    +0.000 C 
ATOM     26  C   UNL     1       2.486   2.133  17.363  0.00  0.00    +0.000 C 
ATOM     27  C   UNL     1       3.826   2.031  18.080  0.00  0.00    +0.000 C 
ATOM     28  C   UNL     1       3.495   2.182  19.566  0.00  0.00    +0.000 C 
ENDBRANCH  23  24
ENDBRANCH  22  23
ENDBRANCH  21  22
ENDBRANCH  20  21
ENDBRANCH   5  20
TORSDOF 8
ENDMDL
MODEL 3
REMARK VINA RESULT:      -7.3      4.531      7.239
REMARK  Name = 
REMARK  9 active torsions:
REMARK  status: ('A' for Active; 'I' for Inactive)
REMARK    1  A    between atoms: C_1  and  O_2
REMARK    2  A    between atoms: O_2  and  C_3
REMARK    3  A    between atoms: C_6  and  C_7
REMARK    4  A    between atoms: C_9  and  C_10
REMARK    5  A    between atoms: C_18  and  O_19
REMARK    6  A    between atoms: O_19  and  C_20
REMARK    7  A    between atoms: C_20  and  C_21
REMARK    8  A    between atoms: C_21  and  C_22
REMARK    9  A    between atoms: C_22  and  N_23
REMARK                            x       y       z     vdW  Elec       q    Type
REMARK                         _______ _______ _______ _____ _____    ______ ____
ROOT
ATOM      1  C   UNL     1       5.605   4.501  14.607  0.00  0.00    +0.000 A 
ATOM      2  C   UNL     1       6.962   4.778  14.476  0.00  0.00    +0.000 A 
ATOM      3  C   UNL     1       7.586   5.669  15.355  0.00  0.00    +0.000 A 
ATOM      4  C   UNL     1       6.861   6.296  16.387  0.00  0.00    +0.000 A 
ATOM      5  C   UNL     1       5.496   5.991  16.531  0.00  0.00    +0.000 A 
ATOM      6  C   UNL     1       4.882   5.090  15.643  0.00  0.00    +0.000 A 
ENDROOT
BRANCH   4   7
ATOM      7  C   UNL     1       7.563   7.213  17.278  0.00  0.00    +0.000 A 
ATOM      8  C   UNL     1       7.862   8.554  17.246  0.00  0.00    +0.000 A 
ATOM      9  C   UNL     1       8.540   8.817  18.463  0.00  0.00    +0.000 A 
ATOM     10  N   UNL     1       8.638   7.694  19.191  0.00  0.00    +0.000 NA
ATOM     11  O   UNL     1       8.028   6.701  18.454  0.00  0.00    +0.000 OA
BRANCH   9  12
ATOM     12  C   UNL     1       9.061  10.096  18.943  0.00  0.00    +0.000 A 
ATOM     13  C   UNL     1       9.444  11.090  18.031  0.00  0.00    +0.000 A 
ATOM     14  C   UNL     1       9.977  12.299  18.480  0.00  0.00    +0.000 A 
ATOM     15  C   UNL     1      10.126  12.529  19.847  0.00  0.00    +0.000 A 
ATOM     16  C   UNL     1       9.740  11.555  20.765  0.00  0.00    +0.000 A 
ATOM     17  C   UNL     1       9.210  10.342  20.316  0.00  0.00    +0.000 A 
ENDBRANCH   9  12
ENDBRANCH   4   7
BRANCH   1  19
ATOM     18  C   UNL     1       5.859   3.435  12.515  0.00  0.00    +0.000 C 
ATOM     19  O   UNL     1       5.092   3.611  13.705  0.00  0.00    +0.000 OA
ENDBRANCH   1  19
BRANCH   5  20
ATOM     20  O   UNL     1       4.834   6.596  17.572  0.00  0.00    +0.000 OA
BRANCH  20  21
ATOM     21  C   UNL     1       4.068   5.761  18.435  0.00  0.00    +0.000 C 
BRANCH  21  22
ATOM     22  C   UNL     1       5.018   4.889  19.254  0.00  0.00    +0.000 C 
BRANCH  22  23
ATOM     23  C   UNL     1       4.486   3.457  19.382  0.00  0.00    +0.000 C 
BRANCH  23  24
ATOM     24  N   UNL     1       3.028   3.432  19.350  0.00  0.00    +0.000 NA
ATOM     25  C   UNL     1       2.446   2.319  18.602  0.00  0.00    +0.000 C 
ATOM     26  C   UNL     1       0.977   2.567  18.877  0.00  0.00    +0.000 C 
ATOM     27  C   UNL     1       0.957   2.958  20.349  0.00  0.00    +0.000 C 
ATOM     28  C   UNL     1       2.384   3.412  20.660  0.00  0.00    +0.000 C 
ENDBRANCH  23  24
ENDBRANCH  22  23
ENDBRANCH  21  22
ENDBRANCH  20  21
ENDBRANCH   5  20
TORSDOF 8
ENDMDL
MODEL 4
REMARK VINA RESULT:      -7.3      2.154      7.437
REMARK  Name = 
REMARK  9 active torsions:
REMARK  status: ('A' for Active; 'I' for Inactive)
REMARK    1  A    between atoms: C_1  and  O_2
REMARK    2  A    between atoms: O_2  and  C_3
REMARK    3  A    between atoms: C_6  and  C_7
REMARK    4  A    between atoms: C_9  and  C_10
REMARK    5  A    between atoms: C_18  and  O_19
REMARK    6  A    between atoms: O_19  and  C_20
REMARK    7  A    between atoms: C_20  and  C_21
REMARK    8  A    between atoms: C_21  and  C_22
REMARK    9  A    between atoms: C_22  and  N_23
REMARK                            x       y       z     vdW  Elec       q    Type
REMARK                         _______ _______ _______ _____ _____    ______ ____
ROOT
ATOM      1  C   UNL     1       3.366   2.891  17.984  0.00  0.00    +0.000 A 
ATOM      2  C   UNL     1       2.046   3.323  17.897  0.00  0.00    +0.000 A 
ATOM      3  C   UNL     1       1.719   4.649  18.194  0.00  0.00    +0.000 A 
ATOM      4  C   UNL     1       2.711   5.571  18.580  0.00  0.00    +0.000 A 
ATOM      5  C   UNL     1       4.048   5.135  18.639  0.00  0.00    +0.000 A 
ATOM      6  C   UNL     1       4.363   3.800  18.333  0.00  0.00    +0.000 A 
ENDROOT
BRANCH   4   7
ATOM      7  C   UNL     1       2.315   6.943  18.874  0.00  0.00    +0.000 A 
ATOM      8  C   UNL     1       2.177   8.091  18.130  0.00  0.00    +0.000 A 
ATOM      9  C   UNL     1       1.714   9.075  19.040  0.00  0.00    +0.000 A 
ATOM     10  N   UNL     1       1.575   8.545  20.265  0.00  0.00    +0.000 NA
ATOM     11  O   UNL     1       1.946   7.221  20.158  0.00  0.00    +0.000 OA
BRANCH   9  12
ATOM     12  C   UNL     1       1.386  10.472  18.762  0.00  0.00    +0.000 A 
ATOM     13  C   UNL     1       2.360  11.336  18.240  0.00  0.00    +0.000 A 
ATOM     14  C   UNL     1       2.065  12.681  18.007  0.00  0.00    +0.000 A 
ATOM     15  C   UNL     1       0.791  13.172  18.286  0.00  0.00    +0.000 A 
ATOM     16  C   UNL     1      -0.190  12.323  18.793  0.00  0.00    +0.000 A 
ATOM     17  C   UNL     1       0.105  10.978  19.032  0.00  0.00    +0.000 A 
ENDBRANCH   9  12
ENDBRANCH   4   7
BRANCH   1  19
ATOM     18  C   UNL     1       4.050   0.758  18.733  0.00  0.00    +0.000 C 
ATOM     19  O   UNL     1       3.583   1.579  17.664  0.00  0.00    +0.000 OA
ENDBRANCH   1  19
BRANCH   5  20
ATOM     20  O   UNL     1       4.989   6.075  18.983  0.00  0.00    +0.000 OA
BRANCH  20  21
ATOM     21  C   UNL     1       6.253   5.601  19.439  0.00  0.00    +0.000 C 
BRANCH  21  22
ATOM     22  C   UNL     1       7.332   6.042  18.453  0.00  0.00    +0.000 C 
BRANCH  22  23
ATOM     23  C   UNL     1       6.735   6.865  17.306  0.00  0.00    +0.000 C 
BRANCH  23  24
ATOM     24  N   UNL     1       6.647   6.078  16.082  0.00  0.00    +0.000 NA
ATOM     25  C   UNL     1       7.136   4.705  16.194  0.00  0.00    +0.000 C 
ATOM     26  C   UNL     1       6.796   4.198  14.808  0.00  0.00    +0.000 C 
ATOM     27  C   UNL     1       5.420   4.797  14.543  0.00  0.00    +0.000 C 
ATOM     28  C   UNL     1       5.309   5.979  15.508  0.00  0.00    +0.000 C 
ENDBRANCH  23  24
ENDBRANCH  22  23
ENDBRANCH  21  22
ENDBRANCH  20  21
ENDBRANCH   5  20
TORSDOF 8
ENDMDL
MODEL 5
REMARK VINA RESULT:      -7.1      3.202      6.121
REMARK  Name = 
REMARK  9 active torsions:
REMARK  status: ('A' for Active; 'I' for Inactive)
REMARK    1  A    between atoms: C_1  and  O_2
REMARK    2  A    between atoms: O_2  and  C_3
REMARK    3  A    between atoms: C_6  and  C_7
REMARK    4  A    between atoms: C_9  and  C_10
REMARK    5  A    between atoms: C_18  and  O_19
REMARK    6  A    between atoms: O_19  and  C_20
REMARK    7  A    between atoms: C_20  and  C_21
REMARK    8  A    between atoms: C_21  and  C_22
REMARK    9  A    between atoms: C_22  and  N_23
REMARK                            x       y       z     vdW  Elec       q    Type
REMARK                         _______ _______ _______ _____ _____    ______ ____
ROOT
ATOM      1  C   UNL     1      -0.575  10.693  22.605  0.00  0.00    +0.000 A 
ATOM      2  C   UNL     1       0.245   9.740  23.204  0.00  0.00    +0.000 A 
ATOM      3  C   UNL     1       0.926   8.806  22.419  0.00  0.00    +0.000 A 
ATOM      4  C   UNL     1       0.804   8.811  21.015  0.00  0.00    +0.000 A 
ATOM      5  C   UNL     1      -0.004   9.794  20.415  0.00  0.00    +0.000 A 
ATOM      6  C   UNL     1      -0.680  10.730  21.216  0.00  0.00    +0.000 A 
ENDROOT
BRANCH   4   7
ATOM      7  C   UNL     1       1.541   7.816  20.245  0.00  0.00    +0.000 A 
ATOM      8  C   UNL     1       2.279   7.843  19.086  0.00  0.00    +0.000 A 
ATOM      9  C   UNL     1       2.759   6.520  18.916  0.00  0.00    +0.000 A 
ATOM     10  N   UNL     1       2.335   5.739  19.922  0.00  0.00    +0.000 NA
ATOM     11  O   UNL     1       1.582   6.548  20.748  0.00  0.00    +0.000 OA
BRANCH   9  12
ATOM     12  C   UNL     1       3.614   6.004  17.848  0.00  0.00    +0.000 A 
ATOM     13  C   UNL     1       3.668   4.627  17.588  0.00  0.00    +0.000 A 
ATOM     14  C   UNL     1       4.510   4.123  16.596  0.00  0.00    +0.000 A 
ATOM     15  C   UNL     1       5.302   4.993  15.847  0.00  0.00    +0.000 A 
ATOM     16  C   UNL     1       5.251   6.365  16.087  0.00  0.00    +0.000 A 
ATOM     17  C   UNL     1       4.411   6.870  17.083  0.00  0.00    +0.000 A 
ENDBRANCH   9  12
ENDBRANCH   4   7
BRANCH   1  19
ATOM     18  C   UNL     1      -1.235  12.922  23.017  0.00  0.00    +0.000 C 
ATOM     19  O   UNL     1      -1.189  11.567  23.459  0.00  0.00    +0.000 OA
ENDBRANCH   1  19
BRANCH   5  20
ATOM     20  O   UNL     1      -0.067   9.787  19.042  0.00  0.00    +0.000 OA
BRANCH  20  21
ATOM     21  C   UNL     1       0.104  11.032  18.372  0.00  0.00    +0.000 C 
BRANCH  21  22
ATOM     22  C   UNL     1      -1.267  11.572  17.972  0.00  0.00    +0.000 C 
BRANCH  22  23
ATOM     23  C   UNL     1      -2.215  10.438  17.567  0.00  0.00    +0.000 C 
BRANCH  23  24
ATOM     24  N   UNL     1      -3.609  10.824  17.752  0.00  0.00    +0.000 NA
ATOM     25  C   UNL     1      -3.843  11.799  18.816  0.00  0.00    +0.000 C 
ATOM     26  C   UNL     1      -5.331  12.018  18.639  0.00  0.00    +0.000 C 
ATOM     27  C   UNL     1      -5.500  12.066  17.125  0.00  0.00    +0.000 C 
ATOM     28  C   UNL     1      -4.261  11.366  16.564  0.00  0.00    +0.000 C 
ENDBRANCH  23  24
ENDBRANCH  22  23
ENDBRANCH  21  22
ENDBRANCH  20  21
ENDBRANCH   5  20
TORSDOF 8
ENDMDL
MODEL 6
REMARK VINA RESULT:      -7.1      2.633      8.733
REMARK  Name = 
REMARK  9 active torsions:
REMARK  status: ('A' for Active; 'I' for Inactive)
REMARK    1  A    between atoms: C_1  and  O_2
REMARK    2  A    between atoms: O_2  and  C_3
REMARK    3  A    between atoms: C_6  and  C_7
REMARK    4  A    between atoms: C_9  and  C_10
REMARK    5  A    between atoms: C_18  and  O_19
REMARK    6  A    between atoms: O_19  and  C_20
REMARK    7  A    between atoms: C_20  and  C_21
REMARK    8  A    between atoms: C_21  and  C_22
REMARK    9  A    between atoms: C_22  and  N_23
REMARK                            x       y       z     vdW  Elec       q    Type
REMARK                         _______ _______ _______ _____ _____    ______ ____
ROOT
ATOM      1  C   UNL     1       4.807   5.360  16.825  0.00  0.00    +0.000 A 
ATOM      2  C   UNL     1       5.043   6.730  16.757  0.00  0.00    +0.000 A 
ATOM      3  C   UNL     1       4.140   7.628  17.334  0.00  0.00    +0.000 A 
ATOM      4  C   UNL     1       2.984   7.170  17.995  0.00  0.00    +0.000 A 
ATOM      5  C   UNL     1       2.765   5.783  18.084  0.00  0.00    +0.000 A 
ATOM      6  C   UNL     1       3.684   4.891  17.503  0.00  0.00    +0.000 A 
ENDROOT
BRANCH   4   7
ATOM      7  C   UNL     1       2.078   8.151  18.582  0.00  0.00    +0.000 A 
ATOM      8  C   UNL     1       1.689   8.462  19.863  0.00  0.00    +0.000 A 
ATOM      9  C   UNL     1       0.802   9.560  19.729  0.00  0.00    +0.000 A 
ATOM     10  N   UNL     1       0.670   9.895  18.436  0.00  0.00    +0.000 NA
ATOM     11  O   UNL     1       1.466   9.020  17.727  0.00  0.00    +0.000 OA
BRANCH   9  12
ATOM     12  C   UNL     1       0.114  10.294  20.790  0.00  0.00    +0.000 A 
ATOM     13  C   UNL     1      -0.057   9.712  22.055  0.00  0.00    +0.000 A 
ATOM     14  C   UNL     1      -0.745  10.391  23.062  0.00  0.00    +0.000 A 
ATOM     15  C   UNL     1      -1.262  11.662  22.816  0.00  0.00    +0.000 A 
ATOM     16  C   UNL     1      -1.090  12.257  21.568  0.00  0.00    +0.000 A 
ATOM     17  C   UNL     1      -0.406  11.576  20.558  0.00  0.00    +0.000 A 
ENDBRANCH   9  12
ENDBRANCH   4   7
BRANCH   1  19
ATOM     18  C   UNL     1       7.043   4.600  16.849  0.00  0.00    +0.000 C 
ATOM     19  O   UNL     1       5.754   4.567  16.239  0.00  0.00    +0.000 OA
ENDBRANCH   1  19
BRANCH   5  20
ATOM     20  O   UNL     1       1.646   5.377  18.768  0.00  0.00    +0.000 OA
BRANCH  20  21
ATOM     21  C   UNL     1       1.771   5.184  20.174  0.00  0.00    +0.000 C 
BRANCH  21  22
ATOM     22  C   UNL     1       0.829   4.061  20.606  0.00  0.00    +0.000 C 
BRANCH  22  23
ATOM     23  C   UNL     1       1.610   2.806  21.012  0.00  0.00    +0.000 C 
BRANCH  23  24
ATOM     24  N   UNL     1       2.735   2.572  20.114  0.00  0.00    +0.000 NA
ATOM     25  C   UNL     1       3.915   1.981  20.744  0.00  0.00    +0.000 C 
ATOM     26  C   UNL     1       4.793   1.801  19.522  0.00  0.00    +0.000 C 
ATOM     27  C   UNL     1       3.819   1.306  18.460  0.00  0.00    +0.000 C 
ATOM     28  C   UNL     1       2.437   1.732  18.959  0.00  0.00    +0.000 C 
ENDBRANCH  23  24
ENDBRANCH  22  23
ENDBRANCH  21  22
ENDBRANCH  20  21
ENDBRANCH   5  20
TORSDOF 8
ENDMDL
MODEL 7
REMARK VINA RESULT:      -7.0      2.517      8.166
REMARK  Name = 
REMARK  9 active torsions:
REMARK  status: ('A' for Active; 'I' for Inactive)
REMARK    1  A    between atoms: C_1  and  O_2
REMARK    2  A    between atoms: O_2  and  C_3
REMARK    3  A    between atoms: C_6  and  C_7
REMARK    4  A    between atoms: C_9  and  C_10
REMARK    5  A    between atoms: C_18  and  O_19
REMARK    6  A    between atoms: O_19  and  C_20
REMARK    7  A    between atoms: C_20  and  C_21
REMARK    8  A    between atoms: C_21  and  C_22
REMARK    9  A    between atoms: C_22  and  N_23
REMARK                            x       y       z     vdW  Elec       q    Type
REMARK                         _______ _______ _______ _____ _____    ______ ____
ROOT
ATOM      1  C   UNL     1       5.005   5.494  17.882  0.00  0.00    +0.000 A 
ATOM      2  C   UNL     1       4.757   6.329  16.796  0.00  0.00    +0.000 A 
ATOM      3  C   UNL     1       3.759   7.305  16.874  0.00  0.00    +0.000 A 
ATOM      4  C   UNL     1       2.992   7.466  18.044  0.00  0.00    +0.000 A 
ATOM      5  C   UNL     1       3.267   6.638  19.147  0.00  0.00    +0.000 A 
ATOM      6  C   UNL     1       4.276   5.663  19.057  0.00  0.00    +0.000 A 
ENDROOT
BRANCH   4   7
ATOM      7  C   UNL     1       1.967   8.503  18.072  0.00  0.00    +0.000 A 
ATOM      8  C   UNL     1       0.604   8.521  17.897  0.00  0.00    +0.000 A 
ATOM      9  C   UNL     1       0.217   9.869  18.098  0.00  0.00    +0.000 A 
ATOM     10  N   UNL     1       1.290  10.623  18.385  0.00  0.00    +0.000 NA
ATOM     11  O   UNL     1       2.375   9.771  18.372  0.00  0.00    +0.000 OA
BRANCH   9  12
ATOM     12  C   UNL     1      -1.131  10.435  18.047  0.00  0.00    +0.000 A 
ATOM     13  C   UNL     1      -1.515  11.429  18.959  0.00  0.00    +0.000 A 
ATOM     14  C   UNL     1      -2.810  11.947  18.942  0.00  0.00    +0.000 A 
ATOM     15  C   UNL     1      -3.733  11.482  18.006  0.00  0.00    +0.000 A 
ATOM     16  C   UNL     1      -3.363  10.502  17.087  0.00  0.00    +0.000 A 
ATOM     17  C   UNL     1      -2.067   9.980  17.107  0.00  0.00    +0.000 A 
ENDBRANCH   9  12
ENDBRANCH   4   7
BRANCH   1  19
ATOM     18  C   UNL     1       6.208   4.139  16.367  0.00  0.00    +0.000 C 
ATOM     19  O   UNL     1       6.007   4.580  17.709  0.00  0.00    +0.000 OA
ENDBRANCH   1  19
BRANCH   5  20
ATOM     20  O   UNL     1       2.522   6.852  20.282  0.00  0.00    +0.000 OA
BRANCH  20  21
ATOM     21  C   UNL     1       1.378   6.027  20.481  0.00  0.00    +0.000 C 
BRANCH  21  22
ATOM     22  C   UNL     1       1.837   4.652  20.961  0.00  0.00    +0.000 C 
BRANCH  22  23
ATOM     23  C   UNL     1       0.943   3.541  20.398  0.00  0.00    +0.000 C 
BRANCH  23  24
ATOM     24  N   UNL     1       1.657   2.741  19.410  0.00  0.00    +0.000 NA
ATOM     25  C   UNL     1       1.775   3.353  18.088  0.00  0.00    +0.000 C 
ATOM     26  C   UNL     1       2.632   2.311  17.399  0.00  0.00    +0.000 C 
ATOM     27  C   UNL     1       3.650   1.933  18.468  0.00  0.00    +0.000 C 
ATOM     28  C   UNL     1       3.011   2.354  19.792  0.00  0.00    +0.000 C 
ENDBRANCH  23  24
ENDBRANCH  22  23
ENDBRANCH  21  22
ENDBRANCH  20  21
ENDBRANCH   5  20
TORSDOF 8
ENDMDL
MODEL 8
REMARK VINA RESULT:      -6.9      3.674      7.201
REMARK  Name = 
REMARK  9 active torsions:
REMARK  status: ('A' for Active; 'I' for Inactive)
REMARK    1  A    between atoms: C_1  and  O_2
REMARK    2  A    between atoms: O_2  and  C_3
REMARK    3  A    between atoms: C_6  and  C_7
REMARK    4  A    between atoms: C_9  and  C_10
REMARK    5  A    between atoms: C_18  and  O_19
REMARK    6  A    between atoms: O_19  and  C_20
REMARK    7  A    between atoms: C_20  and  C_21
REMARK    8  A    between atoms: C_21  and  C_22
REMARK    9  A    between atoms: C_22  and  N_23
REMARK                            x       y       z     vdW  Elec       q    Type
REMARK                         _______ _______ _______ _____ _____    ______ ____
ROOT
ATOM      1  C   UNL     1      -0.913  12.563  20.393  0.00  0.00    +0.000 A 
ATOM      2  C   UNL     1       0.244  12.215  21.083  0.00  0.00    +0.000 A 
ATOM      3  C   UNL     1       0.950  11.060  20.733  0.00  0.00    +0.000 A 
ATOM      4  C   UNL     1       0.513  10.234  19.680  0.00  0.00    +0.000 A 
ATOM      5  C   UNL     1      -0.641  10.606  18.968  0.00  0.00    +0.000 A 
ATOM      6  C   UNL     1      -1.340  11.772  19.328  0.00  0.00    +0.000 A 
ENDROOT
BRANCH   4   7
ATOM      7  C   UNL     1       1.291   9.044  19.354  0.00  0.00    +0.000 A 
ATOM      8  C   UNL     1       1.956   8.599  18.237  0.00  0.00    +0.000 A 
ATOM      9  C   UNL     1       2.543   7.365  18.616  0.00  0.00    +0.000 A 
ATOM     10  N   UNL     1       2.250   7.085  19.895  0.00  0.00    +0.000 NA
ATOM     11  O   UNL     1       1.475   8.131  20.352  0.00  0.00    +0.000 OA
BRANCH   9  12
ATOM     12  C   UNL     1       3.378   6.481  17.805  0.00  0.00    +0.000 A 
ATOM     13  C   UNL     1       3.182   5.092  17.843  0.00  0.00    +0.000 A 
ATOM     14  C   UNL     1       4.000   4.238  17.101  0.00  0.00    +0.000 A 
ATOM     15  C   UNL     1       5.016   4.765  16.306  0.00  0.00    +0.000 A 
ATOM     16  C   UNL     1       5.215   6.143  16.249  0.00  0.00    +0.000 A 
ATOM     17  C   UNL     1       4.401   6.998  16.996  0.00  0.00    +0.000 A 
ENDBRANCH   9  12
ENDBRANCH   4   7
BRANCH   1  19
ATOM     18  C   UNL     1      -0.736  14.898  20.699  0.00  0.00    +0.000 C 
ATOM     19  O   UNL     1      -1.525  13.714  20.805  0.00  0.00    +0.000 OA
ENDBRANCH   1  19
BRANCH   5  20
ATOM     20  O   UNL     1      -1.013   9.794  17.925  0.00  0.00    +0.000 OA
BRANCH  20  21
ATOM     21  C   UNL     1      -1.992  10.294  17.020  0.00  0.00    +0.000 C 
BRANCH  21  22
ATOM     22  C   UNL     1      -3.375   9.841  17.484  0.00  0.00    +0.000 C 
BRANCH  22  23
ATOM     23  C   UNL     1      -4.400  10.974  17.362  0.00  0.00    +0.000 C 
BRANCH  23  24
ATOM     24  N   UNL     1      -5.230  11.064  18.558  0.00  0.00    +0.000 NA
ATOM     25  C   UNL     1      -5.059  12.290  19.336  0.00  0.00    +0.000 C 
ATOM     26  C   UNL     1      -6.120  12.069  20.396  0.00  0.00    +0.000 C 
ATOM     27  C   UNL     1      -7.287  11.488  19.607  0.00  0.00    +0.000 C 
ATOM     28  C   UNL     1      -6.665  10.938  18.323  0.00  0.00    +0.000 C 
ENDBRANCH  23  24
ENDBRANCH  22  23
ENDBRANCH  21  22
ENDBRANCH  20  21
ENDBRANCH   5  20
TORSDOF 8
ENDMDL
MODEL 9
REMARK VINA RESULT:      -6.9      2.323      8.446
REMARK  Name = 
REMARK  9 active torsions:
REMARK  status: ('A' for Active; 'I' for Inactive)
REMARK    1  A    between atoms: C_1  and  O_2
REMARK    2  A    between atoms: O_2  and  C_3
REMARK    3  A    between atoms: C_6  and  C_7
REMARK    4  A    between atoms: C_9  and  C_10
REMARK    5  A    between atoms: C_18  and  O_19
REMARK    6  A    between atoms: O_19  and  C_20
REMARK    7  A    between atoms: C_20  and  C_21
REMARK    8  A    between atoms: C_21  and  C_22
REMARK    9  A    between atoms: C_22  and  N_23
REMARK                            x       y       z     vdW  Elec       q    Type
REMARK                         _______ _______ _______ _____ _____    ______ ____
ROOT
ATOM      1  C   UNL     1       5.105   4.713  16.795  0.00  0.00    +0.000 A 
ATOM      2  C   UNL     1       5.596   5.922  17.279  0.00  0.00    +0.000 A 
ATOM      3  C   UNL     1       4.730   6.846  17.871  0.00  0.00    +0.000 A 
ATOM      4  C   UNL     1       3.354   6.573  17.995  0.00  0.00    +0.000 A 
ATOM      5  C   UNL     1       2.869   5.338  17.530  0.00  0.00    +0.000 A 
ATOM      6  C   UNL     1       3.751   4.416  16.939  0.00  0.00    +0.000 A 
ENDROOT
BRANCH   4   7
ATOM      7  C   UNL     1       2.497   7.571  18.626  0.00  0.00    +0.000 A 
ATOM      8  C   UNL     1       1.942   7.719  19.874  0.00  0.00    +0.000 A 
ATOM      9  C   UNL     1       1.239   8.949  19.829  0.00  0.00    +0.000 A 
ATOM     10  N   UNL     1       1.369   9.514  18.619  0.00  0.00    +0.000 NA
ATOM     11  O   UNL     1       2.153   8.657  17.875  0.00  0.00    +0.000 OA
BRANCH   9  12
ATOM     12  C   UNL     1       0.484   9.592  20.903  0.00  0.00    +0.000 A 
ATOM     13  C   UNL     1      -0.203  10.792  20.664  0.00  0.00    +0.000 A 
ATOM     14  C   UNL     1      -0.895  11.432  21.693  0.00  0.00    +0.000 A 
ATOM     15  C   UNL     1      -0.914  10.874  22.971  0.00  0.00    +0.000 A 
ATOM     16  C   UNL     1      -0.245   9.678  23.221  0.00  0.00    +0.000 A 
ATOM     17  C   UNL     1       0.452   9.039  22.192  0.00  0.00    +0.000 A 
ENDBRANCH   9  12
ENDBRANCH   4   7
BRANCH   1  19
ATOM     18  C   UNL     1       6.245   4.035  14.841  0.00  0.00    +0.000 C 
ATOM     19  O   UNL     1       6.034   3.875  16.242  0.00  0.00    +0.000 OA
ENDBRANCH   1  19
BRANCH   5  20
ATOM     20  O   UNL     1       1.527   5.096  17.703  0.00  0.00    +0.000 OA
BRANCH  20  21
ATOM     21  C   UNL     1       1.157   3.868  18.322  0.00  0.00    +0.000 C 
BRANCH  21  22
ATOM     22  C   UNL     1       1.006   4.095  19.825  0.00  0.00    +0.000 C 
BRANCH  22  23
ATOM     23  C   UNL     1       1.187   2.788  20.605  0.00  0.00    +0.000 C 
BRANCH  23  24
ATOM     24  N   UNL     1       2.454   2.147  20.274  0.00  0.00    +0.000 NA
ATOM     25  C   UNL     1       2.557   1.655  18.901  0.00  0.00    +0.000 C 
ATOM     26  C   UNL     1       3.992   1.171  18.910  0.00  0.00    +0.000 C 
ATOM     27  C   UNL     1       4.724   2.260  19.685  0.00  0.00    +0.000 C 
ATOM     28  C   UNL     1       3.637   2.974  20.491  0.00  0.00    +0.000 C 
ENDBRANCH  23  24
ENDBRANCH  22  23
ENDBRANCH  21  22
ENDBRANCH  20  21
ENDBRANCH   5  20
TORSDOF 8
ENDMDL
