MODEL 1
REMARK VINA RESULT:      -7.6      0.000      0.000
REMARK  Name = 
REMARK  1 active torsions:
REMARK  status: ('A' for Active; 'I' for Inactive)
REMARK    1  A    between atoms: C_2  and  C_9
REMARK                            x       y       z     vdW  Elec       q    Type
REMARK                         _______ _______ _______ _____ _____    ______ ____
ROOT
ATOM      1  C   UNL     1       2.767   5.549  19.651  0.00  0.00    +0.000 A 
ATOM      2  C   UNL     1       2.058   4.454  20.154  0.00  0.00    +0.000 A 
ATOM      3  F   UNL     1       0.812   4.604  20.625  0.00  0.00    +0.000 F 
ATOM      4  C   UNL     1       2.631   3.183  20.181  0.00  0.00    +0.000 A 
ATOM      5  F   UNL     1       1.933   2.151  20.671  0.00  0.00    +0.000 F 
ATOM      6  C   UNL     1       3.919   2.988  19.706  0.00  0.00    +0.000 A 
ATOM      7  F   UNL     1       4.469   1.767  19.739  0.00  0.00    +0.000 F 
ATOM      8  C   UNL     1       4.631   4.061  19.194  0.00  0.00    +0.000 A 
ATOM      9  F   UNL     1       5.871   3.874  18.722  0.00  0.00    +0.000 F 
ATOM     10  C   UNL     1       4.061   5.331  19.163  0.00  0.00    +0.000 A 
ATOM     11  F   UNL     1       4.782   6.329  18.631  0.00  0.00    +0.000 F 
ENDROOT
BRANCH   1  13
ATOM     12  O   UNL     1       2.178   7.537  18.600  0.00  0.00    +0.000 OA
ATOM     13  C   UNL     1       2.207   6.929  19.663  0.00  0.00    +0.000 C 
ATOM     14  N   UNL     1       1.803   7.420  20.884  0.00  0.00    +0.000 N 
ATOM     15  C   UNL     1       1.292   8.676  21.122  0.00  0.00    +0.000 A 
ATOM     16  N   UNL     1       1.121   9.142  22.340  0.00  0.00    +0.000 NA
ATOM     17  N   UNL     1       0.631  10.435  22.341  0.00  0.00    +0.000 NA
ATOM     18  C   UNL     1       0.416  10.869  21.118  0.00  0.00    +0.000 A 
ATOM     19  S   UNL     1       0.790   9.740  19.888  0.00  0.00    +0.000 S 
ATOM     20  H   UNL     1       1.983   6.906  21.739  0.00  0.00    +0.000 HD
ENDBRANCH   1  13
TORSDOF 1
ENDMDL
MODEL 2
REMARK VINA RESULT:      -7.6      4.523      6.004
REMARK  Name = 
REMARK  1 active torsions:
REMARK  status: ('A' for Active; 'I' for Inactive)
REMARK    1  A    between atoms: C_2  and  C_9
REMARK                            x       y       z     vdW  Elec       q    Type
REMARK                         _______ _______ _______ _____ _____    ______ ____
ROOT
ATOM      1  C   UNL     1       3.277   3.568  18.739  0.00  0.00    +0.000 A 
ATOM      2  C   UNL     1       3.806   2.757  19.746  0.00  0.00    +0.000 A 
ATOM      3  F   UNL     1       4.976   2.126  19.573  0.00  0.00    +0.000 F 
ATOM      4  C   UNL     1       3.128   2.582  20.952  0.00  0.00    +0.000 A 
ATOM      5  F   UNL     1       3.654   1.797  21.901  0.00  0.00    +0.000 F 
ATOM      6  C   UNL     1       1.914   3.214  21.168  0.00  0.00    +0.000 A 
ATOM      7  F   UNL     1       1.262   3.039  22.325  0.00  0.00    +0.000 F 
ATOM      8  C   UNL     1       1.381   4.031  20.183  0.00  0.00    +0.000 A 
ATOM      9  F   UNL     1       0.214   4.655  20.394  0.00  0.00    +0.000 F 
ATOM     10  C   UNL     1       2.056   4.210  18.979  0.00  0.00    +0.000 A 
ATOM     11  F   UNL     1       1.512   5.034  18.071  0.00  0.00    +0.000 F 
ENDROOT
BRANCH   1  13
ATOM     12  O   UNL     1       3.426   3.184  16.451  0.00  0.00    +0.000 OA
ATOM     13  C   UNL     1       3.946   3.729  17.417  0.00  0.00    +0.000 C 
ATOM     14  N   UNL     1       5.119   4.448  17.403  0.00  0.00    +0.000 N 
ATOM     15  C   UNL     1       5.910   4.685  16.301  0.00  0.00    +0.000 A 
ATOM     16  N   UNL     1       7.115   5.204  16.403  0.00  0.00    +0.000 NA
ATOM     17  N   UNL     1       7.739   5.319  15.175  0.00  0.00    +0.000 NA
ATOM     18  C   UNL     1       6.956   4.918  14.197  0.00  0.00    +0.000 A 
ATOM     19  S   UNL     1       5.412   4.379  14.699  0.00  0.00    +0.000 S 
ATOM     20  H   UNL     1       5.555   4.754  18.266  0.00  0.00    +0.000 HD
ENDBRANCH   1  13
TORSDOF 1
ENDMDL
MODEL 3
REMARK VINA RESULT:      -7.6      0.121      2.440
REMARK  Name = 
REMARK  1 active torsions:
REMARK  status: ('A' for Active; 'I' for Inactive)
REMARK    1  A    between atoms: C_2  and  C_9
REMARK                            x       y       z     vdW  Elec       q    Type
REMARK                         _______ _______ _______ _____ _____    ______ ____
ROOT
ATOM      1  C   UNL     1       2.849   5.519  19.708  0.00  0.00    +0.000 A 
ATOM      2  C   UNL     1       4.147   5.270  19.255  0.00  0.00    +0.000 A 
ATOM      3  F   UNL     1       4.933   6.275  18.844  0.00  0.00    +0.000 F 
ATOM      4  C   UNL     1       4.654   3.971  19.217  0.00  0.00    +0.000 A 
ATOM      5  F   UNL     1       5.900   3.758  18.777  0.00  0.00    +0.000 F 
ATOM      6  C   UNL     1       3.872   2.904  19.631  0.00  0.00    +0.000 A 
ATOM      7  F   UNL     1       4.359   1.657  19.588  0.00  0.00    +0.000 F 
ATOM      8  C   UNL     1       2.586   3.136  20.093  0.00  0.00    +0.000 A 
ATOM      9  F   UNL     1       1.830   2.109  20.507  0.00  0.00    +0.000 F 
ATOM     10  C   UNL     1       2.077   4.431  20.135  0.00  0.00    +0.000 A 
ATOM     11  F   UNL     1       0.838   4.604  20.618  0.00  0.00    +0.000 F 
ENDROOT
BRANCH   1  13
ATOM     12  O   UNL     1       2.194   7.472  18.631  0.00  0.00    +0.000 OA
ATOM     13  C   UNL     1       2.257   6.886  19.705  0.00  0.00    +0.000 C 
ATOM     14  N   UNL     1       1.864   7.391  20.923  0.00  0.00    +0.000 N 
ATOM     15  C   UNL     1       1.328   8.639  21.148  0.00  0.00    +0.000 A 
ATOM     16  N   UNL     1       1.168   9.125  22.359  0.00  0.00    +0.000 NA
ATOM     17  N   UNL     1       0.648  10.405  22.345  0.00  0.00    +0.000 NA
ATOM     18  C   UNL     1       0.401  10.810  21.118  0.00  0.00    +0.000 A 
ATOM     19  S   UNL     1       0.779   9.667  19.903  0.00  0.00    +0.000 S 
ATOM     20  H   UNL     1       2.071   6.897  21.784  0.00  0.00    +0.000 HD
ENDBRANCH   1  13
TORSDOF 1
ENDMDL
MODEL 4
REMARK VINA RESULT:      -7.4      4.553      5.798
REMARK  Name = 
REMARK  1 active torsions:
REMARK  status: ('A' for Active; 'I' for Inactive)
REMARK    1  A    between atoms: C_2  and  C_9
REMARK                            x       y       z     vdW  Elec       q    Type
REMARK                         _______ _______ _______ _____ _____    ______ ____
ROOT
ATOM      1  C   UNL     1       3.147   3.419  18.745  0.00  0.00    +0.000 A 
ATOM      2  C   UNL     1       1.903   4.024  18.945  0.00  0.00    +0.000 A 
ATOM      3  F   UNL     1       1.329   4.746  17.973  0.00  0.00    +0.000 F 
ATOM      4  C   UNL     1       1.232   3.893  20.161  0.00  0.00    +0.000 A 
ATOM      5  F   UNL     1       0.043   4.484  20.329  0.00  0.00    +0.000 F 
ATOM      6  C   UNL     1       1.794   3.157  21.193  0.00  0.00    +0.000 A 
ATOM      7  F   UNL     1       1.150   3.038  22.361  0.00  0.00    +0.000 F 
ATOM      8  C   UNL     1       3.022   2.542  21.006  0.00  0.00    +0.000 A 
ATOM      9  F   UNL     1       3.563   1.818  21.996  0.00  0.00    +0.000 F 
ATOM     10  C   UNL     1       3.694   2.668  19.793  0.00  0.00    +0.000 A 
ATOM     11  F   UNL     1       4.865   2.029  19.655  0.00  0.00    +0.000 F 
ENDROOT
BRANCH   1  13
ATOM     12  O   UNL     1       3.609   2.878  16.532  0.00  0.00    +0.000 OA
ATOM     13  C   UNL     1       3.916   3.589  17.481  0.00  0.00    +0.000 C 
ATOM     14  N   UNL     1       4.939   4.510  17.500  0.00  0.00    +0.000 N 
ATOM     15  C   UNL     1       5.791   4.796  16.457  0.00  0.00    +0.000 A 
ATOM     16  N   UNL     1       6.866   5.536  16.615  0.00  0.00    +0.000 NA
ATOM     17  N   UNL     1       7.590   5.661  15.444  0.00  0.00    +0.000 NA
ATOM     18  C   UNL     1       7.001   5.041  14.445  0.00  0.00    +0.000 A 
ATOM     19  S   UNL     1       5.532   4.269  14.856  0.00  0.00    +0.000 S 
ATOM     20  H   UNL     1       5.217   4.963  18.363  0.00  0.00    +0.000 HD
ENDBRANCH   1  13
TORSDOF 1
ENDMDL
MODEL 5
REMARK VINA RESULT:      -7.3      4.405      6.199
REMARK  Name = 
REMARK  1 active torsions:
REMARK  status: ('A' for Active; 'I' for Inactive)
REMARK    1  A    between atoms: C_2  and  C_9
REMARK                            x       y       z     vdW  Elec       q    Type
REMARK                         _______ _______ _______ _____ _____    ______ ____
ROOT
ATOM      1  C   UNL     1       3.327   5.531  18.367  0.00  0.00    +0.000 A 
ATOM      2  C   UNL     1       3.027   4.726  19.469  0.00  0.00    +0.000 A 
ATOM      3  F   UNL     1       3.420   3.445  19.508  0.00  0.00    +0.000 F 
ATOM      4  C   UNL     1       2.311   5.235  20.551  0.00  0.00    +0.000 A 
ATOM      5  F   UNL     1       2.034   4.443  21.595  0.00  0.00    +0.000 F 
ATOM      6  C   UNL     1       1.883   6.554  20.548  0.00  0.00    +0.000 A 
ATOM      7  F   UNL     1       1.190   7.038  21.586  0.00  0.00    +0.000 F 
ATOM      8  C   UNL     1       2.182   7.368  19.467  0.00  0.00    +0.000 A 
ATOM      9  F   UNL     1       1.782   8.647  19.465  0.00  0.00    +0.000 F 
ATOM     10  C   UNL     1       2.899   6.864  18.385  0.00  0.00    +0.000 A 
ATOM     11  F   UNL     1       3.187   7.702  17.378  0.00  0.00    +0.000 F 
ENDROOT
BRANCH   1  13
ATOM     12  O   UNL     1       3.574   4.004  16.631  0.00  0.00    +0.000 OA
ATOM     13  C   UNL     1       4.038   5.002  17.169  0.00  0.00    +0.000 C 
ATOM     14  N   UNL     1       5.185   5.663  16.791  0.00  0.00    +0.000 N 
ATOM     15  C   UNL     1       6.007   5.321  15.741  0.00  0.00    +0.000 A 
ATOM     16  N   UNL     1       7.188   5.874  15.568  0.00  0.00    +0.000 NA
ATOM     17  N   UNL     1       7.853   5.355  14.473  0.00  0.00    +0.000 NA
ATOM     18  C   UNL     1       7.121   4.460  13.846  0.00  0.00    +0.000 A 
ATOM     19  S   UNL     1       5.580   4.191  14.538  0.00  0.00    +0.000 S 
ATOM     20  H   UNL     1       5.577   6.399  17.367  0.00  0.00    +0.000 HD
ENDBRANCH   1  13
TORSDOF 1
ENDMDL
MODEL 6
REMARK VINA RESULT:      -7.2      4.452      5.965
REMARK  Name = 
REMARK  1 active torsions:
REMARK  status: ('A' for Active; 'I' for Inactive)
REMARK    1  A    between atoms: C_2  and  C_9
REMARK                            x       y       z     vdW  Elec       q    Type
REMARK                         _______ _______ _______ _____ _____    ______ ____
ROOT
ATOM      1  C   UNL     1       3.601   4.013  19.215  0.00  0.00    +0.000 A 
ATOM      2  C   UNL     1       2.302   4.518  19.309  0.00  0.00    +0.000 A 
ATOM      3  F   UNL     1       1.876   5.471  18.468  0.00  0.00    +0.000 F 
ATOM      4  C   UNL     1       1.420   4.045  20.280  0.00  0.00    +0.000 A 
ATOM      5  F   UNL     1       0.180   4.547  20.352  0.00  0.00    +0.000 F 
ATOM      6  C   UNL     1       1.823   3.062  21.171  0.00  0.00    +0.000 A 
ATOM      7  F   UNL     1       0.976   2.615  22.106  0.00  0.00    +0.000 F 
ATOM      8  C   UNL     1       3.106   2.543  21.083  0.00  0.00    +0.000 A 
ATOM      9  F   UNL     1       3.496   1.583  21.934  0.00  0.00    +0.000 F 
ATOM     10  C   UNL     1       3.988   3.011  20.113  0.00  0.00    +0.000 A 
ATOM     11  F   UNL     1       5.207   2.455  20.054  0.00  0.00    +0.000 F 
ENDROOT
BRANCH   1  13
ATOM     12  O   UNL     1       5.112   5.617  18.473  0.00  0.00    +0.000 OA
ATOM     13  C   UNL     1       4.586   4.538  18.228  0.00  0.00    +0.000 C 
ATOM     14  N   UNL     1       4.794   3.777  17.100  0.00  0.00    +0.000 N 
ATOM     15  C   UNL     1       5.631   4.094  16.053  0.00  0.00    +0.000 A 
ATOM     16  N   UNL     1       5.622   3.423  14.922  0.00  0.00    +0.000 NA
ATOM     17  N   UNL     1       6.516   3.937  14.003  0.00  0.00    +0.000 NA
ATOM     18  C   UNL     1       7.190   4.951  14.501  0.00  0.00    +0.000 A 
ATOM     19  S   UNL     1       6.787   5.346  16.115  0.00  0.00    +0.000 S 
ATOM     20  H   UNL     1       4.223   2.963  16.907  0.00  0.00    +0.000 HD
ENDBRANCH   1  13
TORSDOF 1
ENDMDL
MODEL 7
REMARK VINA RESULT:      -7.2      4.129      5.007
REMARK  Name = 
REMARK  1 active torsions:
REMARK  status: ('A' for Active; 'I' for Inactive)
REMARK    1  A    between atoms: C_2  and  C_9
REMARK                            x       y       z     vdW  Elec       q    Type
REMARK                         _______ _______ _______ _____ _____    ______ ____
ROOT
ATOM      1  C   UNL     1       3.667   4.234  18.850  0.00  0.00    +0.000 A 
ATOM      2  C   UNL     1       2.588   4.546  19.682  0.00  0.00    +0.000 A 
ATOM      3  F   UNL     1       2.680   5.541  20.576  0.00  0.00    +0.000 F 
ATOM      4  C   UNL     1       1.395   3.829  19.605  0.00  0.00    +0.000 A 
ATOM      5  F   UNL     1       0.377   4.146  20.416  0.00  0.00    +0.000 F 
ATOM      6  C   UNL     1       1.263   2.790  18.697  0.00  0.00    +0.000 A 
ATOM      7  F   UNL     1       0.117   2.099  18.629  0.00  0.00    +0.000 F 
ATOM      8  C   UNL     1       2.319   2.475  17.857  0.00  0.00    +0.000 A 
ATOM      9  F   UNL     1       2.191   1.481  16.968  0.00  0.00    +0.000 F 
ATOM     10  C   UNL     1       3.511   3.191  17.929  0.00  0.00    +0.000 A 
ATOM     11  F   UNL     1       4.492   2.865  17.074  0.00  0.00    +0.000 F 
ENDROOT
BRANCH   1  13
ATOM     12  O   UNL     1       5.706   4.649  19.887  0.00  0.00    +0.000 OA
ATOM     13  C   UNL     1       4.974   4.941  18.949  0.00  0.00    +0.000 C 
ATOM     14  N   UNL     1       5.233   5.896  17.991  0.00  0.00    +0.000 N 
ATOM     15  C   UNL     1       6.359   6.685  17.919  0.00  0.00    +0.000 A 
ATOM     16  N   UNL     1       6.443   7.711  17.100  0.00  0.00    +0.000 NA
ATOM     17  N   UNL     1       7.647   8.379  17.221  0.00  0.00    +0.000 NA
ATOM     18  C   UNL     1       8.433   7.797  18.100  0.00  0.00    +0.000 A 
ATOM     19  S   UNL     1       7.769   6.403  18.835  0.00  0.00    +0.000 S 
ATOM     20  H   UNL     1       4.521   6.174  17.326  0.00  0.00    +0.000 HD
ENDBRANCH   1  13
TORSDOF 1
ENDMDL
MODEL 8
REMARK VINA RESULT:      -7.2      4.477      5.729
REMARK  Name = 
REMARK  1 active torsions:
REMARK  status: ('A' for Active; 'I' for Inactive)
REMARK    1  A    between atoms: C_2  and  C_9
REMARK                            x       y       z     vdW  Elec       q    Type
REMARK                         _______ _______ _______ _____ _____    ______ ____
ROOT
ATOM      1  C   UNL     1       4.827   4.735  17.256  0.00  0.00    +0.000 A 
ATOM      2  C   UNL     1       5.892   5.598  17.530  0.00  0.00    +0.000 A 
ATOM      3  F   UNL     1       5.975   6.228  18.710  0.00  0.00    +0.000 F 
ATOM      4  C   UNL     1       6.888   5.826  16.583  0.00  0.00    +0.000 A 
ATOM      5  F   UNL     1       7.897   6.660  16.868  0.00  0.00    +0.000 F 
ATOM      6  C   UNL     1       6.836   5.197  15.349  0.00  0.00    +0.000 A 
ATOM      7  F   UNL     1       7.792   5.422  14.438  0.00  0.00    +0.000 F 
ATOM      8  C   UNL     1       5.793   4.329  15.066  0.00  0.00    +0.000 A 
ATOM      9  F   UNL     1       5.746   3.708  13.879  0.00  0.00    +0.000 F 
ATOM     10  C   UNL     1       4.797   4.097  16.010  0.00  0.00    +0.000 A 
ATOM     11  F   UNL     1       3.826   3.227  15.697  0.00  0.00    +0.000 F 
ENDROOT
BRANCH   1  13
ATOM     12  O   UNL     1       2.704   5.194  18.085  0.00  0.00    +0.000 OA
ATOM     13  C   UNL     1       3.715   4.516  18.223  0.00  0.00    +0.000 C 
ATOM     14  N   UNL     1       3.936   3.591  19.218  0.00  0.00    +0.000 N 
ATOM     15  C   UNL     1       3.060   3.264  20.228  0.00  0.00    +0.000 A 
ATOM     16  N   UNL     1       3.420   2.525  21.255  0.00  0.00    +0.000 NA
ATOM     17  N   UNL     1       2.390   2.353  22.161  0.00  0.00    +0.000 NA
ATOM     18  C   UNL     1       1.286   2.940  21.753  0.00  0.00    +0.000 A 
ATOM     19  S   UNL     1       1.421   3.734  20.244  0.00  0.00    +0.000 S 
ATOM     20  H   UNL     1       4.849   3.169  19.344  0.00  0.00    +0.000 HD
ENDBRANCH   1  13
TORSDOF 1
ENDMDL
MODEL 9
REMARK VINA RESULT:      -7.1      1.096      2.660
REMARK  Name = 
REMARK  1 active torsions:
REMARK  status: ('A' for Active; 'I' for Inactive)
REMARK    1  A    between atoms: C_2  and  C_9
REMARK                            x       y       z     vdW  Elec       q    Type
REMARK                         _______ _______ _______ _____ _____    ______ ____
ROOT
ATOM      1  C   UNL     1       2.631   5.425  18.755  0.00  0.00    +0.000 A 
ATOM      2  C   UNL     1       3.753   5.154  17.968  0.00  0.00    +0.000 A 
ATOM      3  F   UNL     1       4.479   6.153  17.447  0.00  0.00    +0.000 F 
ATOM      4  C   UNL     1       4.140   3.841  17.704  0.00  0.00    +0.000 A 
ATOM      5  F   UNL     1       5.218   3.608  16.944  0.00  0.00    +0.000 F 
ATOM      6  C   UNL     1       3.413   2.781  18.221  0.00  0.00    +0.000 A 
ATOM      7  F   UNL     1       3.784   1.520  17.961  0.00  0.00    +0.000 F 
ATOM      8  C   UNL     1       2.304   3.032  19.013  0.00  0.00    +0.000 A 
ATOM      9  F   UNL     1       1.605   2.010  19.527  0.00  0.00    +0.000 F 
ATOM     10  C   UNL     1       1.915   4.342  19.281  0.00  0.00    +0.000 A 
ATOM     11  F   UNL     1       0.852   4.530  20.077  0.00  0.00    +0.000 F 
ENDROOT
BRANCH   1  13
ATOM     12  O   UNL     1       2.043   7.557  18.040  0.00  0.00    +0.000 OA
ATOM     13  C   UNL     1       2.155   6.814  19.007  0.00  0.00    +0.000 C 
ATOM     14  N   UNL     1       1.917   7.156  20.319  0.00  0.00    +0.000 N 
ATOM     15  C   UNL     1       1.509   8.390  20.772  0.00  0.00    +0.000 A 
ATOM     16  N   UNL     1       1.501   8.699  22.051  0.00  0.00    +0.000 NA
ATOM     17  N   UNL     1       1.088   9.999  22.272  0.00  0.00    +0.000 NA
ATOM     18  C   UNL     1       0.764  10.599  21.147  0.00  0.00    +0.000 A 
ATOM     19  S   UNL     1       0.934   9.628  19.750  0.00  0.00    +0.000 S 
ATOM     20  H   UNL     1       2.162   6.527  21.075  0.00  0.00    +0.000 HD
ENDBRANCH   1  13
TORSDOF 1
ENDMDL
