MODEL 1
REMARK VINA RESULT:      -7.3      0.000      0.000
REMARK  Name = 
REMARK  9 active torsions:
REMARK  status: ('A' for Active; 'I' for Inactive)
REMARK    1  A    between atoms: C_1  and  C_2
REMARK    2  A    between atoms: C_2  and  C_3
REMARK    3  A    between atoms: C_3  and  C_5
REMARK    4  A    between atoms: C_8  and  O_9
REMARK    5  A    between atoms: O_9  and  C_10
REMARK    6  A    between atoms: C_15  and  O_16
REMARK    7  A    between atoms: O_16  and  C_17
REMARK    8  A    between atoms: C_19  and  O_20
REMARK    9  A    between atoms: O_20  and  C_21
REMARK                            x       y       z     vdW  Elec       q    Type
REMARK                         _______ _______ _______ _____ _____    ______ ____
ROOT
ATOM      1  C   UNL     1       5.855   4.693  15.133  0.00  0.00    +0.000 A 
ATOM      2  C   UNL     1       5.230   3.678  15.819  0.00  0.00    +0.000 A 
ATOM      3  C   UNL     1       4.396   4.142  16.927  0.00  0.00    +0.000 A 
ATOM      4  C   UNL     1       3.626   3.372  17.854  0.00  0.00    +0.000 A 
ATOM      5  C   UNL     1       2.868   4.031  18.893  0.00  0.00    +0.000 A 
ATOM      6  C   UNL     1       2.087   3.355  19.875  0.00  0.00    +0.000 A 
ATOM      7  C   UNL     1       1.359   3.991  20.878  0.00  0.00    +0.000 A 
ATOM      8  C   UNL     1       1.365   5.362  20.952  0.00  0.00    +0.000 A 
ATOM      9  C   UNL     1       2.101   6.099  20.025  0.00  0.00    +0.000 A 
ATOM     10  C   UNL     1       2.878   5.459  18.976  0.00  0.00    +0.000 A 
ATOM     11  C   UNL     1       3.658   6.208  18.019  0.00  0.00    +0.000 A 
ATOM     12  C   UNL     1       4.407   5.532  17.023  0.00  0.00    +0.000 A 
ATOM     13  S   UNL     1       5.431   6.187  15.800  0.00  0.00    +0.000 S 
ENDROOT
BRANCH   1  14
ATOM     14  C   UNL     1       6.769   4.702  13.996  0.00  0.00    +0.000 C 
ATOM     15  O   UNL     1       7.708   5.498  13.904  0.00  0.00    +0.000 OA
BRANCH  14  17
ATOM     16  C   UNL     1       5.114   3.768  12.357  0.00  0.00    +0.000 C 
ATOM     17  C   UNL     1       6.539   3.683  12.894  0.00  0.00    +0.000 C 
ENDBRANCH  14  17
ENDBRANCH   1  14
BRANCH   4  18
ATOM     18  O   UNL     1       3.747   2.035  17.593  0.00  0.00    +0.000 OA
ATOM     19  C   UNL     1       3.934   1.027  18.561  0.00  0.00    +0.000 C 
ENDBRANCH   4  18
BRANCH   9  20
ATOM     20  O   UNL     1       2.116   7.474  20.077  0.00  0.00    +0.000 OA
ATOM     21  C   UNL     1       1.231   8.160  20.947  0.00  0.00    +0.000 C 
ENDBRANCH   9  20
BRANCH  11  22
ATOM     22  O   UNL     1       3.607   7.587  18.193  0.00  0.00    +0.000 OA
ATOM     23  C   UNL     1       2.778   8.441  17.434  0.00  0.00    +0.000 C 
ENDBRANCH  11  22
TORSDOF 5
ENDMDL
MODEL 2
REMARK VINA RESULT:      -7.0      1.250      3.557
REMARK  Name = 
REMARK  9 active torsions:
REMARK  status: ('A' for Active; 'I' for Inactive)
REMARK    1  A    between atoms: C_1  and  C_2
REMARK    2  A    between atoms: C_2  and  C_3
REMARK    3  A    between atoms: C_3  and  C_5
REMARK    4  A    between atoms: C_8  and  O_9
REMARK    5  A    between atoms: O_9  and  C_10
REMARK    6  A    between atoms: C_15  and  O_16
REMARK    7  A    between atoms: O_16  and  C_17
REMARK    8  A    between atoms: C_19  and  O_20
REMARK    9  A    between atoms: O_20  and  C_21
REMARK                            x       y       z     vdW  Elec       q    Type
REMARK                         _______ _______ _______ _____ _____    ______ ____
ROOT
ATOM      1  C   UNL     1       5.960   4.992  15.215  0.00  0.00    +0.000 A 
ATOM      2  C   UNL     1       5.279   6.072  15.729  0.00  0.00    +0.000 A 
ATOM      3  C   UNL     1       4.526   5.768  16.945  0.00  0.00    +0.000 A 
ATOM      4  C   UNL     1       3.699   6.634  17.728  0.00  0.00    +0.000 A 
ATOM      5  C   UNL     1       3.028   6.130  18.904  0.00  0.00    +0.000 A 
ATOM      6  C   UNL     1       2.169   6.904  19.737  0.00  0.00    +0.000 A 
ATOM      7  C   UNL     1       1.520   6.416  20.869  0.00  0.00    +0.000 A 
ATOM      8  C   UNL     1       1.701   5.107  21.242  0.00  0.00    +0.000 A 
ATOM      9  C   UNL     1       2.530   4.284  20.482  0.00  0.00    +0.000 A 
ATOM     10  C   UNL     1       3.210   4.765  19.290  0.00  0.00    +0.000 A 
ATOM     11  C   UNL     1       4.058   3.919  18.484  0.00  0.00    +0.000 A 
ATOM     12  C   UNL     1       4.688   4.437  17.325  0.00  0.00    +0.000 A 
ATOM     13  S   UNL     1       5.710   3.635  16.191  0.00  0.00    +0.000 S 
ENDROOT
BRANCH   1  14
ATOM     14  C   UNL     1       6.807   4.826  14.040  0.00  0.00    +0.000 C 
ATOM     15  O   UNL     1       7.752   5.579  13.788  0.00  0.00    +0.000 OA
BRANCH  14  17
ATOM     16  C   UNL     1       5.105   3.817  12.495  0.00  0.00    +0.000 C 
ATOM     17  C   UNL     1       6.497   3.673  13.100  0.00  0.00    +0.000 C 
ENDBRANCH  14  17
ENDBRANCH   1  14
BRANCH   4  18
ATOM     18  O   UNL     1       3.669   7.891  17.192  0.00  0.00    +0.000 OA
ATOM     19  C   UNL     1       2.708   8.881  17.482  0.00  0.00    +0.000 C 
ENDBRANCH   4  18
BRANCH   9  20
ATOM     20  O   UNL     1       2.731   2.970  20.841  0.00  0.00    +0.000 OA
ATOM     21  C   UNL     1       1.782   2.306  21.658  0.00  0.00    +0.000 C 
ENDBRANCH   9  20
BRANCH  11  22
ATOM     22  O   UNL     1       4.161   2.610  18.941  0.00  0.00    +0.000 OA
ATOM     23  C   UNL     1       3.611   1.499  18.265  0.00  0.00    +0.000 C 
ENDBRANCH  11  22
TORSDOF 5
ENDMDL
MODEL 3
REMARK VINA RESULT:      -6.4      0.765      1.043
REMARK  Name = 
REMARK  9 active torsions:
REMARK  status: ('A' for Active; 'I' for Inactive)
REMARK    1  A    between atoms: C_1  and  C_2
REMARK    2  A    between atoms: C_2  and  C_3
REMARK    3  A    between atoms: C_3  and  C_5
REMARK    4  A    between atoms: C_8  and  O_9
REMARK    5  A    between atoms: O_9  and  C_10
REMARK    6  A    between atoms: C_15  and  O_16
REMARK    7  A    between atoms: O_16  and  C_17
REMARK    8  A    between atoms: C_19  and  O_20
REMARK    9  A    between atoms: O_20  and  C_21
REMARK                            x       y       z     vdW  Elec       q    Type
REMARK                         _______ _______ _______ _____ _____    ______ ____
ROOT
ATOM      1  C   UNL     1       5.685   4.469  15.055  0.00  0.00    +0.000 A 
ATOM      2  C   UNL     1       5.055   3.488  15.784  0.00  0.00    +0.000 A 
ATOM      3  C   UNL     1       4.272   4.001  16.908  0.00  0.00    +0.000 A 
ATOM      4  C   UNL     1       3.511   3.274  17.877  0.00  0.00    +0.000 A 
ATOM      5  C   UNL     1       2.807   3.977  18.924  0.00  0.00    +0.000 A 
ATOM      6  C   UNL     1       2.041   3.346  19.946  0.00  0.00    +0.000 A 
ATOM      7  C   UNL     1       1.364   4.026  20.957  0.00  0.00    +0.000 A 
ATOM      8  C   UNL     1       1.412   5.397  21.000  0.00  0.00    +0.000 A 
ATOM      9  C   UNL     1       2.137   6.091  20.033  0.00  0.00    +0.000 A 
ATOM     10  C   UNL     1       2.861   5.406  18.974  0.00  0.00    +0.000 A 
ATOM     11  C   UNL     1       3.630   6.111  17.976  0.00  0.00    +0.000 A 
ATOM     12  C   UNL     1       4.325   5.392  16.972  0.00  0.00    +0.000 A 
ATOM     13  S   UNL     1       5.326   5.989  15.701  0.00  0.00    +0.000 S 
ENDROOT
BRANCH   1  14
ATOM     14  C   UNL     1       6.562   4.426  13.890  0.00  0.00    +0.000 C 
ATOM     15  O   UNL     1       6.357   3.679  12.930  0.00  0.00    +0.000 OA
BRANCH  14  17
ATOM     16  C   UNL     1       8.148   5.737  12.453  0.00  0.00    +0.000 C 
ATOM     17  C   UNL     1       7.770   5.348  13.878  0.00  0.00    +0.000 C 
ENDBRANCH  14  17
ENDBRANCH   1  14
BRANCH   4  18
ATOM     18  O   UNL     1       3.586   1.929  17.643  0.00  0.00    +0.000 OA
ATOM     19  C   UNL     1       4.021   0.960  18.572  0.00  0.00    +0.000 C 
ENDBRANCH   4  18
BRANCH   9  20
ATOM     20  O   UNL     1       2.193   7.466  20.053  0.00  0.00    +0.000 OA
ATOM     21  C   UNL     1       1.350   8.197  20.928  0.00  0.00    +0.000 C 
ENDBRANCH   9  20
BRANCH  11  22
ATOM     22  O   UNL     1       3.623   7.494  18.119  0.00  0.00    +0.000 OA
ATOM     23  C   UNL     1       2.805   8.356  17.357  0.00  0.00    +0.000 C 
ENDBRANCH  11  22
TORSDOF 5
ENDMDL
MODEL 4
REMARK VINA RESULT:      -6.2      2.104      6.559
REMARK  Name = 
REMARK  9 active torsions:
REMARK  status: ('A' for Active; 'I' for Inactive)
REMARK    1  A    between atoms: C_1  and  C_2
REMARK    2  A    between atoms: C_2  and  C_3
REMARK    3  A    between atoms: C_3  and  C_5
REMARK    4  A    between atoms: C_8  and  O_9
REMARK    5  A    between atoms: O_9  and  C_10
REMARK    6  A    between atoms: C_15  and  O_16
REMARK    7  A    between atoms: O_16  and  C_17
REMARK    8  A    between atoms: C_19  and  O_20
REMARK    9  A    between atoms: O_20  and  C_21
REMARK                            x       y       z     vdW  Elec       q    Type
REMARK                         _______ _______ _______ _____ _____    ______ ____
ROOT
ATOM      1  C   UNL     1       1.280   7.995  20.666  0.00  0.00    +0.000 A 
ATOM      2  C   UNL     1       1.162   6.665  20.995  0.00  0.00    +0.000 A 
ATOM      3  C   UNL     1       1.874   5.768  20.085  0.00  0.00    +0.000 A 
ATOM      4  C   UNL     1       1.951   4.340  20.111  0.00  0.00    +0.000 A 
ATOM      5  C   UNL     1       2.709   3.635  19.104  0.00  0.00    +0.000 A 
ATOM      6  C   UNL     1       2.832   2.217  19.032  0.00  0.00    +0.000 A 
ATOM      7  C   UNL     1       3.562   1.538  18.058  0.00  0.00    +0.000 A 
ATOM      8  C   UNL     1       4.225   2.250  17.090  0.00  0.00    +0.000 A 
ATOM      9  C   UNL     1       4.159   3.642  17.093  0.00  0.00    +0.000 A 
ATOM     10  C   UNL     1       3.396   4.375  18.091  0.00  0.00    +0.000 A 
ATOM     11  C   UNL     1       3.305   5.816  18.097  0.00  0.00    +0.000 A 
ATOM     12  C   UNL     1       2.538   6.479  19.087  0.00  0.00    +0.000 A 
ATOM     13  S   UNL     1       2.248   8.166  19.291  0.00  0.00    +0.000 S 
ENDROOT
BRANCH   1  14
ATOM     14  C   UNL     1       0.743   9.213  21.262  0.00  0.00    +0.000 C 
ATOM     15  O   UNL     1       1.086  10.341  20.897  0.00  0.00    +0.000 OA
BRANCH  14  17
ATOM     16  C   UNL     1      -0.724  10.427  22.898  0.00  0.00    +0.000 C 
ATOM     17  C   UNL     1      -0.279   9.065  22.377  0.00  0.00    +0.000 C 
ENDBRANCH  14  17
ENDBRANCH   1  14
BRANCH   4  18
ATOM     18  O   UNL     1       1.235   3.835  21.161  0.00  0.00    +0.000 OA
ATOM     19  C   UNL     1       1.655   2.790  22.010  0.00  0.00    +0.000 C 
ENDBRANCH   4  18
BRANCH   9  20
ATOM     20  O   UNL     1       4.822   4.377  16.136  0.00  0.00    +0.000 OA
ATOM     21  C   UNL     1       5.996   3.858  15.533  0.00  0.00    +0.000 C 
ENDBRANCH   9  20
BRANCH  11  22
ATOM     22  O   UNL     1       4.002   6.438  17.066  0.00  0.00    +0.000 OA
ATOM     23  C   UNL     1       5.192   7.172  17.257  0.00  0.00    +0.000 C 
ENDBRANCH  11  22
TORSDOF 5
ENDMDL
MODEL 5
REMARK VINA RESULT:      -6.0      1.461      3.699
REMARK  Name = 
REMARK  9 active torsions:
REMARK  status: ('A' for Active; 'I' for Inactive)
REMARK    1  A    between atoms: C_1  and  C_2
REMARK    2  A    between atoms: C_2  and  C_3
REMARK    3  A    between atoms: C_3  and  C_5
REMARK    4  A    between atoms: C_8  and  O_9
REMARK    5  A    between atoms: O_9  and  C_10
REMARK    6  A    between atoms: C_15  and  O_16
REMARK    7  A    between atoms: O_16  and  C_17
REMARK    8  A    between atoms: C_19  and  O_20
REMARK    9  A    between atoms: O_20  and  C_21
REMARK                            x       y       z     vdW  Elec       q    Type
REMARK                         _______ _______ _______ _____ _____    ______ ____
ROOT
ATOM      1  C   UNL     1       5.865   4.797  15.113  0.00  0.00    +0.000 A 
ATOM      2  C   UNL     1       5.228   5.901  15.630  0.00  0.00    +0.000 A 
ATOM      3  C   UNL     1       4.502   5.635  16.871  0.00  0.00    +0.000 A 
ATOM      4  C   UNL     1       3.721   6.534  17.664  0.00  0.00    +0.000 A 
ATOM      5  C   UNL     1       3.070   6.065  18.865  0.00  0.00    +0.000 A 
ATOM      6  C   UNL     1       2.256   6.874  19.711  0.00  0.00    +0.000 A 
ATOM      7  C   UNL     1       1.627   6.420  20.868  0.00  0.00    +0.000 A 
ATOM      8  C   UNL     1       1.784   5.112  21.255  0.00  0.00    +0.000 A 
ATOM      9  C   UNL     1       2.569   4.255  20.484  0.00  0.00    +0.000 A 
ATOM     10  C   UNL     1       3.228   4.701  19.266  0.00  0.00    +0.000 A 
ATOM     11  C   UNL     1       4.029   3.821  18.450  0.00  0.00    +0.000 A 
ATOM     12  C   UNL     1       4.640   4.306  17.266  0.00  0.00    +0.000 A 
ATOM     13  S   UNL     1       5.608   3.461  16.116  0.00  0.00    +0.000 S 
ENDROOT
BRANCH   1  14
ATOM     14  C   UNL     1       6.674   4.591  13.917  0.00  0.00    +0.000 C 
ATOM     15  O   UNL     1       6.401   3.740  13.067  0.00  0.00    +0.000 OA
BRANCH  14  17
ATOM     16  C   UNL     1       8.125   5.791  12.257  0.00  0.00    +0.000 C 
ATOM     17  C   UNL     1       7.899   5.471  13.731  0.00  0.00    +0.000 C 
ENDBRANCH  14  17
ENDBRANCH   1  14
BRANCH   4  18
ATOM     18  O   UNL     1       3.709   7.784  17.110  0.00  0.00    +0.000 OA
ATOM     19  C   UNL     1       2.818   8.822  17.454  0.00  0.00    +0.000 C 
ENDBRANCH   4  18
BRANCH   9  20
ATOM     20  O   UNL     1       2.745   2.942  20.857  0.00  0.00    +0.000 OA
ATOM     21  C   UNL     1       1.830   2.330  21.750  0.00  0.00    +0.000 C 
ENDBRANCH   9  20
BRANCH  11  22
ATOM     22  O   UNL     1       4.111   2.516  18.923  0.00  0.00    +0.000 OA
ATOM     23  C   UNL     1       3.547   1.405  18.258  0.00  0.00    +0.000 C 
ENDBRANCH  11  22
TORSDOF 5
ENDMDL
MODEL 6
REMARK VINA RESULT:      -6.0      7.233     10.400
REMARK  Name = 
REMARK  9 active torsions:
REMARK  status: ('A' for Active; 'I' for Inactive)
REMARK    1  A    between atoms: C_1  and  C_2
REMARK    2  A    between atoms: C_2  and  C_3
REMARK    3  A    between atoms: C_3  and  C_5
REMARK    4  A    between atoms: C_8  and  O_9
REMARK    5  A    between atoms: O_9  and  C_10
REMARK    6  A    between atoms: C_15  and  O_16
REMARK    7  A    between atoms: O_16  and  C_17
REMARK    8  A    between atoms: C_19  and  O_20
REMARK    9  A    between atoms: O_20  and  C_21
REMARK                            x       y       z     vdW  Elec       q    Type
REMARK                         _______ _______ _______ _____ _____    ______ ____
ROOT
ATOM      1  C   UNL     1      -0.439  10.427  19.062  0.00  0.00    +0.000 A 
ATOM      2  C   UNL     1      -1.398  10.284  18.086  0.00  0.00    +0.000 A 
ATOM      3  C   UNL     1      -2.627  11.031  18.355  0.00  0.00    +0.000 A 
ATOM      4  C   UNL     1      -3.825  11.098  17.576  0.00  0.00    +0.000 A 
ATOM      5  C   UNL     1      -4.941  11.895  18.027  0.00  0.00    +0.000 A 
ATOM      6  C   UNL     1      -6.182  12.012  17.336  0.00  0.00    +0.000 A 
ATOM      7  C   UNL     1      -7.259  12.780  17.773  0.00  0.00    +0.000 A 
ATOM      8  C   UNL     1      -7.152  13.492  18.942  0.00  0.00    +0.000 A 
ATOM      9  C   UNL     1      -5.969  13.435  19.677  0.00  0.00    +0.000 A 
ATOM     10  C   UNL     1      -4.834  12.633  19.248  0.00  0.00    +0.000 A 
ATOM     11  C   UNL     1      -3.608  12.551  20.007  0.00  0.00    +0.000 A 
ATOM     12  C   UNL     1      -2.537  11.745  19.549  0.00  0.00    +0.000 A 
ATOM     13  S   UNL     1      -1.001  11.457  20.278  0.00  0.00    +0.000 S 
ENDROOT
BRANCH   1  14
ATOM     14  C   UNL     1       0.900   9.871  19.220  0.00  0.00    +0.000 C 
ATOM     15  O   UNL     1       1.314   9.427  20.295  0.00  0.00    +0.000 OA
BRANCH  14  17
ATOM     16  C   UNL     1       2.326   8.441  17.730  0.00  0.00    +0.000 C 
ATOM     17  C   UNL     1       1.807   9.849  18.001  0.00  0.00    +0.000 C 
ENDBRANCH  14  17
ENDBRANCH   1  14
BRANCH   4  18
ATOM     18  O   UNL     1      -3.714  10.330  16.450  0.00  0.00    +0.000 OA
ATOM     19  C   UNL     1      -3.318  10.796  15.179  0.00  0.00    +0.000 C 
ENDBRANCH   4  18
BRANCH   9  20
ATOM     20  O   UNL     1      -5.837  14.146  20.848  0.00  0.00    +0.000 OA
ATOM     21  C   UNL     1      -6.955  14.313  21.704  0.00  0.00    +0.000 C 
ENDBRANCH   9  20
BRANCH  11  22
ATOM     22  O   UNL     1      -3.611  13.298  21.180  0.00  0.00    +0.000 OA
ATOM     23  C   UNL     1      -3.491  12.733  22.469  0.00  0.00    +0.000 C 
ENDBRANCH  11  22
TORSDOF 5
ENDMDL
MODEL 7
REMARK VINA RESULT:      -5.9      6.698      9.664
REMARK  Name = 
REMARK  9 active torsions:
REMARK  status: ('A' for Active; 'I' for Inactive)
REMARK    1  A    between atoms: C_1  and  C_2
REMARK    2  A    between atoms: C_2  and  C_3
REMARK    3  A    between atoms: C_3  and  C_5
REMARK    4  A    between atoms: C_8  and  O_9
REMARK    5  A    between atoms: O_9  and  C_10
REMARK    6  A    between atoms: C_15  and  O_16
REMARK    7  A    between atoms: O_16  and  C_17
REMARK    8  A    between atoms: C_19  and  O_20
REMARK    9  A    between atoms: O_20  and  C_21
REMARK                            x       y       z     vdW  Elec       q    Type
REMARK                         _______ _______ _______ _____ _____    ______ ____
ROOT
ATOM      1  C   UNL     1       0.139  10.087  18.353  0.00  0.00    +0.000 A 
ATOM      2  C   UNL     1      -0.959   9.931  17.539  0.00  0.00    +0.000 A 
ATOM      3  C   UNL     1      -2.139  10.665  17.996  0.00  0.00    +0.000 A 
ATOM      4  C   UNL     1      -3.444  10.716  17.413  0.00  0.00    +0.000 A 
ATOM      5  C   UNL     1      -4.485  11.504  18.031  0.00  0.00    +0.000 A 
ATOM      6  C   UNL     1      -5.820  11.604  17.542  0.00  0.00    +0.000 A 
ATOM      7  C   UNL     1      -6.824  12.363  18.140  0.00  0.00    +0.000 A 
ATOM      8  C   UNL     1      -6.544  13.081  19.277  0.00  0.00    +0.000 A 
ATOM      9  C   UNL     1      -5.259  13.040  19.817  0.00  0.00    +0.000 A 
ATOM     10  C   UNL     1      -4.196  12.248  19.219  0.00  0.00    +0.000 A 
ATOM     11  C   UNL     1      -2.867  12.183  19.777  0.00  0.00    +0.000 A 
ATOM     12  C   UNL     1      -1.871  11.385  19.158  0.00  0.00    +0.000 A 
ATOM     13  S   UNL     1      -0.237  11.117  19.639  0.00  0.00    +0.000 S 
ENDROOT
BRANCH   1  14
ATOM     14  C   UNL     1       1.493   9.546  18.301  0.00  0.00    +0.000 C 
ATOM     15  O   UNL     1       2.364  10.002  17.555  0.00  0.00    +0.000 OA
BRANCH  14  17
ATOM     16  C   UNL     1       2.572   7.286  18.453  0.00  0.00    +0.000 C 
ATOM     17  C   UNL     1       1.823   8.375  19.211  0.00  0.00    +0.000 C 
ENDBRANCH  14  17
ENDBRANCH   1  14
BRANCH   4  18
ATOM     18  O   UNL     1      -3.503   9.945  16.285  0.00  0.00    +0.000 OA
ATOM     19  C   UNL     1      -3.393  10.422  14.962  0.00  0.00    +0.000 C 
ENDBRANCH   4  18
BRANCH   9  20
ATOM     20  O   UNL     1      -4.954  13.757  20.952  0.00  0.00    +0.000 OA
ATOM     21  C   UNL     1      -5.925  13.914  21.973  0.00  0.00    +0.000 C 
ENDBRANCH   9  20
BRANCH  11  22
ATOM     22  O   UNL     1      -2.694  12.934  20.934  0.00  0.00    +0.000 OA
ATOM     23  C   UNL     1      -1.748  13.976  21.057  0.00  0.00    +0.000 C 
ENDBRANCH  11  22
TORSDOF 5
ENDMDL
MODEL 8
REMARK VINA RESULT:      -5.8      9.241     12.091
REMARK  Name = 
REMARK  9 active torsions:
REMARK  status: ('A' for Active; 'I' for Inactive)
REMARK    1  A    between atoms: C_1  and  C_2
REMARK    2  A    between atoms: C_2  and  C_3
REMARK    3  A    between atoms: C_3  and  C_5
REMARK    4  A    between atoms: C_8  and  O_9
REMARK    5  A    between atoms: O_9  and  C_10
REMARK    6  A    between atoms: C_15  and  O_16
REMARK    7  A    between atoms: O_16  and  C_17
REMARK    8  A    between atoms: C_19  and  O_20
REMARK    9  A    between atoms: O_20  and  C_21
REMARK                            x       y       z     vdW  Elec       q    Type
REMARK                         _______ _______ _______ _____ _____    ______ ____
ROOT
ATOM      1  C   UNL     1       7.801  12.350  22.941  0.00  0.00    +0.000 A 
ATOM      2  C   UNL     1       8.378  11.565  21.969  0.00  0.00    +0.000 A 
ATOM      3  C   UNL     1       9.043  12.329  20.914  0.00  0.00    +0.000 A 
ATOM      4  C   UNL     1       9.722  11.848  19.751  0.00  0.00    +0.000 A 
ATOM      5  C   UNL     1      10.312  12.779  18.817  0.00  0.00    +0.000 A 
ATOM      6  C   UNL     1      10.990  12.402  17.622  0.00  0.00    +0.000 A 
ATOM      7  C   UNL     1      11.557  13.301  16.720  0.00  0.00    +0.000 A 
ATOM      8  C   UNL     1      11.481  14.649  16.970  0.00  0.00    +0.000 A 
ATOM      9  C   UNL     1      10.837  15.100  18.122  0.00  0.00    +0.000 A 
ATOM     10  C   UNL     1      10.228  14.184  19.073  0.00  0.00    +0.000 A 
ATOM     11  C   UNL     1       9.544  14.637  20.261  0.00  0.00    +0.000 A 
ATOM     12  C   UNL     1       8.959  13.700  21.149  0.00  0.00    +0.000 A 
ATOM     13  S   UNL     1       8.071  13.983  22.600  0.00  0.00    +0.000 S 
ENDROOT
BRANCH   1  14
ATOM     14  C   UNL     1       7.039  12.034  24.144  0.00  0.00    +0.000 C 
ATOM     15  O   UNL     1       5.867  11.650  24.108  0.00  0.00    +0.000 OA
BRANCH  14  17
ATOM     16  C   UNL     1       6.856  11.682  26.622  0.00  0.00    +0.000 C 
ATOM     17  C   UNL     1       7.736  12.190  25.485  0.00  0.00    +0.000 C 
ENDBRANCH  14  17
ENDBRANCH   1  14
BRANCH   4  18
ATOM     18  O   UNL     1       9.694  10.482  19.702  0.00  0.00    +0.000 OA
ATOM     19  C   UNL     1       8.916   9.711  18.813  0.00  0.00    +0.000 C 
ENDBRANCH   4  18
BRANCH   9  20
ATOM     20  O   UNL     1      10.755  16.446  18.396  0.00  0.00    +0.000 OA
ATOM     21  C   UNL     1      10.699  17.384  17.334  0.00  0.00    +0.000 C 
ENDBRANCH   9  20
BRANCH  11  22
ATOM     22  O   UNL     1       9.513  16.019  20.411  0.00  0.00    +0.000 OA
ATOM     23  C   UNL     1       8.322  16.777  20.441  0.00  0.00    +0.000 C 
ENDBRANCH  11  22
TORSDOF 5
ENDMDL
MODEL 9
REMARK VINA RESULT:      -5.8      8.818     10.765
REMARK  Name = 
REMARK  9 active torsions:
REMARK  status: ('A' for Active; 'I' for Inactive)
REMARK    1  A    between atoms: C_1  and  C_2
REMARK    2  A    between atoms: C_2  and  C_3
REMARK    3  A    between atoms: C_3  and  C_5
REMARK    4  A    between atoms: C_8  and  O_9
REMARK    5  A    between atoms: O_9  and  C_10
REMARK    6  A    between atoms: C_15  and  O_16
REMARK    7  A    between atoms: O_16  and  C_17
REMARK    8  A    between atoms: C_19  and  O_20
REMARK    9  A    between atoms: O_20  and  C_21
REMARK                            x       y       z     vdW  Elec       q    Type
REMARK                         _______ _______ _______ _____ _____    ______ ____
ROOT
ATOM      1  C   UNL     1       0.176  12.620  19.707  0.00  0.00    +0.000 A 
ATOM      2  C   UNL     1      -0.571  12.163  18.647  0.00  0.00    +0.000 A 
ATOM      3  C   UNL     1      -2.009  12.125  18.913  0.00  0.00    +0.000 A 
ATOM      4  C   UNL     1      -3.069  11.692  18.055  0.00  0.00    +0.000 A 
ATOM      5  C   UNL     1      -4.437  11.727  18.516  0.00  0.00    +0.000 A 
ATOM      6  C   UNL     1      -5.559  11.301  17.748  0.00  0.00    +0.000 A 
ATOM      7  C   UNL     1      -6.879  11.333  18.196  0.00  0.00    +0.000 A 
ATOM      8  C   UNL     1      -7.156  11.807  19.454  0.00  0.00    +0.000 A 
ATOM      9  C   UNL     1      -6.113  12.247  20.268  0.00  0.00    +0.000 A 
ATOM     10  C   UNL     1      -4.726  12.215  19.830  0.00  0.00    +0.000 A 
ATOM     11  C   UNL     1      -3.636  12.652  20.668  0.00  0.00    +0.000 A 
ATOM     12  C   UNL     1      -2.302  12.588  20.194  0.00  0.00    +0.000 A 
ATOM     13  S   UNL     1      -0.838  13.014  21.000  0.00  0.00    +0.000 S 
ENDROOT
BRANCH   1  14
ATOM     14  C   UNL     1       1.610  12.808  19.899  0.00  0.00    +0.000 C 
ATOM     15  O   UNL     1       2.126  12.902  21.016  0.00  0.00    +0.000 OA
BRANCH  14  17
ATOM     16  C   UNL     1       2.683  14.336  18.222  0.00  0.00    +0.000 C 
ATOM     17  C   UNL     1       2.485  12.889  18.659  0.00  0.00    +0.000 C 
ENDBRANCH  14  17
ENDBRANCH   1  14
BRANCH   4  18
ATOM     18  O   UNL     1      -2.578  11.276  16.849  0.00  0.00    +0.000 OA
ATOM     19  C   UNL     1      -2.415   9.933  16.451  0.00  0.00    +0.000 C 
ENDBRANCH   4  18
BRANCH   9  20
ATOM     20  O   UNL     1      -6.368  12.733  21.531  0.00  0.00    +0.000 OA
ATOM     21  C   UNL     1      -7.613  13.349  21.815  0.00  0.00    +0.000 C 
ENDBRANCH   9  20
BRANCH  11  22
ATOM     22  O   UNL     1      -4.024  13.099  21.926  0.00  0.00    +0.000 OA
ATOM     23  C   UNL     1      -3.561  12.535  23.135  0.00  0.00    +0.000 C 
ENDBRANCH  11  22
TORSDOF 5
ENDMDL
