MODEL 1
REMARK VINA RESULT:      -7.6      0.000      0.000
REMARK  Name = 
REMARK  6 active torsions:
REMARK  status: ('A' for Active; 'I' for Inactive)
REMARK    1  A    between atoms: C_1  and  C_2
REMARK    2  A    between atoms: C_4  and  C_5
REMARK    3  A    between atoms: C_5  and  O_7
REMARK    4  A    between atoms: C_8  and  C_9
REMARK    5  A    between atoms: N_10  and  C_11
REMARK    6  A    between atoms: C_15  and  C_16
REMARK                            x       y       z     vdW  Elec       q    Type
REMARK                         _______ _______ _______ _____ _____    ______ ____
ROOT
ATOM      1  C   UNL     1       2.740   7.451  18.981  0.00  0.00    +0.000 C 
ATOM      2  C   UNL     1       2.793   6.049  19.493  0.00  0.00    +0.000 A 
ATOM      3  C   UNL     1       1.817   5.439  20.254  0.00  0.00    +0.000 A 
ATOM      4  C   UNL     1       2.152   4.077  20.440  0.00  0.00    +0.000 A 
ATOM      5  C   UNL     1       3.389   3.898  19.808  0.00  0.00    +0.000 A 
ATOM      6  C   UNL     1       4.250   2.670  19.833  0.00  0.00    +0.000 C 
ATOM      7  N   UNL     1       3.771   5.101  19.188  0.00  0.00    +0.000 N 
ENDROOT
BRANCH   7   8
ATOM      8  C   UNL     1       4.939   5.318  18.377  0.00  0.00    +0.000 A 
ATOM      9  C   UNL     1       6.169   5.644  18.955  0.00  0.00    +0.000 A 
ATOM     10  C   UNL     1       7.292   5.877  18.157  0.00  0.00    +0.000 A 
ATOM     11  C   UNL     1       7.207   5.740  16.772  0.00  0.00    +0.000 A 
ATOM     12  C   UNL     1       6.002   5.378  16.155  0.00  0.00    +0.000 A 
ATOM     13  C   UNL     1       4.872   5.210  16.980  0.00  0.00    +0.000 A 
BRANCH  12  14
ATOM     14  C   UNL     1       5.903   5.201  14.659  0.00  0.00    +0.000 C 
ATOM     15  C   UNL     1       7.132   4.862  13.845  0.00  0.00    +0.000 C 
ATOM     16  C   UNL     1       6.079   3.820  14.062  0.00  0.00    +0.000 C 
ENDBRANCH  12  14
ENDBRANCH   7   8
BRANCH   4  17
ATOM     17  C   UNL     1       1.392   3.045  21.157  0.00  0.00    +0.000 C 
ATOM     18  O   UNL     1       1.684   2.610  22.265  0.00  0.00    +0.000 OA
BRANCH  17  19
ATOM     19  O   UNL     1       0.307   2.556  20.501  0.00  0.00    +0.000 OA
ATOM     20  H   UNL     1       0.432   2.497  19.540  0.00  0.00    +0.000 HD
ENDBRANCH  17  19
ENDBRANCH   4  17
TORSDOF 4
ENDMDL
MODEL 2
REMARK VINA RESULT:      -7.6      1.524      1.920
REMARK  Name = 
REMARK  6 active torsions:
REMARK  status: ('A' for Active; 'I' for Inactive)
REMARK    1  A    between atoms: C_1  and  C_2
REMARK    2  A    between atoms: C_4  and  C_5
REMARK    3  A    between atoms: C_5  and  O_7
REMARK    4  A    between atoms: C_8  and  C_9
REMARK    5  A    between atoms: N_10  and  C_11
REMARK    6  A    between atoms: C_15  and  C_16
REMARK                            x       y       z     vdW  Elec       q    Type
REMARK                         _______ _______ _______ _____ _____    ______ ____
ROOT
ATOM      1  C   UNL     1       3.397   7.044  17.822  0.00  0.00    +0.000 C 
ATOM      2  C   UNL     1       3.054   5.624  18.128  0.00  0.00    +0.000 A 
ATOM      3  C   UNL     1       1.951   5.204  18.845  0.00  0.00    +0.000 A 
ATOM      4  C   UNL     1       1.887   3.791  18.820  0.00  0.00    +0.000 A 
ATOM      5  C   UNL     1       3.017   3.370  18.107  0.00  0.00    +0.000 A 
ATOM      6  C   UNL     1       3.493   1.960  17.916  0.00  0.00    +0.000 C 
ATOM      7  N   UNL     1       3.720   4.496  17.643  0.00  0.00    +0.000 N 
ENDROOT
BRANCH   7   8
ATOM      8  C   UNL     1       4.893   4.496  16.812  0.00  0.00    +0.000 A 
ATOM      9  C   UNL     1       6.173   4.568  17.370  0.00  0.00    +0.000 A 
ATOM     10  C   UNL     1       7.306   4.593  16.553  0.00  0.00    +0.000 A 
ATOM     11  C   UNL     1       7.173   4.497  15.169  0.00  0.00    +0.000 A 
ATOM     12  C   UNL     1       5.910   4.386  14.571  0.00  0.00    +0.000 A 
ATOM     13  C   UNL     1       4.783   4.427  15.416  0.00  0.00    +0.000 A 
BRANCH  12  14
ATOM     14  C   UNL     1       5.753   4.256  13.075  0.00  0.00    +0.000 C 
ATOM     15  C   UNL     1       6.963   4.038  12.194  0.00  0.00    +0.000 C 
ATOM     16  C   UNL     1       5.999   2.915  12.417  0.00  0.00    +0.000 C 
ENDBRANCH  12  14
ENDBRANCH   7   8
BRANCH   4  17
ATOM     17  C   UNL     1       0.872   2.917  19.423  0.00  0.00    +0.000 C 
ATOM     18  O   UNL     1       0.188   2.113  18.802  0.00  0.00    +0.000 OA
BRANCH  17  19
ATOM     19  O   UNL     1       0.704   3.058  20.765  0.00  0.00    +0.000 OA
ATOM     20  H   UNL     1       1.469   2.756  21.283  0.00  0.00    +0.000 HD
ENDBRANCH  17  19
ENDBRANCH   4  17
TORSDOF 4
ENDMDL
MODEL 3
REMARK VINA RESULT:      -7.0      1.085      2.441
REMARK  Name = 
REMARK  6 active torsions:
REMARK  status: ('A' for Active; 'I' for Inactive)
REMARK    1  A    between atoms: C_1  and  C_2
REMARK    2  A    between atoms: C_4  and  C_5
REMARK    3  A    between atoms: C_5  and  O_7
REMARK    4  A    between atoms: C_8  and  C_9
REMARK    5  A    between atoms: N_10  and  C_11
REMARK    6  A    between atoms: C_15  and  C_16
REMARK                            x       y       z     vdW  Elec       q    Type
REMARK                         _______ _______ _______ _____ _____    ______ ____
ROOT
ATOM      1  C   UNL     1       2.599   7.525  18.544  0.00  0.00    +0.000 C 
ATOM      2  C   UNL     1       2.760   6.177  19.165  0.00  0.00    +0.000 A 
ATOM      3  C   UNL     1       1.949   5.648  20.148  0.00  0.00    +0.000 A 
ATOM      4  C   UNL     1       2.327   4.307  20.395  0.00  0.00    +0.000 A 
ATOM      5  C   UNL     1       3.428   4.062  19.565  0.00  0.00    +0.000 A 
ATOM      6  C   UNL     1       4.292   2.835  19.544  0.00  0.00    +0.000 C 
ATOM      7  N   UNL     1       3.676   5.198  18.774  0.00  0.00    +0.000 N 
ENDROOT
BRANCH   7   8
ATOM      8  C   UNL     1       4.671   5.330  17.745  0.00  0.00    +0.000 A 
ATOM      9  C   UNL     1       4.564   4.624  16.543  0.00  0.00    +0.000 A 
ATOM     10  C   UNL     1       5.549   4.739  15.559  0.00  0.00    +0.000 A 
ATOM     11  C   UNL     1       6.629   5.599  15.747  0.00  0.00    +0.000 A 
ATOM     12  C   UNL     1       6.756   6.354  16.922  0.00  0.00    +0.000 A 
ATOM     13  C   UNL     1       5.780   6.170  17.922  0.00  0.00    +0.000 A 
BRANCH  12  14
ATOM     14  C   UNL     1       7.907   7.308  17.128  0.00  0.00    +0.000 C 
ATOM     15  C   UNL     1       7.666   8.686  17.701  0.00  0.00    +0.000 C 
ATOM     16  C   UNL     1       8.346   7.647  18.537  0.00  0.00    +0.000 C 
ENDBRANCH  12  14
ENDBRANCH   7   8
BRANCH   4  17
ATOM     17  C   UNL     1       1.725   3.352  21.334  0.00  0.00    +0.000 C 
ATOM     18  O   UNL     1       2.211   3.038  22.414  0.00  0.00    +0.000 OA
BRANCH  17  19
ATOM     19  O   UNL     1       0.555   2.790  20.927  0.00  0.00    +0.000 OA
ATOM     20  H   UNL     1       0.420   2.836  19.966  0.00  0.00    +0.000 HD
ENDBRANCH  17  19
ENDBRANCH   4  17
TORSDOF 4
ENDMDL
MODEL 4
REMARK VINA RESULT:      -7.0      0.757      1.196
REMARK  Name = 
REMARK  6 active torsions:
REMARK  status: ('A' for Active; 'I' for Inactive)
REMARK    1  A    between atoms: C_1  and  C_2
REMARK    2  A    between atoms: C_4  and  C_5
REMARK    3  A    between atoms: C_5  and  O_7
REMARK    4  A    between atoms: C_8  and  C_9
REMARK    5  A    between atoms: N_10  and  C_11
REMARK    6  A    between atoms: C_15  and  C_16
REMARK                            x       y       z     vdW  Elec       q    Type
REMARK                         _______ _______ _______ _____ _____    ______ ____
ROOT
ATOM      1  C   UNL     1       2.892   7.356  18.207  0.00  0.00    +0.000 C 
ATOM      2  C   UNL     1       3.005   6.055  18.929  0.00  0.00    +0.000 A 
ATOM      3  C   UNL     1       2.101   5.572  19.853  0.00  0.00    +0.000 A 
ATOM      4  C   UNL     1       2.469   4.258  20.226  0.00  0.00    +0.000 A 
ATOM      5  C   UNL     1       3.654   3.983  19.533  0.00  0.00    +0.000 A 
ATOM      6  C   UNL     1       4.532   2.775  19.685  0.00  0.00    +0.000 C 
ATOM      7  N   UNL     1       3.970   5.071  18.701  0.00  0.00    +0.000 N 
ENDROOT
BRANCH   7   8
ATOM      8  C   UNL     1       5.066   5.157  17.775  0.00  0.00    +0.000 A 
ATOM      9  C   UNL     1       6.173   5.969  18.039  0.00  0.00    +0.000 A 
ATOM     10  C   UNL     1       7.222   6.065  17.121  0.00  0.00    +0.000 A 
ATOM     11  C   UNL     1       7.197   5.313  15.949  0.00  0.00    +0.000 A 
ATOM     12  C   UNL     1       6.124   4.457  15.662  0.00  0.00    +0.000 A 
ATOM     13  C   UNL     1       5.051   4.429  16.576  0.00  0.00    +0.000 A 
BRANCH  12  14
ATOM     14  C   UNL     1       6.096   3.617  14.408  0.00  0.00    +0.000 C 
ATOM     15  C   UNL     1       5.203   4.001  13.250  0.00  0.00    +0.000 C 
ATOM     16  C   UNL     1       6.685   4.175  13.129  0.00  0.00    +0.000 C 
ENDBRANCH  12  14
ENDBRANCH   7   8
BRANCH   4  17
ATOM     17  C   UNL     1       1.783   3.352  21.157  0.00  0.00    +0.000 C 
ATOM     18  O   UNL     1       0.751   2.744  20.903  0.00  0.00    +0.000 OA
BRANCH  17  19
ATOM     19  O   UNL     1       2.363   3.224  22.380  0.00  0.00    +0.000 OA
ATOM     20  H   UNL     1       2.182   3.973  22.972  0.00  0.00    +0.000 HD
ENDBRANCH  17  19
ENDBRANCH   4  17
TORSDOF 4
ENDMDL
MODEL 5
REMARK VINA RESULT:      -7.0      3.389      6.553
REMARK  Name = 
REMARK  6 active torsions:
REMARK  status: ('A' for Active; 'I' for Inactive)
REMARK    1  A    between atoms: C_1  and  C_2
REMARK    2  A    between atoms: C_4  and  C_5
REMARK    3  A    between atoms: C_5  and  O_7
REMARK    4  A    between atoms: C_8  and  C_9
REMARK    5  A    between atoms: N_10  and  C_11
REMARK    6  A    between atoms: C_15  and  C_16
REMARK                            x       y       z     vdW  Elec       q    Type
REMARK                         _______ _______ _______ _____ _____    ______ ____
ROOT
ATOM      1  C   UNL     1       1.502   4.242  18.123  0.00  0.00    +0.000 C 
ATOM      2  C   UNL     1       2.886   4.662  17.757  0.00  0.00    +0.000 A 
ATOM      3  C   UNL     1       3.847   3.847  17.194  0.00  0.00    +0.000 A 
ATOM      4  C   UNL     1       4.986   4.622  16.868  0.00  0.00    +0.000 A 
ATOM      5  C   UNL     1       4.699   5.922  17.301  0.00  0.00    +0.000 A 
ATOM      6  C   UNL     1       5.632   7.097  17.318  0.00  0.00    +0.000 C 
ATOM      7  N   UNL     1       3.390   5.963  17.814  0.00  0.00    +0.000 N 
ENDROOT
BRANCH   7   8
ATOM      8  C   UNL     1       2.690   7.124  18.293  0.00  0.00    +0.000 A 
ATOM      9  C   UNL     1       2.394   8.192  17.441  0.00  0.00    +0.000 A 
ATOM     10  C   UNL     1       1.735   9.326  17.923  0.00  0.00    +0.000 A 
ATOM     11  C   UNL     1       1.324   9.385  19.253  0.00  0.00    +0.000 A 
ATOM     12  C   UNL     1       1.569   8.321  20.132  0.00  0.00    +0.000 A 
ATOM     13  C   UNL     1       2.289   7.217  19.635  0.00  0.00    +0.000 A 
BRANCH  12  14
ATOM     14  C   UNL     1       1.106   8.361  21.569  0.00  0.00    +0.000 C 
ATOM     15  C   UNL     1       0.593   9.650  22.172  0.00  0.00    +0.000 C 
ATOM     16  C   UNL     1      -0.367   8.541  21.869  0.00  0.00    +0.000 C 
ENDBRANCH  12  14
ENDBRANCH   7   8
BRANCH   4  17
ATOM     17  C   UNL     1       6.231   4.180  16.228  0.00  0.00    +0.000 C 
ATOM     18  O   UNL     1       6.328   3.842  15.054  0.00  0.00    +0.000 OA
BRANCH  17  19
ATOM     19  O   UNL     1       7.323   4.144  17.037  0.00  0.00    +0.000 OA
ATOM     20  H   UNL     1       7.202   4.630  17.869  0.00  0.00    +0.000 HD
ENDBRANCH  17  19
ENDBRANCH   4  17
TORSDOF 4
ENDMDL
MODEL 6
REMARK VINA RESULT:      -6.8      2.493      5.939
REMARK  Name = 
REMARK  6 active torsions:
REMARK  status: ('A' for Active; 'I' for Inactive)
REMARK    1  A    between atoms: C_1  and  C_2
REMARK    2  A    between atoms: C_4  and  C_5
REMARK    3  A    between atoms: C_5  and  O_7
REMARK    4  A    between atoms: C_8  and  C_9
REMARK    5  A    between atoms: N_10  and  C_11
REMARK    6  A    between atoms: C_15  and  C_16
REMARK                            x       y       z     vdW  Elec       q    Type
REMARK                         _______ _______ _______ _____ _____    ______ ____
ROOT
ATOM      1  C   UNL     1       5.228   6.861  17.173  0.00  0.00    +0.000 C 
ATOM      2  C   UNL     1       4.471   5.743  17.810  0.00  0.00    +0.000 A 
ATOM      3  C   UNL     1       4.884   4.427  17.865  0.00  0.00    +0.000 A 
ATOM      4  C   UNL     1       3.974   3.685  18.656  0.00  0.00    +0.000 A 
ATOM      5  C   UNL     1       2.972   4.586  19.033  0.00  0.00    +0.000 A 
ATOM      6  C   UNL     1       1.698   4.272  19.761  0.00  0.00    +0.000 C 
ATOM      7  N   UNL     1       3.292   5.867  18.548  0.00  0.00    +0.000 N 
ENDROOT
BRANCH   7   8
ATOM      8  C   UNL     1       2.559   7.082  18.779  0.00  0.00    +0.000 A 
ATOM      9  C   UNL     1       2.218   7.931  17.722  0.00  0.00    +0.000 A 
ATOM     10  C   UNL     1       1.528   9.122  17.959  0.00  0.00    +0.000 A 
ATOM     11  C   UNL     1       1.130   9.455  19.253  0.00  0.00    +0.000 A 
ATOM     12  C   UNL     1       1.418   8.614  20.336  0.00  0.00    +0.000 A 
ATOM     13  C   UNL     1       2.170   7.450  20.075  0.00  0.00    +0.000 A 
BRANCH  12  14
ATOM     14  C   UNL     1       0.971   8.950  21.738  0.00  0.00    +0.000 C 
ATOM     15  C   UNL     1       0.067  10.135  21.990  0.00  0.00    +0.000 C 
ATOM     16  C   UNL     1      -0.480   8.748  22.122  0.00  0.00    +0.000 C 
ENDBRANCH  12  14
ENDBRANCH   7   8
BRANCH   4  17
ATOM     17  C   UNL     1       4.032   2.260  19.009  0.00  0.00    +0.000 C 
ATOM     18  O   UNL     1       3.319   1.393  18.519  0.00  0.00    +0.000 OA
BRANCH  17  19
ATOM     19  O   UNL     1       4.944   1.931  19.962  0.00  0.00    +0.000 OA
ATOM     20  H   UNL     1       5.800   2.374  19.845  0.00  0.00    +0.000 HD
ENDBRANCH  17  19
ENDBRANCH   4  17
TORSDOF 4
ENDMDL
MODEL 7
REMARK VINA RESULT:      -6.7      3.475      6.250
REMARK  Name = 
REMARK  6 active torsions:
REMARK  status: ('A' for Active; 'I' for Inactive)
REMARK    1  A    between atoms: C_1  and  C_2
REMARK    2  A    between atoms: C_4  and  C_5
REMARK    3  A    between atoms: C_5  and  O_7
REMARK    4  A    between atoms: C_8  and  C_9
REMARK    5  A    between atoms: N_10  and  C_11
REMARK    6  A    between atoms: C_15  and  C_16
REMARK                            x       y       z     vdW  Elec       q    Type
REMARK                         _______ _______ _______ _____ _____    ______ ____
ROOT
ATOM      1  C   UNL     1       2.030   3.670  17.706  0.00  0.00    +0.000 C 
ATOM      2  C   UNL     1       3.358   4.287  17.417  0.00  0.00    +0.000 A 
ATOM      3  C   UNL     1       4.358   3.714  16.658  0.00  0.00    +0.000 A 
ATOM      4  C   UNL     1       5.413   4.643  16.496  0.00  0.00    +0.000 A 
ATOM      5  C   UNL     1       5.038   5.778  17.226  0.00  0.00    +0.000 A 
ATOM      6  C   UNL     1       5.870   6.997  17.495  0.00  0.00    +0.000 C 
ATOM      7  N   UNL     1       3.754   5.581  17.764  0.00  0.00    +0.000 N 
ENDROOT
BRANCH   7   8
ATOM      8  C   UNL     1       2.981   6.532  18.516  0.00  0.00    +0.000 A 
ATOM      9  C   UNL     1       2.688   6.318  19.866  0.00  0.00    +0.000 A 
ATOM     10  C   UNL     1       1.915   7.236  20.581  0.00  0.00    +0.000 A 
ATOM     11  C   UNL     1       1.465   8.402  19.965  0.00  0.00    +0.000 A 
ATOM     12  C   UNL     1       1.767   8.673  18.624  0.00  0.00    +0.000 A 
ATOM     13  C   UNL     1       2.495   7.700  17.910  0.00  0.00    +0.000 A 
BRANCH  12  14
ATOM     14  C   UNL     1       1.307   9.944  17.951  0.00  0.00    +0.000 C 
ATOM     15  C   UNL     1       0.494  10.964  18.717  0.00  0.00    +0.000 C 
ATOM     16  C   UNL     1       1.918  11.266  18.367  0.00  0.00    +0.000 C 
ENDBRANCH  12  14
ENDBRANCH   7   8
BRANCH   4  17
ATOM     17  C   UNL     1       6.663   4.475  15.743  0.00  0.00    +0.000 C 
ATOM     18  O   UNL     1       6.731   4.367  14.524  0.00  0.00    +0.000 OA
BRANCH  17  19
ATOM     19  O   UNL     1       7.795   4.427  16.493  0.00  0.00    +0.000 OA
ATOM     20  H   UNL     1       8.255   5.281  16.552  0.00  0.00    +0.000 HD
ENDBRANCH  17  19
ENDBRANCH   4  17
TORSDOF 4
ENDMDL
MODEL 8
REMARK VINA RESULT:      -6.5      2.982      4.405
REMARK  Name = 
REMARK  6 active torsions:
REMARK  status: ('A' for Active; 'I' for Inactive)
REMARK    1  A    between atoms: C_1  and  C_2
REMARK    2  A    between atoms: C_4  and  C_5
REMARK    3  A    between atoms: C_5  and  O_7
REMARK    4  A    between atoms: C_8  and  C_9
REMARK    5  A    between atoms: N_10  and  C_11
REMARK    6  A    between atoms: C_15  and  C_16
REMARK                            x       y       z     vdW  Elec       q    Type
REMARK                         _______ _______ _______ _____ _____    ______ ____
ROOT
ATOM      1  C   UNL     1       2.150   4.543  21.108  0.00  0.00    +0.000 C 
ATOM      2  C   UNL     1       1.963   5.898  20.511  0.00  0.00    +0.000 A 
ATOM      3  C   UNL     1       1.234   6.926  21.073  0.00  0.00    +0.000 A 
ATOM      4  C   UNL     1       1.390   8.094  20.289  0.00  0.00    +0.000 A 
ATOM      5  C   UNL     1       2.196   7.722  19.206  0.00  0.00    +0.000 A 
ATOM      6  C   UNL     1       2.545   8.555  18.008  0.00  0.00    +0.000 C 
ATOM      7  N   UNL     1       2.586   6.379  19.357  0.00  0.00    +0.000 N 
ENDROOT
BRANCH   7   8
ATOM      8  C   UNL     1       3.472   5.639  18.500  0.00  0.00    +0.000 A 
ATOM      9  C   UNL     1       2.980   4.688  17.601  0.00  0.00    +0.000 A 
ATOM     10  C   UNL     1       3.852   3.956  16.791  0.00  0.00    +0.000 A 
ATOM     11  C   UNL     1       5.223   4.201  16.837  0.00  0.00    +0.000 A 
ATOM     12  C   UNL     1       5.755   5.171  17.697  0.00  0.00    +0.000 A 
ATOM     13  C   UNL     1       4.858   5.850  18.548  0.00  0.00    +0.000 A 
BRANCH  12  14
ATOM     14  C   UNL     1       7.235   5.464  17.739  0.00  0.00    +0.000 C 
ATOM     15  C   UNL     1       7.732   6.845  18.105  0.00  0.00    +0.000 C 
ATOM     16  C   UNL     1       7.904   5.717  19.074  0.00  0.00    +0.000 C 
ENDBRANCH  12  14
ENDBRANCH   7   8
BRANCH   4  17
ATOM     17  C   UNL     1       0.822   9.427  20.524  0.00  0.00    +0.000 C 
ATOM     18  O   UNL     1      -0.019   9.961  19.810  0.00  0.00    +0.000 OA
BRANCH  17  19
ATOM     19  O   UNL     1       1.304  10.085  21.612  0.00  0.00    +0.000 OA
ATOM     20  H   UNL     1       0.795  10.880  21.838  0.00  0.00    +0.000 HD
ENDBRANCH  17  19
ENDBRANCH   4  17
TORSDOF 4
ENDMDL
MODEL 9
REMARK VINA RESULT:      -6.3      3.275      6.609
REMARK  Name = 
REMARK  6 active torsions:
REMARK  status: ('A' for Active; 'I' for Inactive)
REMARK    1  A    between atoms: C_1  and  C_2
REMARK    2  A    between atoms: C_4  and  C_5
REMARK    3  A    between atoms: C_5  and  O_7
REMARK    4  A    between atoms: C_8  and  C_9
REMARK    5  A    between atoms: N_10  and  C_11
REMARK    6  A    between atoms: C_15  and  C_16
REMARK                            x       y       z     vdW  Elec       q    Type
REMARK                         _______ _______ _______ _____ _____    ______ ____
ROOT
ATOM      1  C   UNL     1       1.448   4.535  19.963  0.00  0.00    +0.000 C 
ATOM      2  C   UNL     1       2.672   4.872  19.179  0.00  0.00    +0.000 A 
ATOM      3  C   UNL     1       3.592   3.960  18.702  0.00  0.00    +0.000 A 
ATOM      4  C   UNL     1       4.544   4.632  17.898  0.00  0.00    +0.000 A 
ATOM      5  C   UNL     1       4.196   5.987  17.948  0.00  0.00    +0.000 A 
ATOM      6  C   UNL     1       4.968   7.142  17.379  0.00  0.00    +0.000 C 
ATOM      7  N   UNL     1       3.020   6.138  18.704  0.00  0.00    +0.000 N 
ENDROOT
BRANCH   7   8
ATOM      8  C   UNL     1       2.295   7.359  18.934  0.00  0.00    +0.000 A 
ATOM      9  C   UNL     1       1.899   8.175  17.871  0.00  0.00    +0.000 A 
ATOM     10  C   UNL     1       1.217   9.371  18.107  0.00  0.00    +0.000 A 
ATOM     11  C   UNL     1       0.884   9.742  19.408  0.00  0.00    +0.000 A 
ATOM     12  C   UNL     1       1.230   8.935  20.500  0.00  0.00    +0.000 A 
ATOM     13  C   UNL     1       1.971   7.765  20.237  0.00  0.00    +0.000 A 
BRANCH  12  14
ATOM     14  C   UNL     1       0.853   9.312  21.912  0.00  0.00    +0.000 C 
ATOM     15  C   UNL     1      -0.207  10.360  22.167  0.00  0.00    +0.000 C 
ATOM     16  C   UNL     1      -0.509   8.921  22.446  0.00  0.00    +0.000 C 
ENDBRANCH  12  14
ENDBRANCH   7   8
BRANCH   4  17
ATOM     17  C   UNL     1       5.682   4.059  17.168  0.00  0.00    +0.000 C 
ATOM     18  O   UNL     1       5.626   3.626  16.023  0.00  0.00    +0.000 OA
BRANCH  17  19
ATOM     19  O   UNL     1       6.853   4.011  17.856  0.00  0.00    +0.000 OA
ATOM     20  H   UNL     1       6.806   3.469  18.660  0.00  0.00    +0.000 HD
ENDBRANCH  17  19
ENDBRANCH   4  17
TORSDOF 4
ENDMDL
