MODEL 1
REMARK VINA RESULT:      -8.3      0.000      0.000
REMARK  Name = 
REMARK  3 active torsions:
REMARK  status: ('A' for Active; 'I' for Inactive)
REMARK    1  A    between atoms: C_1  and  C_2
REMARK    2  A    between atoms: C_2  and  C_3
REMARK    3  A    between atoms: C_2  and  C_4
REMARK                            x       y       z     vdW  Elec       q    Type
REMARK                         _______ _______ _______ _____ _____    ______ ____
ROOT
ATOM      1  C   UNL     1       7.145   4.597  15.073  0.00  0.00    +0.000 C 
ATOM      2  C   UNL     1       6.567   5.151  16.155  0.00  0.00    +0.000 C 
ATOM      3  C   UNL     1       5.535   6.256  16.199  0.00  0.00    +0.000 C 
ATOM      4  C   UNL     1       4.173   5.738  16.699  0.00  0.00    +0.000 C 
ATOM      5  C   UNL     1       4.348   4.831  17.873  0.00  0.00    +0.000 A 
ATOM      6  C   UNL     1       5.580   4.312  18.238  0.00  0.00    +0.000 A 
ATOM      7  N   UNL     1       5.399   3.551  19.361  0.00  0.00    +0.000 N 
ATOM      8  C   UNL     1       4.051   3.438  19.635  0.00  0.00    +0.000 A 
ATOM      9  C   UNL     1       3.385   2.678  20.604  0.00  0.00    +0.000 A 
ATOM     10  C   UNL     1       1.988   2.718  20.608  0.00  0.00    +0.000 A 
ATOM     11  C   UNL     1       1.285   3.500  19.695  0.00  0.00    +0.000 A 
ATOM     12  C   UNL     1       1.964   4.274  18.749  0.00  0.00    +0.000 A 
ATOM     13  C   UNL     1       3.370   4.238  18.714  0.00  0.00    +0.000 A 
ATOM     14  C   UNL     1       6.805   4.486  17.492  0.00  0.00    +0.000 C 
ATOM     15  O   UNL     1       7.902   4.076  17.849  0.00  0.00    +0.000 OA
ATOM     16  H   UNL     1       6.139   3.057  19.843  0.00  0.00    +0.000 HD
ENDROOT
BRANCH   1  18
ATOM     17  C   UNL     1       8.079   5.384  12.890  0.00  0.00    +0.000 C 
ATOM     18  C   UNL     1       6.831   4.917  13.631  0.00  0.00    +0.000 C 
ATOM     19  C   UNL     1       6.227   3.684  12.953  0.00  0.00    +0.000 C 
ENDBRANCH   1  18
TORSDOF 1
ENDMDL
MODEL 2
REMARK VINA RESULT:      -7.7      2.368      6.188
REMARK  Name = 
REMARK  3 active torsions:
REMARK  status: ('A' for Active; 'I' for Inactive)
REMARK    1  A    between atoms: C_1  and  C_2
REMARK    2  A    between atoms: C_2  and  C_3
REMARK    3  A    between atoms: C_2  and  C_4
REMARK                            x       y       z     vdW  Elec       q    Type
REMARK                         _______ _______ _______ _____ _____    ______ ____
ROOT
ATOM      1  C   UNL     1       4.022   6.991  18.196  0.00  0.00    +0.000 C 
ATOM      2  C   UNL     1       4.767   5.935  17.820  0.00  0.00    +0.000 C 
ATOM      3  C   UNL     1       4.345   4.487  17.706  0.00  0.00    +0.000 C 
ATOM      4  C   UNL     1       4.334   4.016  16.239  0.00  0.00    +0.000 C 
ATOM      5  C   UNL     1       5.549   4.500  15.515  0.00  0.00    +0.000 A 
ATOM      6  C   UNL     1       6.382   5.479  16.030  0.00  0.00    +0.000 A 
ATOM      7  N   UNL     1       7.406   5.668  15.142  0.00  0.00    +0.000 N 
ATOM      8  C   UNL     1       7.163   4.947  13.991  0.00  0.00    +0.000 A 
ATOM      9  C   UNL     1       7.863   4.915  12.779  0.00  0.00    +0.000 A 
ATOM     10  C   UNL     1       7.341   4.121  11.752  0.00  0.00    +0.000 A 
ATOM     11  C   UNL     1       6.179   3.375  11.936  0.00  0.00    +0.000 A 
ATOM     12  C   UNL     1       5.505   3.397  13.161  0.00  0.00    +0.000 A 
ATOM     13  C   UNL     1       6.001   4.201  14.204  0.00  0.00    +0.000 A 
ATOM     14  C   UNL     1       6.139   6.217  17.249  0.00  0.00    +0.000 C 
ATOM     15  O   UNL     1       6.908   7.038  17.731  0.00  0.00    +0.000 OA
ATOM     16  H   UNL     1       8.163   6.327  15.273  0.00  0.00    +0.000 HD
ENDROOT
BRANCH   1  18
ATOM     17  C   UNL     1       2.325   6.691  20.009  0.00  0.00    +0.000 C 
ATOM     18  C   UNL     1       2.549   6.970  18.527  0.00  0.00    +0.000 C 
ATOM     19  C   UNL     1       1.914   8.304  18.124  0.00  0.00    +0.000 C 
ENDBRANCH   1  18
TORSDOF 1
ENDMDL
MODEL 3
REMARK VINA RESULT:      -7.4      1.818      6.110
REMARK  Name = 
REMARK  3 active torsions:
REMARK  status: ('A' for Active; 'I' for Inactive)
REMARK    1  A    between atoms: C_1  and  C_2
REMARK    2  A    between atoms: C_2  and  C_3
REMARK    3  A    between atoms: C_2  and  C_4
REMARK                            x       y       z     vdW  Elec       q    Type
REMARK                         _______ _______ _______ _____ _____    ______ ____
ROOT
ATOM      1  C   UNL     1       4.109   5.762  19.254  0.00  0.00    +0.000 C 
ATOM      2  C   UNL     1       4.808   4.815  18.602  0.00  0.00    +0.000 C 
ATOM      3  C   UNL     1       4.328   3.462  18.124  0.00  0.00    +0.000 C 
ATOM      4  C   UNL     1       4.282   3.389  16.586  0.00  0.00    +0.000 C 
ATOM      5  C   UNL     1       5.508   4.001  15.989  0.00  0.00    +0.000 A 
ATOM      6  C   UNL     1       6.385   4.782  16.723  0.00  0.00    +0.000 A 
ATOM      7  N   UNL     1       7.406   5.159  15.893  0.00  0.00    +0.000 N 
ATOM      8  C   UNL     1       7.123   4.771  14.600  0.00  0.00    +0.000 A 
ATOM      9  C   UNL     1       7.809   5.030  13.407  0.00  0.00    +0.000 A 
ATOM     10  C   UNL     1       7.245   4.550  12.221  0.00  0.00    +0.000 A 
ATOM     11  C   UNL     1       6.057   3.824  12.228  0.00  0.00    +0.000 A 
ATOM     12  C   UNL     1       5.397   3.551  13.430  0.00  0.00    +0.000 A 
ATOM     13  C   UNL     1       5.935   4.038  14.636  0.00  0.00    +0.000 A 
ATOM     14  C   UNL     1       6.184   5.186  18.095  0.00  0.00    +0.000 C 
ATOM     15  O   UNL     1       6.990   5.825  18.759  0.00  0.00    +0.000 OA
ATOM     16  H   UNL     1       8.190   5.733  16.176  0.00  0.00    +0.000 HD
ENDROOT
BRANCH   1  18
ATOM     17  C   UNL     1       2.392   4.803  20.799  0.00  0.00    +0.000 C 
ATOM     18  C   UNL     1       2.640   5.709  19.598  0.00  0.00    +0.000 C 
ATOM     19  C   UNL     1       2.125   7.125  19.870  0.00  0.00    +0.000 C 
ENDBRANCH   1  18
TORSDOF 1
ENDMDL
MODEL 4
REMARK VINA RESULT:      -7.4      2.566      3.596
REMARK  Name = 
REMARK  3 active torsions:
REMARK  status: ('A' for Active; 'I' for Inactive)
REMARK    1  A    between atoms: C_1  and  C_2
REMARK    2  A    between atoms: C_2  and  C_3
REMARK    3  A    between atoms: C_2  and  C_4
REMARK                            x       y       z     vdW  Elec       q    Type
REMARK                         _______ _______ _______ _____ _____    ______ ____
ROOT
ATOM      1  C   UNL     1       6.223   7.524  17.497  0.00  0.00    +0.000 C 
ATOM      2  C   UNL     1       5.451   6.443  17.282  0.00  0.00    +0.000 C 
ATOM      3  C   UNL     1       5.889   5.010  17.066  0.00  0.00    +0.000 C 
ATOM      4  C   UNL     1       5.476   4.110  18.246  0.00  0.00    +0.000 C 
ATOM      5  C   UNL     1       4.076   4.407  18.677  0.00  0.00    +0.000 A 
ATOM      6  C   UNL     1       3.392   5.537  18.260  0.00  0.00    +0.000 A 
ATOM      7  N   UNL     1       2.138   5.494  18.807  0.00  0.00    +0.000 N 
ATOM      8  C   UNL     1       2.053   4.442  19.695  0.00  0.00    +0.000 A 
ATOM      9  C   UNL     1       1.019   4.071  20.564  0.00  0.00    +0.000 A 
ATOM     10  C   UNL     1       1.241   2.975  21.403  0.00  0.00    +0.000 A 
ATOM     11  C   UNL     1       2.439   2.265  21.361  0.00  0.00    +0.000 A 
ATOM     12  C   UNL     1       3.453   2.630  20.470  0.00  0.00    +0.000 A 
ATOM     13  C   UNL     1       3.260   3.741  19.628  0.00  0.00    +0.000 A 
ATOM     14  C   UNL     1       3.958   6.602  17.465  0.00  0.00    +0.000 C 
ATOM     15  O   UNL     1       3.334   7.569  17.050  0.00  0.00    +0.000 OA
ATOM     16  H   UNL     1       1.425   6.198  18.661  0.00  0.00    +0.000 HD
ENDROOT
BRANCH   1  18
ATOM     17  C   UNL     1       8.243   8.946  17.887  0.00  0.00    +0.000 C 
ATOM     18  C   UNL     1       7.726   7.533  17.642  0.00  0.00    +0.000 C 
ATOM     19  C   UNL     1       8.136   6.600  18.784  0.00  0.00    +0.000 C 
ENDBRANCH   1  18
TORSDOF 1
ENDMDL
MODEL 5
REMARK VINA RESULT:      -7.3      2.628      3.670
REMARK  Name = 
REMARK  3 active torsions:
REMARK  status: ('A' for Active; 'I' for Inactive)
REMARK    1  A    between atoms: C_1  and  C_2
REMARK    2  A    between atoms: C_2  and  C_3
REMARK    3  A    between atoms: C_2  and  C_4
REMARK                            x       y       z     vdW  Elec       q    Type
REMARK                         _______ _______ _______ _____ _____    ______ ____
ROOT
ATOM      1  C   UNL     1       6.153   7.717  17.675  0.00  0.00    +0.000 C 
ATOM      2  C   UNL     1       5.271   6.927  17.034  0.00  0.00    +0.000 C 
ATOM      3  C   UNL     1       5.558   5.787  16.081  0.00  0.00    +0.000 C 
ATOM      4  C   UNL     1       5.153   4.429  16.687  0.00  0.00    +0.000 C 
ATOM      5  C   UNL     1       3.823   4.524  17.362  0.00  0.00    +0.000 A 
ATOM      6  C   UNL     1       3.216   5.736  17.648  0.00  0.00    +0.000 A 
ATOM      7  N   UNL     1       2.008   5.472  18.235  0.00  0.00    +0.000 N 
ATOM      8  C   UNL     1       1.894   4.119  18.478  0.00  0.00    +0.000 A 
ATOM      9  C   UNL     1       0.899   3.401  19.153  0.00  0.00    +0.000 A 
ATOM     10  C   UNL     1       1.082   2.022  19.297  0.00  0.00    +0.000 A 
ATOM     11  C   UNL     1       2.203   1.384  18.772  0.00  0.00    +0.000 A 
ATOM     12  C   UNL     1       3.176   2.109  18.078  0.00  0.00    +0.000 A 
ATOM     13  C   UNL     1       3.023   3.501  17.934  0.00  0.00    +0.000 A 
ATOM     14  C   UNL     1       3.817   7.033  17.437  0.00  0.00    +0.000 C 
ATOM     15  O   UNL     1       3.254   8.101  17.635  0.00  0.00    +0.000 OA
ATOM     16  H   UNL     1       1.355   6.181  18.542  0.00  0.00    +0.000 HD
ENDROOT
BRANCH   1  18
ATOM     17  C   UNL     1       8.327   8.925  17.939  0.00  0.00    +0.000 C 
ATOM     18  C   UNL     1       7.657   7.589  17.636  0.00  0.00    +0.000 C 
ATOM     19  C   UNL     1       8.105   6.518  18.634  0.00  0.00    +0.000 C 
ENDBRANCH   1  18
TORSDOF 1
ENDMDL
MODEL 6
REMARK VINA RESULT:      -7.0      4.603      6.677
REMARK  Name = 
REMARK  3 active torsions:
REMARK  status: ('A' for Active; 'I' for Inactive)
REMARK    1  A    between atoms: C_1  and  C_2
REMARK    2  A    between atoms: C_2  and  C_3
REMARK    3  A    between atoms: C_2  and  C_4
REMARK                            x       y       z     vdW  Elec       q    Type
REMARK                         _______ _______ _______ _____ _____    ______ ____
ROOT
ATOM      1  C   UNL     1       0.080   9.835  18.210  0.00  0.00    +0.000 C 
ATOM      2  C   UNL     1       1.095   9.322  18.932  0.00  0.00    +0.000 C 
ATOM      3  C   UNL     1       1.220   9.237  20.437  0.00  0.00    +0.000 C 
ATOM      4  C   UNL     1       1.160   7.777  20.927  0.00  0.00    +0.000 C 
ATOM      5  C   UNL     1       1.989   6.890  20.055  0.00  0.00    +0.000 A 
ATOM      6  C   UNL     1       2.474   7.297  18.824  0.00  0.00    +0.000 A 
ATOM      7  N   UNL     1       3.211   6.268  18.302  0.00  0.00    +0.000 N 
ATOM      8  C   UNL     1       3.077   5.149  19.098  0.00  0.00    +0.000 A 
ATOM      9  C   UNL     1       3.548   3.844  18.912  0.00  0.00    +0.000 A 
ATOM     10  C   UNL     1       3.204   2.889  19.874  0.00  0.00    +0.000 A 
ATOM     11  C   UNL     1       2.439   3.229  20.986  0.00  0.00    +0.000 A 
ATOM     12  C   UNL     1       1.996   4.542  21.173  0.00  0.00    +0.000 A 
ATOM     13  C   UNL     1       2.315   5.517  20.210  0.00  0.00    +0.000 A 
ATOM     14  C   UNL     1       2.165   8.556  18.187  0.00  0.00    +0.000 C 
ATOM     15  O   UNL     1       2.644   8.937  17.126  0.00  0.00    +0.000 OA
ATOM     16  H   UNL     1       3.685   6.299  17.408  0.00  0.00    +0.000 HD
ENDROOT
BRANCH   1  18
ATOM     17  C   UNL     1      -1.143  11.901  18.909  0.00  0.00    +0.000 C 
ATOM     18  C   UNL     1      -1.214  10.386  18.757  0.00  0.00    +0.000 C 
ATOM     19  C   UNL     1      -2.370   9.987  17.836  0.00  0.00    +0.000 C 
ENDBRANCH   1  18
TORSDOF 1
ENDMDL
MODEL 7
REMARK VINA RESULT:      -7.0      2.630      5.816
REMARK  Name = 
REMARK  3 active torsions:
REMARK  status: ('A' for Active; 'I' for Inactive)
REMARK    1  A    between atoms: C_1  and  C_2
REMARK    2  A    between atoms: C_2  and  C_3
REMARK    3  A    between atoms: C_2  and  C_4
REMARK                            x       y       z     vdW  Elec       q    Type
REMARK                         _______ _______ _______ _____ _____    ______ ____
ROOT
ATOM      1  C   UNL     1       2.366   2.784  20.213  0.00  0.00    +0.000 C 
ATOM      2  C   UNL     1       3.237   2.949  19.200  0.00  0.00    +0.000 C 
ATOM      3  C   UNL     1       2.946   3.364  17.775  0.00  0.00    +0.000 C 
ATOM      4  C   UNL     1       3.517   4.761  17.466  0.00  0.00    +0.000 C 
ATOM      5  C   UNL     1       4.898   4.905  18.019  0.00  0.00    +0.000 A 
ATOM      6  C   UNL     1       5.432   4.010  18.932  0.00  0.00    +0.000 A 
ATOM      7  N   UNL     1       6.711   4.410  19.211  0.00  0.00    +0.000 N 
ATOM      8  C   UNL     1       6.957   5.632  18.620  0.00  0.00    +0.000 A 
ATOM      9  C   UNL     1       8.070   6.476  18.715  0.00  0.00    +0.000 A 
ATOM     10  C   UNL     1       8.014   7.699  18.040  0.00  0.00    +0.000 A 
ATOM     11  C   UNL     1       6.899   8.056  17.285  0.00  0.00    +0.000 A 
ATOM     12  C   UNL     1       5.805   7.192  17.178  0.00  0.00    +0.000 A 
ATOM     13  C   UNL     1       5.831   5.962  17.862  0.00  0.00    +0.000 A 
ATOM     14  C   UNL     1       4.712   2.913  19.535  0.00  0.00    +0.000 C 
ATOM     15  O   UNL     1       5.205   2.089  20.295  0.00  0.00    +0.000 OA
ATOM     16  H   UNL     1       7.335   3.929  19.847  0.00  0.00    +0.000 HD
ENDROOT
BRANCH   1  18
ATOM     17  C   UNL     1       0.591   4.545  20.282  0.00  0.00    +0.000 C 
ATOM     18  C   UNL     1       0.881   3.053  20.164  0.00  0.00    +0.000 C 
ATOM     19  C   UNL     1       0.301   2.488  18.865  0.00  0.00    +0.000 C 
ENDBRANCH   1  18
TORSDOF 1
ENDMDL
MODEL 8
REMARK VINA RESULT:      -6.9      0.710      1.094
REMARK  Name = 
REMARK  3 active torsions:
REMARK  status: ('A' for Active; 'I' for Inactive)
REMARK    1  A    between atoms: C_1  and  C_2
REMARK    2  A    between atoms: C_2  and  C_3
REMARK    3  A    between atoms: C_2  and  C_4
REMARK                            x       y       z     vdW  Elec       q    Type
REMARK                         _______ _______ _______ _____ _____    ______ ____
ROOT
ATOM      1  C   UNL     1       7.070   4.212  15.662  0.00  0.00    +0.000 C 
ATOM      2  C   UNL     1       6.291   4.871  16.540  0.00  0.00    +0.000 C 
ATOM      3  C   UNL     1       5.134   5.801  16.249  0.00  0.00    +0.000 C 
ATOM      4  C   UNL     1       3.792   5.193  16.701  0.00  0.00    +0.000 C 
ATOM      5  C   UNL     1       3.923   4.561  18.049  0.00  0.00    +0.000 A 
ATOM      6  C   UNL     1       5.150   4.308  18.638  0.00  0.00    +0.000 A 
ATOM      7  N   UNL     1       4.919   3.757  19.869  0.00  0.00    +0.000 N 
ATOM      8  C   UNL     1       3.572   3.501  20.020  0.00  0.00    +0.000 A 
ATOM      9  C   UNL     1       2.883   2.850  21.050  0.00  0.00    +0.000 A 
ATOM     10  C   UNL     1       1.503   2.684  20.901  0.00  0.00    +0.000 A 
ATOM     11  C   UNL     1       0.835   3.166  19.779  0.00  0.00    +0.000 A 
ATOM     12  C   UNL     1       1.531   3.837  18.769  0.00  0.00    +0.000 A 
ATOM     13  C   UNL     1       2.924   4.002  18.888  0.00  0.00    +0.000 A 
ATOM     14  C   UNL     1       6.432   4.515  18.004  0.00  0.00    +0.000 C 
ATOM     15  O   UNL     1       7.515   4.347  18.549  0.00  0.00    +0.000 OA
ATOM     16  H   UNL     1       5.645   3.478  20.517  0.00  0.00    +0.000 HD
ENDROOT
BRANCH   1  18
ATOM     17  C   UNL     1       5.442   4.087  13.768  0.00  0.00    +0.000 C 
ATOM     18  C   UNL     1       6.910   4.202  14.161  0.00  0.00    +0.000 C 
ATOM     19  C   UNL     1       7.532   5.471  13.572  0.00  0.00    +0.000 C 
ENDBRANCH   1  18
TORSDOF 1
ENDMDL
MODEL 9
REMARK VINA RESULT:      -6.6      2.068      6.310
REMARK  Name = 
REMARK  3 active torsions:
REMARK  status: ('A' for Active; 'I' for Inactive)
REMARK    1  A    between atoms: C_1  and  C_2
REMARK    2  A    between atoms: C_2  and  C_3
REMARK    3  A    between atoms: C_2  and  C_4
REMARK                            x       y       z     vdW  Elec       q    Type
REMARK                         _______ _______ _______ _____ _____    ______ ____
ROOT
ATOM      1  C   UNL     1       1.398   4.509  20.073  0.00  0.00    +0.000 C 
ATOM      2  C   UNL     1       2.720   4.629  19.848  0.00  0.00    +0.000 C 
ATOM      3  C   UNL     1       3.795   3.578  20.016  0.00  0.00    +0.000 C 
ATOM      4  C   UNL     1       4.390   3.157  18.659  0.00  0.00    +0.000 C 
ATOM      5  C   UNL     1       4.639   4.350  17.794  0.00  0.00    +0.000 A 
ATOM      6  C   UNL     1       4.116   5.600  18.080  0.00  0.00    +0.000 A 
ATOM      7  N   UNL     1       4.553   6.468  17.116  0.00  0.00    +0.000 N 
ATOM      8  C   UNL     1       5.214   5.771  16.127  0.00  0.00    +0.000 A 
ATOM      9  C   UNL     1       5.732   6.209  14.902  0.00  0.00    +0.000 A 
ATOM     10  C   UNL     1       6.308   5.250  14.063  0.00  0.00    +0.000 A 
ATOM     11  C   UNL     1       6.382   3.911  14.441  0.00  0.00    +0.000 A 
ATOM     12  C   UNL     1       5.884   3.492  15.678  0.00  0.00    +0.000 A 
ATOM     13  C   UNL     1       5.284   4.436  16.533  0.00  0.00    +0.000 A 
ATOM     14  C   UNL     1       3.200   5.887  19.160  0.00  0.00    +0.000 C 
ATOM     15  O   UNL     1       2.788   7.004  19.445  0.00  0.00    +0.000 OA
ATOM     16  H   UNL     1       4.322   7.453  17.086  0.00  0.00    +0.000 HD
ENDROOT
BRANCH   1  18
ATOM     17  C   UNL     1       0.619   2.250  19.334  0.00  0.00    +0.000 C 
ATOM     18  C   UNL     1       0.674   3.250  20.484  0.00  0.00    +0.000 C 
ATOM     19  C   UNL     1       1.366   2.637  21.704  0.00  0.00    +0.000 C 
ENDBRANCH   1  18
TORSDOF 1
ENDMDL
