MODEL 1
REMARK VINA RESULT:      -7.2      0.000      0.000
REMARK  Name = 
REMARK  8 active torsions:
REMARK  status: ('A' for Active; 'I' for Inactive)
REMARK    1  A    between atoms: C_1  and  C_2
REMARK    2  A    between atoms: C_2  and  C_4
REMARK    3  A    between atoms: C_5  and  C_6
REMARK    4  A    between atoms: N_7  and  C_8
REMARK    5  A    between atoms: C_8  and  C_9
REMARK    6  A    between atoms: C_16  and  N_17
REMARK    7  A    between atoms: C_16  and  C_26
REMARK    8  A    between atoms: C_18  and  C_20
REMARK                            x       y       z     vdW  Elec       q    Type
REMARK                         _______ _______ _______ _____ _____    ______ ____
ROOT
ATOM      1  C   UNL     1       5.205   6.088  17.197  0.00  0.00    +0.000 C 
ATOM      2  C   UNL     1       5.504   6.280  15.894  0.00  0.00    +0.000 C 
ATOM      3  C   UNL     1       4.818   7.122  14.867  0.00  0.00    +0.000 C 
ATOM      4  N   UNL     1       6.585   5.494  15.550  0.00  0.00    +0.000 N 
ATOM      5  C   UNL     1       6.988   4.696  16.615  0.00  0.00    +0.000 C 
ATOM      6  O   UNL     1       7.825   3.803  16.587  0.00  0.00    +0.000 OA
ATOM      7  C   UNL     1       6.139   5.076  17.828  0.00  0.00    +0.000 C 
ENDROOT
BRANCH   7   8
ATOM      8  N   UNL     1       5.453   3.861  18.344  0.00  0.00    +0.000 N 
ATOM      9  C   UNL     1       4.383   3.226  17.752  0.00  0.00    +0.000 C 
ATOM     10  O   UNL     1       3.885   3.595  16.701  0.00  0.00    +0.000 OA
ATOM     11  H   UNL     1       6.028   3.275  18.942  0.00  0.00    +0.000 HD
BRANCH   9  12
ATOM     12  C   UNL     1       3.873   2.012  18.544  0.00  0.00    +0.000 C 
ATOM     13  C   UNL     1       3.987   2.229  20.060  0.00  0.00    +0.000 C 
ATOM     14  C   UNL     1       2.980   3.261  20.563  0.00  0.00    +0.000 C 
ATOM     15  C   UNL     1       1.554   2.845  20.235  0.00  0.00    +0.000 C 
ATOM     16  C   UNL     1       1.372   2.583  18.743  0.00  0.00    +0.000 C 
ATOM     17  C   UNL     1       2.429   1.631  18.173  0.00  0.00    +0.000 C 
ENDBRANCH   9  12
ENDBRANCH   7   8
BRANCH   7  18
ATOM     18  C   UNL     1       7.133   5.694  18.850  0.00  0.00    +0.000 C 
ATOM     19  F   UNL     1       7.460   6.973  18.548  0.00  0.00    +0.000 F 
ATOM     20  F   UNL     1       6.568   5.727  20.089  0.00  0.00    +0.000 F 
ATOM     21  F   UNL     1       8.296   5.022  18.986  0.00  0.00    +0.000 F 
ENDBRANCH   7  18
BRANCH   1  23
ATOM     22  C   UNL     1       3.465   7.987  17.402  0.00  0.00    +0.000 C 
ATOM     23  C   UNL     1       4.053   6.695  17.907  0.00  0.00    +0.000 C 
ATOM     24  O   UNL     1       3.545   6.148  18.881  0.00  0.00    +0.000 OA
ENDBRANCH   1  23
BRANCH   4  25
ATOM     25  C   UNL     1       7.171   5.363  14.226  0.00  0.00    +0.000 C 
BRANCH  25  26
ATOM     26  C   UNL     1       6.448   4.373  13.383  0.00  0.00    +0.000 A 
ATOM     27  C   UNL     1       5.191   3.801  13.404  0.00  0.00    +0.000 A 
ATOM     28  C   UNL     1       5.153   2.867  12.341  0.00  0.00    +0.000 A 
ATOM     29  C   UNL     1       6.375   2.949  11.717  0.00  0.00    +0.000 A 
ATOM     30  O   UNL     1       7.165   3.861  12.338  0.00  0.00    +0.000 OA
ENDBRANCH  25  26
ENDBRANCH   4  25
TORSDOF 6
ENDMDL
MODEL 2
REMARK VINA RESULT:      -6.7      0.931      1.273
REMARK  Name = 
REMARK  8 active torsions:
REMARK  status: ('A' for Active; 'I' for Inactive)
REMARK    1  A    between atoms: C_1  and  C_2
REMARK    2  A    between atoms: C_2  and  C_4
REMARK    3  A    between atoms: C_5  and  C_6
REMARK    4  A    between atoms: N_7  and  C_8
REMARK    5  A    between atoms: C_8  and  C_9
REMARK    6  A    between atoms: C_16  and  N_17
REMARK    7  A    between atoms: C_16  and  C_26
REMARK    8  A    between atoms: C_18  and  C_20
REMARK                            x       y       z     vdW  Elec       q    Type
REMARK                         _______ _______ _______ _____ _____    ______ ____
ROOT
ATOM      1  C   UNL     1       5.125   6.032  16.955  0.00  0.00    +0.000 C 
ATOM      2  C   UNL     1       5.464   6.197  15.658  0.00  0.00    +0.000 C 
ATOM      3  C   UNL     1       4.784   6.980  14.582  0.00  0.00    +0.000 C 
ATOM      4  N   UNL     1       6.588   5.447  15.378  0.00  0.00    +0.000 N 
ATOM      5  C   UNL     1       6.983   4.698  16.480  0.00  0.00    +0.000 C 
ATOM      6  O   UNL     1       7.856   3.840  16.510  0.00  0.00    +0.000 OA
ATOM      7  C   UNL     1       6.075   5.079  17.650  0.00  0.00    +0.000 C 
ENDROOT
BRANCH   7   8
ATOM      8  N   UNL     1       5.419   3.852  18.179  0.00  0.00    +0.000 N 
ATOM      9  C   UNL     1       4.725   3.756  19.364  0.00  0.00    +0.000 C 
ATOM     10  O   UNL     1       4.552   4.701  20.117  0.00  0.00    +0.000 OA
ATOM     11  H   UNL     1       5.162   3.174  17.468  0.00  0.00    +0.000 HD
BRANCH   9  12
ATOM     12  C   UNL     1       4.190   2.344  19.651  0.00  0.00    +0.000 C 
ATOM     13  C   UNL     1       3.097   2.356  20.731  0.00  0.00    +0.000 C 
ATOM     14  C   UNL     1       1.803   2.986  20.222  0.00  0.00    +0.000 C 
ATOM     15  C   UNL     1       1.274   2.248  19.001  0.00  0.00    +0.000 C 
ATOM     16  C   UNL     1       2.319   2.172  17.892  0.00  0.00    +0.000 C 
ATOM     17  C   UNL     1       3.670   1.642  18.383  0.00  0.00    +0.000 C 
ENDBRANCH   9  12
ENDBRANCH   7   8
BRANCH   7  18
ATOM     18  C   UNL     1       7.005   5.768  18.687  0.00  0.00    +0.000 C 
ATOM     19  F   UNL     1       6.341   6.165  19.798  0.00  0.00    +0.000 F 
ATOM     20  F   UNL     1       7.963   4.894  19.106  0.00  0.00    +0.000 F 
ATOM     21  F   UNL     1       7.664   6.851  18.224  0.00  0.00    +0.000 F 
ENDBRANCH   7  18
BRANCH   1  23
ATOM     22  C   UNL     1       2.662   5.795  17.697  0.00  0.00    +0.000 C 
ATOM     23  C   UNL     1       3.924   6.612  17.605  0.00  0.00    +0.000 C 
ATOM     24  O   UNL     1       3.947   7.735  18.099  0.00  0.00    +0.000 OA
ENDBRANCH   1  23
BRANCH   4  25
ATOM     25  C   UNL     1       7.227   5.301  14.080  0.00  0.00    +0.000 C 
BRANCH  25  26
ATOM     26  C   UNL     1       6.542   4.296  13.222  0.00  0.00    +0.000 A 
ATOM     27  C   UNL     1       5.303   3.686  13.226  0.00  0.00    +0.000 A 
ATOM     28  C   UNL     1       5.304   2.760  12.156  0.00  0.00    +0.000 A 
ATOM     29  C   UNL     1       6.528   2.884  11.544  0.00  0.00    +0.000 A 
ATOM     30  O   UNL     1       7.284   3.815  12.180  0.00  0.00    +0.000 OA
ENDBRANCH  25  26
ENDBRANCH   4  25
TORSDOF 6
ENDMDL
MODEL 3
REMARK VINA RESULT:      -6.3      9.001     12.465
REMARK  Name = 
REMARK  8 active torsions:
REMARK  status: ('A' for Active; 'I' for Inactive)
REMARK    1  A    between atoms: C_1  and  C_2
REMARK    2  A    between atoms: C_2  and  C_4
REMARK    3  A    between atoms: C_5  and  C_6
REMARK    4  A    between atoms: N_7  and  C_8
REMARK    5  A    between atoms: C_8  and  C_9
REMARK    6  A    between atoms: C_16  and  N_17
REMARK    7  A    between atoms: C_16  and  C_26
REMARK    8  A    between atoms: C_18  and  C_20
REMARK                            x       y       z     vdW  Elec       q    Type
REMARK                         _______ _______ _______ _____ _____    ______ ____
ROOT
ATOM      1  C   UNL     1      -1.197  11.986  19.832  0.00  0.00    +0.000 C 
ATOM      2  C   UNL     1      -2.195  12.276  20.696  0.00  0.00    +0.000 C 
ATOM      3  C   UNL     1      -3.490  12.984  20.461  0.00  0.00    +0.000 C 
ATOM      4  N   UNL     1      -1.840  11.861  21.963  0.00  0.00    +0.000 N 
ATOM      5  C   UNL     1      -0.549  11.346  21.982  0.00  0.00    +0.000 C 
ATOM      6  O   UNL     1       0.097  11.022  22.971  0.00  0.00    +0.000 OA
ATOM      7  C   UNL     1      -0.035  11.325  20.542  0.00  0.00    +0.000 C 
ENDROOT
BRANCH   7   8
ATOM      8  N   UNL     1       1.236  12.095  20.467  0.00  0.00    +0.000 N 
ATOM      9  C   UNL     1       1.410  13.404  20.855  0.00  0.00    +0.000 C 
ATOM     10  O   UNL     1       0.517  14.084  21.334  0.00  0.00    +0.000 OA
ATOM     11  H   UNL     1       2.075  11.522  20.481  0.00  0.00    +0.000 HD
BRANCH   9  12
ATOM     12  C   UNL     1       2.835  13.931  20.623  0.00  0.00    +0.000 C 
ATOM     13  C   UNL     1       3.163  14.052  19.127  0.00  0.00    +0.000 C 
ATOM     14  C   UNL     1       2.393  15.193  18.467  0.00  0.00    +0.000 C 
ATOM     15  C   UNL     1       2.695  16.523  19.142  0.00  0.00    +0.000 C 
ATOM     16  C   UNL     1       2.418  16.470  20.641  0.00  0.00    +0.000 C 
ATOM     17  C   UNL     1       3.088  15.276  21.328  0.00  0.00    +0.000 C 
ENDBRANCH   9  12
ENDBRANCH   7   8
BRANCH   7  18
ATOM     18  C   UNL     1       0.141   9.822  20.190  0.00  0.00    +0.000 C 
ATOM     19  F   UNL     1       1.277   9.296  20.706  0.00  0.00    +0.000 F 
ATOM     20  F   UNL     1      -0.887   9.097  20.712  0.00  0.00    +0.000 F 
ATOM     21  F   UNL     1       0.157   9.549  18.868  0.00  0.00    +0.000 F 
ENDBRANCH   7  18
BRANCH   1  23
ATOM     22  C   UNL     1      -2.021  11.581  17.417  0.00  0.00    +0.000 C 
ATOM     23  C   UNL     1      -1.177  12.356  18.395  0.00  0.00    +0.000 C 
ATOM     24  O   UNL     1      -0.512  13.304  17.990  0.00  0.00    +0.000 OA
ENDBRANCH   1  23
BRANCH   4  25
ATOM     25  C   UNL     1      -2.610  12.051  23.181  0.00  0.00    +0.000 C 
BRANCH  25  26
ATOM     26  C   UNL     1      -2.541  13.451  23.681  0.00  0.00    +0.000 A 
ATOM     27  C   UNL     1      -3.459  14.457  23.910  0.00  0.00    +0.000 A 
ATOM     28  C   UNL     1      -2.722  15.590  24.332  0.00  0.00    +0.000 A 
ATOM     29  C   UNL     1      -1.406  15.198  24.366  0.00  0.00    +0.000 A 
ATOM     30  O   UNL     1      -1.285  13.903  23.978  0.00  0.00    +0.000 OA
ENDBRANCH  25  26
ENDBRANCH   4  25
TORSDOF 6
ENDMDL
MODEL 4
REMARK VINA RESULT:      -6.3      9.041     12.231
REMARK  Name = 
REMARK  8 active torsions:
REMARK  status: ('A' for Active; 'I' for Inactive)
REMARK    1  A    between atoms: C_1  and  C_2
REMARK    2  A    between atoms: C_2  and  C_4
REMARK    3  A    between atoms: C_5  and  C_6
REMARK    4  A    between atoms: N_7  and  C_8
REMARK    5  A    between atoms: C_8  and  C_9
REMARK    6  A    between atoms: C_16  and  N_17
REMARK    7  A    between atoms: C_16  and  C_26
REMARK    8  A    between atoms: C_18  and  C_20
REMARK                            x       y       z     vdW  Elec       q    Type
REMARK                         _______ _______ _______ _____ _____    ______ ____
ROOT
ATOM      1  C   UNL     1      -1.007  11.280  19.767  0.00  0.00    +0.000 C 
ATOM      2  C   UNL     1      -2.009  11.106  18.878  0.00  0.00    +0.000 C 
ATOM      3  C   UNL     1      -2.091  10.201  17.691  0.00  0.00    +0.000 C 
ATOM      4  N   UNL     1      -3.037  11.979  19.169  0.00  0.00    +0.000 N 
ATOM      5  C   UNL     1      -2.705  12.816  20.228  0.00  0.00    +0.000 C 
ATOM      6  O   UNL     1      -3.346  13.777  20.633  0.00  0.00    +0.000 OA
ATOM      7  C   UNL     1      -1.342  12.372  20.761  0.00  0.00    +0.000 C 
ENDROOT
BRANCH   7   8
ATOM      8  N   UNL     1      -0.405  13.528  20.728  0.00  0.00    +0.000 N 
ATOM      9  C   UNL     1      -0.044  14.241  19.606  0.00  0.00    +0.000 C 
ATOM     10  O   UNL     1      -0.484  14.005  18.493  0.00  0.00    +0.000 OA
ATOM     11  H   UNL     1      -0.328  14.031  21.607  0.00  0.00    +0.000 HD
BRANCH   9  12
ATOM     12  C   UNL     1       0.969  15.361  19.889  0.00  0.00    +0.000 C 
ATOM     13  C   UNL     1       1.957  14.971  21.000  0.00  0.00    +0.000 C 
ATOM     14  C   UNL     1       2.937  13.896  20.537  0.00  0.00    +0.000 C 
ATOM     15  C   UNL     1       3.727  14.357  19.321  0.00  0.00    +0.000 C 
ATOM     16  C   UNL     1       2.808  14.789  18.182  0.00  0.00    +0.000 C 
ATOM     17  C   UNL     1       1.739  15.792  18.628  0.00  0.00    +0.000 C 
ENDBRANCH   9  12
ENDBRANCH   7   8
BRANCH   7  18
ATOM     18  C   UNL     1      -1.613  11.848  22.198  0.00  0.00    +0.000 C 
ATOM     19  F   UNL     1      -1.269  10.547  22.350  0.00  0.00    +0.000 F 
ATOM     20  F   UNL     1      -0.866  12.548  23.098  0.00  0.00    +0.000 F 
ATOM     21  F   UNL     1      -2.894  11.959  22.609  0.00  0.00    +0.000 F 
ENDBRANCH   7  18
BRANCH   1  23
ATOM     22  C   UNL     1       1.371  11.059  18.780  0.00  0.00    +0.000 C 
ATOM     23  C   UNL     1       0.302  10.581  19.727  0.00  0.00    +0.000 C 
ATOM     24  O   UNL     1       0.544   9.640  20.476  0.00  0.00    +0.000 OA
ENDBRANCH   1  23
BRANCH   4  25
ATOM     25  C   UNL     1      -4.264  12.151  18.409  0.00  0.00    +0.000 C 
BRANCH  25  26
ATOM     26  C   UNL     1      -5.435  11.516  19.073  0.00  0.00    +0.000 A 
ATOM     27  C   UNL     1      -6.220  11.813  20.170  0.00  0.00    +0.000 A 
ATOM     28  C   UNL     1      -7.142  10.748  20.308  0.00  0.00    +0.000 A 
ATOM     29  C   UNL     1      -6.887   9.884  19.270  0.00  0.00    +0.000 A 
ATOM     30  O   UNL     1      -5.857  10.342  18.514  0.00  0.00    +0.000 OA
ENDBRANCH  25  26
ENDBRANCH   4  25
TORSDOF 6
ENDMDL
MODEL 5
REMARK VINA RESULT:      -6.2      9.662     11.758
REMARK  Name = 
REMARK  8 active torsions:
REMARK  status: ('A' for Active; 'I' for Inactive)
REMARK    1  A    between atoms: C_1  and  C_2
REMARK    2  A    between atoms: C_2  and  C_4
REMARK    3  A    between atoms: C_5  and  C_6
REMARK    4  A    between atoms: N_7  and  C_8
REMARK    5  A    between atoms: C_8  and  C_9
REMARK    6  A    between atoms: C_16  and  N_17
REMARK    7  A    between atoms: C_16  and  C_26
REMARK    8  A    between atoms: C_18  and  C_20
REMARK                            x       y       z     vdW  Elec       q    Type
REMARK                         _______ _______ _______ _____ _____    ______ ____
ROOT
ATOM      1  C   UNL     1      -0.959  12.345  21.320  0.00  0.00    +0.000 C 
ATOM      2  C   UNL     1      -0.339  13.532  21.139  0.00  0.00    +0.000 C 
ATOM      3  C   UNL     1       0.172  14.510  22.147  0.00  0.00    +0.000 C 
ATOM      4  N   UNL     1      -0.265  13.810  19.789  0.00  0.00    +0.000 N 
ATOM      5  C   UNL     1      -0.910  12.835  19.037  0.00  0.00    +0.000 C 
ATOM      6  O   UNL     1      -1.133  12.866  17.833  0.00  0.00    +0.000 OA
ATOM      7  C   UNL     1      -1.371  11.737  19.996  0.00  0.00    +0.000 C 
ENDROOT
BRANCH   7   8
ATOM      8  N   UNL     1      -2.840  11.546  19.850  0.00  0.00    +0.000 N 
ATOM      9  C   UNL     1      -3.800  12.519  20.020  0.00  0.00    +0.000 C 
ATOM     10  O   UNL     1      -3.536  13.678  20.297  0.00  0.00    +0.000 OA
ATOM     11  H   UNL     1      -3.105  10.775  19.244  0.00  0.00    +0.000 HD
BRANCH   9  12
ATOM     12  C   UNL     1      -5.236  12.005  19.832  0.00  0.00    +0.000 C 
ATOM     13  C   UNL     1      -6.264  13.145  19.901  0.00  0.00    +0.000 C 
ATOM     14  C   UNL     1      -6.189  14.053  18.676  0.00  0.00    +0.000 C 
ATOM     15  C   UNL     1      -6.418  13.267  17.393  0.00  0.00    +0.000 C 
ATOM     16  C   UNL     1      -5.447  12.096  17.269  0.00  0.00    +0.000 C 
ATOM     17  C   UNL     1      -5.412  11.216  18.522  0.00  0.00    +0.000 C 
ENDBRANCH   9  12
ENDBRANCH   7   8
BRANCH   7  18
ATOM     18  C   UNL     1      -0.551  10.477  19.604  0.00  0.00    +0.000 C 
ATOM     19  F   UNL     1      -0.911   9.977  18.398  0.00  0.00    +0.000 F 
ATOM     20  F   UNL     1       0.770  10.792  19.507  0.00  0.00    +0.000 F 
ATOM     21  F   UNL     1      -0.629   9.455  20.482  0.00  0.00    +0.000 F 
ENDBRANCH   7  18
BRANCH   1  23
ATOM     22  C   UNL     1      -2.619  12.077  23.281  0.00  0.00    +0.000 C 
ATOM     23  C   UNL     1      -1.298  11.751  22.637  0.00  0.00    +0.000 C 
ATOM     24  O   UNL     1      -0.536  10.969  23.197  0.00  0.00    +0.000 OA
ENDBRANCH   1  23
BRANCH   4  25
ATOM     25  C   UNL     1       0.268  15.020  19.186  0.00  0.00    +0.000 C 
BRANCH  25  26
ATOM     26  C   UNL     1       1.677  14.854  18.737  0.00  0.00    +0.000 A 
ATOM     27  C   UNL     1       2.587  13.815  18.726  0.00  0.00    +0.000 A 
ATOM     28  C   UNL     1       3.798  14.342  18.218  0.00  0.00    +0.000 A 
ATOM     29  C   UNL     1       3.546  15.659  17.918  0.00  0.00    +0.000 A 
ATOM     30  O   UNL     1       2.264  15.979  18.225  0.00  0.00    +0.000 OA
ENDBRANCH  25  26
ENDBRANCH   4  25
TORSDOF 6
ENDMDL
MODEL 6
REMARK VINA RESULT:      -6.2     11.009     13.818
REMARK  Name = 
REMARK  8 active torsions:
REMARK  status: ('A' for Active; 'I' for Inactive)
REMARK    1  A    between atoms: C_1  and  C_2
REMARK    2  A    between atoms: C_2  and  C_4
REMARK    3  A    between atoms: C_5  and  C_6
REMARK    4  A    between atoms: N_7  and  C_8
REMARK    5  A    between atoms: C_8  and  C_9
REMARK    6  A    between atoms: C_16  and  N_17
REMARK    7  A    between atoms: C_16  and  C_26
REMARK    8  A    between atoms: C_18  and  C_20
REMARK                            x       y       z     vdW  Elec       q    Type
REMARK                         _______ _______ _______ _____ _____    ______ ____
ROOT
ATOM      1  C   UNL     1      -3.960  14.749  21.913  0.00  0.00    +0.000 C 
ATOM      2  C   UNL     1      -2.610  14.774  21.868  0.00  0.00    +0.000 C 
ATOM      3  C   UNL     1      -1.691  15.772  21.242  0.00  0.00    +0.000 C 
ATOM      4  N   UNL     1      -2.110  13.638  22.471  0.00  0.00    +0.000 N 
ATOM      5  C   UNL     1      -3.132  12.786  22.870  0.00  0.00    +0.000 C 
ATOM      6  O   UNL     1      -3.011  11.649  23.310  0.00  0.00    +0.000 OA
ATOM      7  C   UNL     1      -4.460  13.490  22.590  0.00  0.00    +0.000 C 
ENDROOT
BRANCH   7   8
ATOM      8  N   UNL     1      -5.296  12.625  21.714  0.00  0.00    +0.000 N 
ATOM      9  C   UNL     1      -4.987  12.241  20.428  0.00  0.00    +0.000 C 
ATOM     10  O   UNL     1      -3.954  12.564  19.864  0.00  0.00    +0.000 OA
ATOM     11  H   UNL     1      -5.924  12.002  22.214  0.00  0.00    +0.000 HD
BRANCH   9  12
ATOM     12  C   UNL     1      -6.067  11.370  19.769  0.00  0.00    +0.000 C 
ATOM     13  C   UNL     1      -7.432  12.075  19.743  0.00  0.00    +0.000 C 
ATOM     14  C   UNL     1      -7.451  13.239  18.756  0.00  0.00    +0.000 C 
ATOM     15  C   UNL     1      -7.116  12.772  17.347  0.00  0.00    +0.000 C 
ATOM     16  C   UNL     1      -5.781  12.035  17.300  0.00  0.00    +0.000 C 
ATOM     17  C   UNL     1      -5.678  10.923  18.349  0.00  0.00    +0.000 C 
ENDBRANCH   9  12
ENDBRANCH   7   8
BRANCH   7  18
ATOM     18  C   UNL     1      -5.097  13.740  23.985  0.00  0.00    +0.000 C 
ATOM     19  F   UNL     1      -5.406  12.590  24.629  0.00  0.00    +0.000 F 
ATOM     20  F   UNL     1      -4.217  14.402  24.787  0.00  0.00    +0.000 F 
ATOM     21  F   UNL     1      -6.222  14.486  23.969  0.00  0.00    +0.000 F 
ENDBRANCH   7  18
BRANCH   1  23
ATOM     22  C   UNL     1      -5.177  17.025  22.040  0.00  0.00    +0.000 C 
ATOM     23  C   UNL     1      -4.854  15.757  21.292  0.00  0.00    +0.000 C 
ATOM     24  O   UNL     1      -5.311  15.595  20.165  0.00  0.00    +0.000 OA
ENDBRANCH   1  23
BRANCH   4  25
ATOM     25  C   UNL     1      -0.710  13.258  22.568  0.00  0.00    +0.000 C 
BRANCH  25  26
ATOM     26  C   UNL     1      -0.325  12.249  21.543  0.00  0.00    +0.000 A 
ATOM     27  C   UNL     1      -0.555  12.090  20.191  0.00  0.00    +0.000 A 
ATOM     28  C   UNL     1       0.042  10.861  19.821  0.00  0.00    +0.000 A 
ATOM     29  C   UNL     1       0.626  10.362  20.960  0.00  0.00    +0.000 A 
ATOM     30  O   UNL     1       0.413  11.197  22.008  0.00  0.00    +0.000 OA
ENDBRANCH  25  26
ENDBRANCH   4  25
TORSDOF 6
ENDMDL
MODEL 7
REMARK VINA RESULT:      -6.1     10.863     14.062
REMARK  Name = 
REMARK  8 active torsions:
REMARK  status: ('A' for Active; 'I' for Inactive)
REMARK    1  A    between atoms: C_1  and  C_2
REMARK    2  A    between atoms: C_2  and  C_4
REMARK    3  A    between atoms: C_5  and  C_6
REMARK    4  A    between atoms: N_7  and  C_8
REMARK    5  A    between atoms: C_8  and  C_9
REMARK    6  A    between atoms: C_16  and  N_17
REMARK    7  A    between atoms: C_16  and  C_26
REMARK    8  A    between atoms: C_18  and  C_20
REMARK                            x       y       z     vdW  Elec       q    Type
REMARK                         _______ _______ _______ _____ _____    ______ ____
ROOT
ATOM      1  C   UNL     1      -3.080  14.020  22.636  0.00  0.00    +0.000 C 
ATOM      2  C   UNL     1      -4.286  13.580  23.059  0.00  0.00    +0.000 C 
ATOM      3  C   UNL     1      -4.643  12.776  24.267  0.00  0.00    +0.000 C 
ATOM      4  N   UNL     1      -5.252  13.933  22.139  0.00  0.00    +0.000 N 
ATOM      5  C   UNL     1      -4.690  14.560  21.032  0.00  0.00    +0.000 C 
ATOM      6  O   UNL     1      -5.263  14.869  19.995  0.00  0.00    +0.000 OA
ATOM      7  C   UNL     1      -3.195  14.731  21.304  0.00  0.00    +0.000 C 
ENDROOT
BRANCH   7   8
ATOM      8  N   UNL     1      -2.423  14.087  20.207  0.00  0.00    +0.000 N 
ATOM      9  C   UNL     1      -2.489  12.759  19.847  0.00  0.00    +0.000 C 
ATOM     10  O   UNL     1      -3.225  11.954  20.393  0.00  0.00    +0.000 OA
ATOM     11  H   UNL     1      -2.127  14.723  19.473  0.00  0.00    +0.000 HD
BRANCH   9  12
ATOM     12  C   UNL     1      -1.545  12.387  18.693  0.00  0.00    +0.000 C 
ATOM     13  C   UNL     1      -0.165  13.044  18.850  0.00  0.00    +0.000 C 
ATOM     14  C   UNL     1       0.631  12.428  19.997  0.00  0.00    +0.000 C 
ATOM     15  C   UNL     1       0.823  10.932  19.793  0.00  0.00    +0.000 C 
ATOM     16  C   UNL     1      -0.509  10.214  19.601  0.00  0.00    +0.000 C 
ATOM     17  C   UNL     1      -1.387  10.865  18.528  0.00  0.00    +0.000 C 
ENDBRANCH   9  12
ENDBRANCH   7   8
BRANCH   7  18
ATOM     18  C   UNL     1      -2.965  16.265  21.392  0.00  0.00    +0.000 C 
ATOM     19  F   UNL     1      -3.634  16.833  22.423  0.00  0.00    +0.000 F 
ATOM     20  F   UNL     1      -1.645  16.527  21.602  0.00  0.00    +0.000 F 
ATOM     21  F   UNL     1      -3.311  16.954  20.283  0.00  0.00    +0.000 F 
ENDBRANCH   7  18
BRANCH   1  23
ATOM     22  C   UNL     1      -1.307  14.704  24.386  0.00  0.00    +0.000 C 
ATOM     23  C   UNL     1      -1.789  13.758  23.318  0.00  0.00    +0.000 C 
ATOM     24  O   UNL     1      -1.118  12.765  23.052  0.00  0.00    +0.000 OA
ENDBRANCH   1  23
BRANCH   4  25
ATOM     25  C   UNL     1      -6.663  13.587  22.193  0.00  0.00    +0.000 C 
BRANCH  25  26
ATOM     26  C   UNL     1      -6.958  12.308  21.493  0.00  0.00    +0.000 A 
ATOM     27  C   UNL     1      -6.683  11.788  20.243  0.00  0.00    +0.000 A 
ATOM     28  C   UNL     1      -7.317  10.523  20.182  0.00  0.00    +0.000 A 
ATOM     29  C   UNL     1      -7.910  10.334  21.407  0.00  0.00    +0.000 A 
ATOM     30  O   UNL     1      -7.696  11.407  22.209  0.00  0.00    +0.000 OA
ENDBRANCH  25  26
ENDBRANCH   4  25
TORSDOF 6
ENDMDL
MODEL 8
REMARK VINA RESULT:      -6.1      9.127     12.373
REMARK  Name = 
REMARK  8 active torsions:
REMARK  status: ('A' for Active; 'I' for Inactive)
REMARK    1  A    between atoms: C_1  and  C_2
REMARK    2  A    between atoms: C_2  and  C_4
REMARK    3  A    between atoms: C_5  and  C_6
REMARK    4  A    between atoms: N_7  and  C_8
REMARK    5  A    between atoms: C_8  and  C_9
REMARK    6  A    between atoms: C_16  and  N_17
REMARK    7  A    between atoms: C_16  and  C_26
REMARK    8  A    between atoms: C_18  and  C_20
REMARK                            x       y       z     vdW  Elec       q    Type
REMARK                         _______ _______ _______ _____ _____    ______ ____
ROOT
ATOM      1  C   UNL     1      -1.141  11.319  19.905  0.00  0.00    +0.000 C 
ATOM      2  C   UNL     1      -2.166  11.175  19.038  0.00  0.00    +0.000 C 
ATOM      3  C   UNL     1      -2.300  10.272  17.854  0.00  0.00    +0.000 C 
ATOM      4  N   UNL     1      -3.162  12.078  19.349  0.00  0.00    +0.000 N 
ATOM      5  C   UNL     1      -2.782  12.905  20.400  0.00  0.00    +0.000 C 
ATOM      6  O   UNL     1      -3.386  13.885  20.818  0.00  0.00    +0.000 OA
ATOM      7  C   UNL     1      -1.422  12.421  20.905  0.00  0.00    +0.000 C 
ENDROOT
BRANCH   7   8
ATOM      8  N   UNL     1      -0.452  13.548  20.851  0.00  0.00    +0.000 N 
ATOM      9  C   UNL     1      -0.094  14.250  19.721  0.00  0.00    +0.000 C 
ATOM     10  O   UNL     1      -0.565  14.027  18.617  0.00  0.00    +0.000 OA
ATOM     11  H   UNL     1      -0.341  14.049  21.727  0.00  0.00    +0.000 HD
BRANCH   9  12
ATOM     12  C   UNL     1       0.958  15.340  19.981  0.00  0.00    +0.000 C 
ATOM     13  C   UNL     1       1.987  14.900  21.034  0.00  0.00    +0.000 C 
ATOM     14  C   UNL     1       2.917  13.814  20.501  0.00  0.00    +0.000 C 
ATOM     15  C   UNL     1       3.661  14.286  19.260  0.00  0.00    +0.000 C 
ATOM     16  C   UNL     1       2.700  14.766  18.176  0.00  0.00    +0.000 C 
ATOM     17  C   UNL     1       1.677  15.782  18.695  0.00  0.00    +0.000 C 
ENDBRANCH   9  12
ENDBRANCH   7   8
BRANCH   7  18
ATOM     18  C   UNL     1      -1.678  11.906  22.348  0.00  0.00    +0.000 C 
ATOM     19  F   UNL     1      -1.115  12.700  23.290  0.00  0.00    +0.000 F 
ATOM     20  F   UNL     1      -3.015  11.893  22.609  0.00  0.00    +0.000 F 
ATOM     21  F   UNL     1      -1.237  10.653  22.588  0.00  0.00    +0.000 F 
ENDBRANCH   7  18
BRANCH   1  23
ATOM     22  C   UNL     1       1.202  11.018  18.858  0.00  0.00    +0.000 C 
ATOM     23  C   UNL     1       0.145  10.581  19.838  0.00  0.00    +0.000 C 
ATOM     24  O   UNL     1       0.379   9.640  20.590  0.00  0.00    +0.000 OA
ENDBRANCH   1  23
BRANCH   4  25
ATOM     25  C   UNL     1      -4.399  12.286  18.615  0.00  0.00    +0.000 C 
BRANCH  25  26
ATOM     26  C   UNL     1      -5.538  11.526  19.199  0.00  0.00    +0.000 A 
ATOM     27  C   UNL     1      -6.225  10.377  18.861  0.00  0.00    +0.000 A 
ATOM     28  C   UNL     1      -7.264  10.232  19.812  0.00  0.00    +0.000 A 
ATOM     29  C   UNL     1      -7.127  11.279  20.690  0.00  0.00    +0.000 A 
ATOM     30  O   UNL     1      -6.082  12.067  20.330  0.00  0.00    +0.000 OA
ENDBRANCH  25  26
ENDBRANCH   4  25
TORSDOF 6
ENDMDL
MODEL 9
REMARK VINA RESULT:      -6.1      8.833     10.626
REMARK  Name = 
REMARK  8 active torsions:
REMARK  status: ('A' for Active; 'I' for Inactive)
REMARK    1  A    between atoms: C_1  and  C_2
REMARK    2  A    between atoms: C_2  and  C_4
REMARK    3  A    between atoms: C_5  and  C_6
REMARK    4  A    between atoms: N_7  and  C_8
REMARK    5  A    between atoms: C_8  and  C_9
REMARK    6  A    between atoms: C_16  and  N_17
REMARK    7  A    between atoms: C_16  and  C_26
REMARK    8  A    between atoms: C_18  and  C_20
REMARK                            x       y       z     vdW  Elec       q    Type
REMARK                         _______ _______ _______ _____ _____    ______ ____
ROOT
ATOM      1  C   UNL     1      -0.788  12.549  20.780  0.00  0.00    +0.000 C 
ATOM      2  C   UNL     1      -0.076  13.594  20.304  0.00  0.00    +0.000 C 
ATOM      3  C   UNL     1      -0.282  15.062  20.499  0.00  0.00    +0.000 C 
ATOM      4  N   UNL     1       0.932  13.128  19.486  0.00  0.00    +0.000 N 
ATOM      5  C   UNL     1       0.866  11.747  19.339  0.00  0.00    +0.000 C 
ATOM      6  O   UNL     1       1.533  11.057  18.578  0.00  0.00    +0.000 OA
ATOM      7  C   UNL     1      -0.252  11.236  20.249  0.00  0.00    +0.000 C 
ENDROOT
BRANCH   7   8
ATOM      8  N   UNL     1      -1.232  10.469  19.433  0.00  0.00    +0.000 N 
ATOM      9  C   UNL     1      -1.870  10.924  18.300  0.00  0.00    +0.000 C 
ATOM     10  O   UNL     1      -1.675  12.030  17.822  0.00  0.00    +0.000 OA
ATOM     11  H   UNL     1      -1.139   9.460  19.504  0.00  0.00    +0.000 HD
BRANCH   9  12
ATOM     12  C   UNL     1      -2.852   9.908  17.697  0.00  0.00    +0.000 C 
ATOM     13  C   UNL     1      -4.302  10.413  17.755  0.00  0.00    +0.000 C 
ATOM     14  C   UNL     1      -4.543  11.563  16.780  0.00  0.00    +0.000 C 
ATOM     15  C   UNL     1      -4.227  11.148  15.350  0.00  0.00    +0.000 C 
ATOM     16  C   UNL     1      -2.807  10.607  15.221  0.00  0.00    +0.000 C 
ATOM     17  C   UNL     1      -2.486   9.522  16.253  0.00  0.00    +0.000 C 
ENDBRANCH   9  12
ENDBRANCH   7   8
BRANCH   7  18
ATOM     18  C   UNL     1       0.457  10.368  21.325  0.00  0.00    +0.000 C 
ATOM     19  F   UNL     1      -0.322  10.149  22.411  0.00  0.00    +0.000 F 
ATOM     20  F   UNL     1       0.753   9.141  20.814  0.00  0.00    +0.000 F 
ATOM     21  F   UNL     1       1.622  10.873  21.783  0.00  0.00    +0.000 F 
ENDBRANCH   7  18
BRANCH   1  23
ATOM     22  C   UNL     1      -1.863  12.979  23.090  0.00  0.00    +0.000 C 
ATOM     23  C   UNL     1      -2.003  12.657  21.625  0.00  0.00    +0.000 C 
ATOM     24  O   UNL     1      -3.125  12.523  21.147  0.00  0.00    +0.000 OA
ENDBRANCH   1  23
BRANCH   4  25
ATOM     25  C   UNL     1       1.873  13.937  18.729  0.00  0.00    +0.000 C 
BRANCH  25  26
ATOM     26  C   UNL     1       3.091  14.273  19.515  0.00  0.00    +0.000 A 
ATOM     27  C   UNL     1       3.452  14.191  20.846  0.00  0.00    +0.000 A 
ATOM     28  C   UNL     1       4.750  14.746  20.949  0.00  0.00    +0.000 A 
ATOM     29  C   UNL     1       5.115  15.102  19.674  0.00  0.00    +0.000 A 
ATOM     30  O   UNL     1       4.120  14.816  18.797  0.00  0.00    +0.000 OA
ENDBRANCH  25  26
ENDBRANCH   4  25
TORSDOF 6
ENDMDL
