MODEL 1
REMARK VINA RESULT:      -7.8      0.000      0.000
REMARK  Name = 
REMARK  2 active torsions:
REMARK  status: ('A' for Active; 'I' for Inactive)
REMARK    1  A    between atoms: C_4  and  C_5
REMARK    2  A    between atoms: N_12  and  C_13
REMARK                            x       y       z     vdW  Elec       q    Type
REMARK                         _______ _______ _______ _____ _____    ______ ____
ROOT
ATOM      1  O   UNL     1       7.581   4.880  18.944  0.00  0.00    +0.000 OA
ATOM      2  C   UNL     1       6.948   4.606  17.938  0.00  0.00    +0.000 A 
ATOM      3  O   UNL     1       7.459   4.726  16.678  0.00  0.00    +0.000 OA
ATOM      4  C   UNL     1       6.448   4.336  15.872  0.00  0.00    +0.000 A 
ATOM      5  N   UNL     1       5.358   3.958  16.461  0.00  0.00    +0.000 NA
ATOM      6  N   UNL     1       5.656   4.138  17.786  0.00  0.00    +0.000 N 
ENDROOT
BRANCH   6   7
ATOM      7  C   UNL     1       4.658   3.934  18.762  0.00  0.00    +0.000 A 
ATOM      8  C   UNL     1       3.681   4.905  19.026  0.00  0.00    +0.000 A 
ATOM      9  C   UNL     1       2.679   4.677  19.975  0.00  0.00    +0.000 A 
ATOM     10  C   UNL     1       2.653   3.479  20.683  0.00  0.00    +0.000 A 
ATOM     11 CL   UNL     1       1.425   3.204  21.854  0.00  0.00    +0.000 Cl
ATOM     12  C   UNL     1       3.615   2.502  20.442  0.00  0.00    +0.000 A 
ATOM     13  C   UNL     1       4.607   2.729  19.481  0.00  0.00    +0.000 A 
ENDBRANCH   6   7
BRANCH   4  14
ATOM     14  C   UNL     1       6.698   4.416  14.429  0.00  0.00    +0.000 A 
ATOM     15  C   UNL     1       6.049   3.562  13.530  0.00  0.00    +0.000 A 
ATOM     16  C   UNL     1       6.344   3.631  12.167  0.00  0.00    +0.000 A 
ATOM     17  C   UNL     1       7.281   4.552  11.700  0.00  0.00    +0.000 A 
ATOM     18  C   UNL     1       7.926   5.409  12.592  0.00  0.00    +0.000 A 
ATOM     19  C   UNL     1       7.636   5.341  13.956  0.00  0.00    +0.000 A 
ENDBRANCH   4  14
TORSDOF 2
ENDMDL
MODEL 2
REMARK VINA RESULT:      -7.7      0.306      1.152
REMARK  Name = 
REMARK  2 active torsions:
REMARK  status: ('A' for Active; 'I' for Inactive)
REMARK    1  A    between atoms: C_4  and  C_5
REMARK    2  A    between atoms: N_12  and  C_13
REMARK                            x       y       z     vdW  Elec       q    Type
REMARK                         _______ _______ _______ _____ _____    ______ ____
ROOT
ATOM      1  O   UNL     1       7.209   5.246  18.974  0.00  0.00    +0.000 OA
ATOM      2  C   UNL     1       6.690   4.831  17.951  0.00  0.00    +0.000 A 
ATOM      3  O   UNL     1       7.268   4.948  16.720  0.00  0.00    +0.000 OA
ATOM      4  C   UNL     1       6.377   4.379  15.880  0.00  0.00    +0.000 A 
ATOM      5  N   UNL     1       5.308   3.889  16.425  0.00  0.00    +0.000 NA
ATOM      6  N   UNL     1       5.485   4.183  17.750  0.00  0.00    +0.000 N 
ENDROOT
BRANCH   6   7
ATOM      7  C   UNL     1       4.458   3.899  18.674  0.00  0.00    +0.000 A 
ATOM      8  C   UNL     1       3.267   4.640  18.696  0.00  0.00    +0.000 A 
ATOM      9  C   UNL     1       2.244   4.328  19.598  0.00  0.00    +0.000 A 
ATOM     10  C   UNL     1       2.407   3.280  20.499  0.00  0.00    +0.000 A 
ATOM     11 CL   UNL     1       1.152   2.904  21.611  0.00  0.00    +0.000 Cl
ATOM     12  C   UNL     1       3.583   2.535  20.500  0.00  0.00    +0.000 A 
ATOM     13  C   UNL     1       4.599   2.841  19.587  0.00  0.00    +0.000 A 
ENDBRANCH   6   7
BRANCH   4  14
ATOM     14  C   UNL     1       6.714   4.410  14.453  0.00  0.00    +0.000 A 
ATOM     15  C   UNL     1       7.661   5.310  13.950  0.00  0.00    +0.000 A 
ATOM     16  C   UNL     1       7.926   5.349  12.580  0.00  0.00    +0.000 A 
ATOM     17  C   UNL     1       7.250   4.490  11.712  0.00  0.00    +0.000 A 
ATOM     18  C   UNL     1       6.310   3.588  12.212  0.00  0.00    +0.000 A 
ATOM     19  C   UNL     1       6.040   3.549  13.580  0.00  0.00    +0.000 A 
ENDBRANCH   4  14
TORSDOF 2
ENDMDL
MODEL 3
REMARK VINA RESULT:      -7.6      1.553      1.909
REMARK  Name = 
REMARK  2 active torsions:
REMARK  status: ('A' for Active; 'I' for Inactive)
REMARK    1  A    between atoms: C_4  and  C_5
REMARK    2  A    between atoms: N_12  and  C_13
REMARK                            x       y       z     vdW  Elec       q    Type
REMARK                         _______ _______ _______ _____ _____    ______ ____
ROOT
ATOM      1  O   UNL     1       4.177   7.135  17.678  0.00  0.00    +0.000 OA
ATOM      2  C   UNL     1       4.481   6.122  17.070  0.00  0.00    +0.000 A 
ATOM      3  O   UNL     1       5.141   6.136  15.875  0.00  0.00    +0.000 OA
ATOM      4  C   UNL     1       5.270   4.832  15.553  0.00  0.00    +0.000 A 
ATOM      5  N   UNL     1       4.795   3.980  16.405  0.00  0.00    +0.000 NA
ATOM      6  N   UNL     1       4.273   4.790  17.378  0.00  0.00    +0.000 N 
ENDROOT
BRANCH   6   7
ATOM      7  C   UNL     1       3.553   4.222  18.451  0.00  0.00    +0.000 A 
ATOM      8  C   UNL     1       4.151   3.312  19.334  0.00  0.00    +0.000 A 
ATOM      9  C   UNL     1       3.435   2.781  20.412  0.00  0.00    +0.000 A 
ATOM     10  C   UNL     1       2.105   3.142  20.608  0.00  0.00    +0.000 A 
ATOM     11 CL   UNL     1       1.225   2.481  21.928  0.00  0.00    +0.000 Cl
ATOM     12  C   UNL     1       1.489   4.039  19.741  0.00  0.00    +0.000 A 
ATOM     13  C   UNL     1       2.213   4.580  18.672  0.00  0.00    +0.000 A 
ENDBRANCH   6   7
BRANCH   4  14
ATOM     14  C   UNL     1       5.906   4.540  14.263  0.00  0.00    +0.000 A 
ATOM     15  C   UNL     1       5.336   3.634  13.361  0.00  0.00    +0.000 A 
ATOM     16  C   UNL     1       5.990   3.341  12.162  0.00  0.00    +0.000 A 
ATOM     17  C   UNL     1       7.208   3.952  11.862  0.00  0.00    +0.000 A 
ATOM     18  C   UNL     1       7.775   4.860  12.757  0.00  0.00    +0.000 A 
ATOM     19  C   UNL     1       7.126   5.153  13.957  0.00  0.00    +0.000 A 
ENDBRANCH   4  14
TORSDOF 2
ENDMDL
MODEL 4
REMARK VINA RESULT:      -7.6      1.539      1.584
REMARK  Name = 
REMARK  2 active torsions:
REMARK  status: ('A' for Active; 'I' for Inactive)
REMARK    1  A    between atoms: C_4  and  C_5
REMARK    2  A    between atoms: N_12  and  C_13
REMARK                            x       y       z     vdW  Elec       q    Type
REMARK                         _______ _______ _______ _____ _____    ______ ____
ROOT
ATOM      1  O   UNL     1       4.412   7.178  17.651  0.00  0.00    +0.000 OA
ATOM      2  C   UNL     1       4.637   6.152  17.029  0.00  0.00    +0.000 A 
ATOM      3  O   UNL     1       5.283   6.134  15.827  0.00  0.00    +0.000 OA
ATOM      4  C   UNL     1       5.315   4.827  15.489  0.00  0.00    +0.000 A 
ATOM      5  N   UNL     1       4.791   4.001  16.338  0.00  0.00    +0.000 NA
ATOM      6  N   UNL     1       4.339   4.835  17.326  0.00  0.00    +0.000 N 
ENDROOT
BRANCH   6   7
ATOM      7  C   UNL     1       3.593   4.307  18.401  0.00  0.00    +0.000 A 
ATOM      8  C   UNL     1       2.237   4.616  18.575  0.00  0.00    +0.000 A 
ATOM      9  C   UNL     1       1.502   4.061  19.628  0.00  0.00    +0.000 A 
ATOM     10  C   UNL     1       2.122   3.202  20.530  0.00  0.00    +0.000 A 
ATOM     11 CL   UNL     1       1.220   2.528  21.829  0.00  0.00    +0.000 Cl
ATOM     12  C   UNL     1       3.469   2.885  20.382  0.00  0.00    +0.000 A 
ATOM     13  C   UNL     1       4.197   3.431  19.318  0.00  0.00    +0.000 A 
ENDBRANCH   6   7
BRANCH   4  14
ATOM     14  C   UNL     1       5.914   4.505  14.189  0.00  0.00    +0.000 A 
ATOM     15  C   UNL     1       5.310   3.592  13.316  0.00  0.00    +0.000 A 
ATOM     16  C   UNL     1       5.929   3.271  12.107  0.00  0.00    +0.000 A 
ATOM     17  C   UNL     1       7.146   3.862  11.765  0.00  0.00    +0.000 A 
ATOM     18  C   UNL     1       7.747   4.777  12.630  0.00  0.00    +0.000 A 
ATOM     19  C   UNL     1       7.134   5.098  13.841  0.00  0.00    +0.000 A 
ENDBRANCH   4  14
TORSDOF 2
ENDMDL
MODEL 5
REMARK VINA RESULT:      -7.5      0.594      1.245
REMARK  Name = 
REMARK  2 active torsions:
REMARK  status: ('A' for Active; 'I' for Inactive)
REMARK    1  A    between atoms: C_4  and  C_5
REMARK    2  A    between atoms: N_12  and  C_13
REMARK                            x       y       z     vdW  Elec       q    Type
REMARK                         _______ _______ _______ _____ _____    ______ ____
ROOT
ATOM      1  O   UNL     1       6.564   6.087  18.801  0.00  0.00    +0.000 OA
ATOM      2  C   UNL     1       6.209   5.403  17.854  0.00  0.00    +0.000 A 
ATOM      3  O   UNL     1       6.776   5.492  16.615  0.00  0.00    +0.000 OA
ATOM      4  C   UNL     1       6.099   4.587  15.876  0.00  0.00    +0.000 A 
ATOM      5  N   UNL     1       5.182   3.912  16.494  0.00  0.00    +0.000 NA
ATOM      6  N   UNL     1       5.230   4.432  17.760  0.00  0.00    +0.000 N 
ENDROOT
BRANCH   6   7
ATOM      7  C   UNL     1       4.285   4.019  18.723  0.00  0.00    +0.000 A 
ATOM      8  C   UNL     1       4.480   2.864  19.494  0.00  0.00    +0.000 A 
ATOM      9  C   UNL     1       3.550   2.484  20.467  0.00  0.00    +0.000 A 
ATOM     10  C   UNL     1       2.403   3.247  20.668  0.00  0.00    +0.000 A 
ATOM     11 CL   UNL     1       1.258   2.773  21.858  0.00  0.00    +0.000 Cl
ATOM     12  C   UNL     1       2.185   4.394  19.911  0.00  0.00    +0.000 A 
ATOM     13  C   UNL     1       3.125   4.780  18.948  0.00  0.00    +0.000 A 
ENDBRANCH   6   7
BRANCH   4  14
ATOM     14  C   UNL     1       6.463   4.502  14.458  0.00  0.00    +0.000 A 
ATOM     15  C   UNL     1       5.813   3.614  13.593  0.00  0.00    +0.000 A 
ATOM     16  C   UNL     1       6.215   3.521  12.259  0.00  0.00    +0.000 A 
ATOM     17  C   UNL     1       7.261   4.314  11.787  0.00  0.00    +0.000 A 
ATOM     18  C   UNL     1       7.907   5.205  12.645  0.00  0.00    +0.000 A 
ATOM     19  C   UNL     1       7.510   5.298  13.980  0.00  0.00    +0.000 A 
ENDBRANCH   4  14
TORSDOF 2
ENDMDL
MODEL 6
REMARK VINA RESULT:      -7.4      1.568      1.939
REMARK  Name = 
REMARK  2 active torsions:
REMARK  status: ('A' for Active; 'I' for Inactive)
REMARK    1  A    between atoms: C_4  and  C_5
REMARK    2  A    between atoms: N_12  and  C_13
REMARK                            x       y       z     vdW  Elec       q    Type
REMARK                         _______ _______ _______ _____ _____    ______ ____
ROOT
ATOM      1  O   UNL     1       4.363   7.192  17.653  0.00  0.00    +0.000 OA
ATOM      2  C   UNL     1       4.637   6.165  17.055  0.00  0.00    +0.000 A 
ATOM      3  O   UNL     1       5.301   6.149  15.862  0.00  0.00    +0.000 OA
ATOM      4  C   UNL     1       5.391   4.838  15.552  0.00  0.00    +0.000 A 
ATOM      5  N   UNL     1       4.888   4.009  16.410  0.00  0.00    +0.000 NA
ATOM      6  N   UNL     1       4.388   4.843  17.374  0.00  0.00    +0.000 N 
ENDROOT
BRANCH   6   7
ATOM      7  C   UNL     1       3.649   4.307  18.450  0.00  0.00    +0.000 A 
ATOM      8  C   UNL     1       3.353   5.070  19.588  0.00  0.00    +0.000 A 
ATOM      9  C   UNL     1       2.593   4.535  20.634  0.00  0.00    +0.000 A 
ATOM     10  C   UNL     1       2.134   3.223  20.559  0.00  0.00    +0.000 A 
ATOM     11 CL   UNL     1       1.207   2.566  21.849  0.00  0.00    +0.000 Cl
ATOM     12  C   UNL     1       2.420   2.445  19.442  0.00  0.00    +0.000 A 
ATOM     13  C   UNL     1       3.169   2.988  18.391  0.00  0.00    +0.000 A 
ENDBRANCH   6   7
BRANCH   4  14
ATOM     14  C   UNL     1       6.021   4.515  14.267  0.00  0.00    +0.000 A 
ATOM     15  C   UNL     1       7.184   5.169  13.843  0.00  0.00    +0.000 A 
ATOM     16  C   UNL     1       7.733   4.873  12.593  0.00  0.00    +0.000 A 
ATOM     17  C   UNL     1       7.125   3.926  11.769  0.00  0.00    +0.000 A 
ATOM     18  C   UNL     1       5.969   3.269  12.191  0.00  0.00    +0.000 A 
ATOM     19  C   UNL     1       5.416   3.564  13.438  0.00  0.00    +0.000 A 
ENDBRANCH   4  14
TORSDOF 2
ENDMDL
MODEL 7
REMARK VINA RESULT:      -7.3      1.678      2.157
REMARK  Name = 
REMARK  2 active torsions:
REMARK  status: ('A' for Active; 'I' for Inactive)
REMARK    1  A    between atoms: C_4  and  C_5
REMARK    2  A    between atoms: N_12  and  C_13
REMARK                            x       y       z     vdW  Elec       q    Type
REMARK                         _______ _______ _______ _____ _____    ______ ____
ROOT
ATOM      1  O   UNL     1       4.159   7.279  17.543  0.00  0.00    +0.000 OA
ATOM      2  C   UNL     1       4.478   6.250  16.970  0.00  0.00    +0.000 A 
ATOM      3  O   UNL     1       5.195   6.234  15.808  0.00  0.00    +0.000 OA
ATOM      4  C   UNL     1       5.322   4.921  15.517  0.00  0.00    +0.000 A 
ATOM      5  N   UNL     1       4.794   4.093  16.361  0.00  0.00    +0.000 NA
ATOM      6  N   UNL     1       4.236   4.928  17.292  0.00  0.00    +0.000 N 
ENDROOT
BRANCH   6   7
ATOM      7  C   UNL     1       3.458   4.390  18.338  0.00  0.00    +0.000 A 
ATOM      8  C   UNL     1       2.469   3.426  18.096  0.00  0.00    +0.000 A 
ATOM      9  C   UNL     1       1.726   2.879  19.148  0.00  0.00    +0.000 A 
ATOM     10  C   UNL     1       1.954   3.303  20.454  0.00  0.00    +0.000 A 
ATOM     11 CL   UNL     1       1.034   2.635  21.743  0.00  0.00    +0.000 Cl
ATOM     12  C   UNL     1       2.926   4.263  20.718  0.00  0.00    +0.000 A 
ATOM     13  C   UNL     1       3.678   4.798  19.665  0.00  0.00    +0.000 A 
ENDBRANCH   6   7
BRANCH   4  14
ATOM     14  C   UNL     1       6.015   4.596  14.265  0.00  0.00    +0.000 A 
ATOM     15  C   UNL     1       7.215   5.225  13.915  0.00  0.00    +0.000 A 
ATOM     16  C   UNL     1       7.826   4.929  12.695  0.00  0.00    +0.000 A 
ATOM     17  C   UNL     1       7.244   4.006  11.827  0.00  0.00    +0.000 A 
ATOM     18  C   UNL     1       6.050   3.373  12.176  0.00  0.00    +0.000 A 
ATOM     19  C   UNL     1       5.435   3.668  13.393  0.00  0.00    +0.000 A 
ENDBRANCH   4  14
TORSDOF 2
ENDMDL
MODEL 8
REMARK VINA RESULT:      -7.3      2.973      6.984
REMARK  Name = 
REMARK  2 active torsions:
REMARK  status: ('A' for Active; 'I' for Inactive)
REMARK    1  A    between atoms: C_4  and  C_5
REMARK    2  A    between atoms: N_12  and  C_13
REMARK                            x       y       z     vdW  Elec       q    Type
REMARK                         _______ _______ _______ _____ _____    ______ ____
ROOT
ATOM      1  O   UNL     1       7.702   4.602  18.385  0.00  0.00    +0.000 OA
ATOM      2  C   UNL     1       6.505   4.403  18.261  0.00  0.00    +0.000 A 
ATOM      3  O   UNL     1       5.669   4.195  19.320  0.00  0.00    +0.000 OA
ATOM      4  C   UNL     1       4.457   4.012  18.753  0.00  0.00    +0.000 A 
ATOM      5  N   UNL     1       4.408   4.102  17.462  0.00  0.00    +0.000 NA
ATOM      6  N   UNL     1       5.715   4.338  17.128  0.00  0.00    +0.000 N 
ENDROOT
BRANCH   6   7
ATOM      7  C   UNL     1       6.093   4.388  15.770  0.00  0.00    +0.000 A 
ATOM      8  C   UNL     1       7.153   5.197  15.334  0.00  0.00    +0.000 A 
ATOM      9  C   UNL     1       7.537   5.214  13.988  0.00  0.00    +0.000 A 
ATOM     10  C   UNL     1       6.854   4.432  13.061  0.00  0.00    +0.000 A 
ATOM     11 CL   UNL     1       7.323   4.461  11.408  0.00  0.00    +0.000 Cl
ATOM     12  C   UNL     1       5.796   3.626  13.470  0.00  0.00    +0.000 A 
ATOM     13  C   UNL     1       5.423   3.601  14.819  0.00  0.00    +0.000 A 
ENDBRANCH   6   7
BRANCH   4  14
ATOM     14  C   UNL     1       3.350   3.706  19.666  0.00  0.00    +0.000 A 
ATOM     15  C   UNL     1       3.485   2.745  20.674  0.00  0.00    +0.000 A 
ATOM     16  C   UNL     1       2.398   2.442  21.497  0.00  0.00    +0.000 A 
ATOM     17  C   UNL     1       1.181   3.099  21.318  0.00  0.00    +0.000 A 
ATOM     18  C   UNL     1       1.045   4.062  20.318  0.00  0.00    +0.000 A 
ATOM     19  C   UNL     1       2.128   4.365  19.492  0.00  0.00    +0.000 A 
ENDBRANCH   4  14
TORSDOF 2
ENDMDL
MODEL 9
REMARK VINA RESULT:      -7.2      1.697      2.077
REMARK  Name = 
REMARK  2 active torsions:
REMARK  status: ('A' for Active; 'I' for Inactive)
REMARK    1  A    between atoms: C_4  and  C_5
REMARK    2  A    between atoms: N_12  and  C_13
REMARK                            x       y       z     vdW  Elec       q    Type
REMARK                         _______ _______ _______ _____ _____    ______ ____
ROOT
ATOM      1  O   UNL     1       6.738   4.631  18.962  0.00  0.00    +0.000 OA
ATOM      2  C   UNL     1       6.195   4.764  17.878  0.00  0.00    +0.000 A 
ATOM      3  O   UNL     1       6.781   4.402  16.699  0.00  0.00    +0.000 OA
ATOM      4  C   UNL     1       5.862   4.718  15.762  0.00  0.00    +0.000 A 
ATOM      5  N   UNL     1       4.748   5.217  16.196  0.00  0.00    +0.000 NA
ATOM      6  N   UNL     1       4.949   5.266  17.549  0.00  0.00    +0.000 N 
ENDROOT
BRANCH   6   7
ATOM      7  C   UNL     1       3.979   5.865  18.380  0.00  0.00    +0.000 A 
ATOM      8  C   UNL     1       3.403   7.103  18.060  0.00  0.00    +0.000 A 
ATOM      9  C   UNL     1       2.420   7.670  18.878  0.00  0.00    +0.000 A 
ATOM     10  C   UNL     1       2.013   7.012  20.035  0.00  0.00    +0.000 A 
ATOM     11 CL   UNL     1       0.811   7.716  21.042  0.00  0.00    +0.000 Cl
ATOM     12  C   UNL     1       2.575   5.786  20.376  0.00  0.00    +0.000 A 
ATOM     13  C   UNL     1       3.548   5.214  19.548  0.00  0.00    +0.000 A 
ENDBRANCH   6   7
BRANCH   4  14
ATOM     14  C   UNL     1       6.250   4.487  14.366  0.00  0.00    +0.000 A 
ATOM     15  C   UNL     1       5.549   3.583  13.558  0.00  0.00    +0.000 A 
ATOM     16  C   UNL     1       5.972   3.348  12.248  0.00  0.00    +0.000 A 
ATOM     17  C   UNL     1       7.088   4.016  11.743  0.00  0.00    +0.000 A 
ATOM     18  C   UNL     1       7.784   4.921  12.544  0.00  0.00    +0.000 A 
ATOM     19  C   UNL     1       7.367   5.156  13.854  0.00  0.00    +0.000 A 
ENDBRANCH   4  14
TORSDOF 2
ENDMDL
