MODEL 1
REMARK VINA RESULT:      -7.3      0.000      0.000
REMARK  Name = 
REMARK  8 active torsions:
REMARK  status: ('A' for Active; 'I' for Inactive)
REMARK    1  A    between atoms: C_1  and  C_2
REMARK    2  A    between atoms: C_2  and  O_3
REMARK    3  A    between atoms: O_3  and  C_4
REMARK    4  A    between atoms: C_7  and  N_8
REMARK    5  A    between atoms: N_9  and  C_10
REMARK    6  A    between atoms: N_13  and  C_14
REMARK    7  A    between atoms: C_14  and  N_15
REMARK    8  A    between atoms: C_18  and  C_19
REMARK                            x       y       z     vdW  Elec       q    Type
REMARK                         _______ _______ _______ _____ _____    ______ ____
ROOT
ATOM      1  C   UNL     1       4.085   4.056  19.206  0.00  0.00    +0.000 C 
ATOM      2  C   UNL     1       5.482   4.520  18.895  0.00  0.00    +0.000 C 
ATOM      3  O   UNL     1       6.244   5.041  19.694  0.00  0.00    +0.000 OA
ATOM      4  N   UNL     1       5.672   4.201  17.520  0.00  0.00    +0.000 N 
ATOM      5  N   UNL     1       4.567   3.538  16.960  0.00  0.00    +0.000 NA
ATOM      6  C   UNL     1       3.683   3.440  17.903  0.00  0.00    +0.000 C 
ATOM      7  C   UNL     1       2.370   2.751  17.729  0.00  0.00    +0.000 C 
ENDROOT
BRANCH   1   9
ATOM      8  N   UNL     1       3.378   6.089  18.537  0.00  0.00    +0.000 NA
ATOM      9  N   UNL     1       3.238   5.230  19.431  0.00  0.00    +0.000 NA
BRANCH   8  13
ATOM     10  C   UNL     1       1.126   9.624  19.116  0.00  0.00    +0.000 A 
ATOM     11  C   UNL     1       1.787   9.368  17.915  0.00  0.00    +0.000 A 
ATOM     12  C   UNL     1       2.531   8.196  17.752  0.00  0.00    +0.000 A 
ATOM     13  C   UNL     1       2.648   7.269  18.793  0.00  0.00    +0.000 A 
ATOM     14  C   UNL     1       2.003   7.549  20.008  0.00  0.00    +0.000 A 
ATOM     15  C   UNL     1       1.257   8.725  20.174  0.00  0.00    +0.000 A 
BRANCH  10  16
ATOM     16  O   UNL     1       0.400  10.780  19.140  0.00  0.00    +0.000 OA
BRANCH  16  18
ATOM     17  C   UNL     1      -1.774  10.505  18.208  0.00  0.00    +0.000 C 
ATOM     18  C   UNL     1      -0.979  10.654  19.492  0.00  0.00    +0.000 C 
ENDBRANCH  16  18
ENDBRANCH  10  16
ENDBRANCH   8  13
ENDBRANCH   1   9
BRANCH   4  19
ATOM     19  C   UNL     1       6.770   4.468  16.686  0.00  0.00    +0.000 C 
ATOM     20  S   UNL     1       6.751   4.899  15.078  0.00  0.00    +0.000 S 
BRANCH  19  21
ATOM     21  N   UNL     1       7.985   4.351  17.312  0.00  0.00    +0.000 N 
ATOM     22  H   UNL     1       8.002   4.305  18.325  0.00  0.00    +0.000 HD
ATOM     23  H   UNL     1       8.825   4.176  16.778  0.00  0.00    +0.000 HD
ENDBRANCH  19  21
ENDBRANCH   4  19
TORSDOF 6
ENDMDL
MODEL 2
REMARK VINA RESULT:      -7.0      0.830      1.441
REMARK  Name = 
REMARK  8 active torsions:
REMARK  status: ('A' for Active; 'I' for Inactive)
REMARK    1  A    between atoms: C_1  and  C_2
REMARK    2  A    between atoms: C_2  and  O_3
REMARK    3  A    between atoms: O_3  and  C_4
REMARK    4  A    between atoms: C_7  and  N_8
REMARK    5  A    between atoms: N_9  and  C_10
REMARK    6  A    between atoms: N_13  and  C_14
REMARK    7  A    between atoms: C_14  and  N_15
REMARK    8  A    between atoms: C_18  and  C_19
REMARK                            x       y       z     vdW  Elec       q    Type
REMARK                         _______ _______ _______ _____ _____    ______ ____
ROOT
ATOM      1  C   UNL     1       4.100   4.081  19.260  0.00  0.00    +0.000 C 
ATOM      2  C   UNL     1       5.489   4.538  18.907  0.00  0.00    +0.000 C 
ATOM      3  O   UNL     1       6.269   5.075  19.678  0.00  0.00    +0.000 OA
ATOM      4  N   UNL     1       5.647   4.193  17.535  0.00  0.00    +0.000 N 
ATOM      5  N   UNL     1       4.529   3.519  17.014  0.00  0.00    +0.000 NA
ATOM      6  C   UNL     1       3.668   3.439  17.980  0.00  0.00    +0.000 C 
ATOM      7  C   UNL     1       2.351   2.747  17.850  0.00  0.00    +0.000 C 
ENDROOT
BRANCH   1   9
ATOM      8  N   UNL     1       3.259   6.029  18.501  0.00  0.00    +0.000 NA
ATOM      9  N   UNL     1       3.258   5.258  19.483  0.00  0.00    +0.000 NA
BRANCH   8  13
ATOM     10  C   UNL     1       1.166   9.595  19.397  0.00  0.00    +0.000 A 
ATOM     11  C   UNL     1       1.337   8.590  20.349  0.00  0.00    +0.000 A 
ATOM     12  C   UNL     1       2.025   7.418  20.025  0.00  0.00    +0.000 A 
ATOM     13  C   UNL     1       2.536   7.217  18.738  0.00  0.00    +0.000 A 
ATOM     14  C   UNL     1       2.334   8.222  17.780  0.00  0.00    +0.000 A 
ATOM     15  C   UNL     1       1.642   9.398  18.102  0.00  0.00    +0.000 A 
BRANCH  10  16
ATOM     16  O   UNL     1       0.512  10.708  19.844  0.00  0.00    +0.000 OA
BRANCH  16  18
ATOM     17  C   UNL     1       1.292  12.896  19.322  0.00  0.00    +0.000 C 
ATOM     18  C   UNL     1       0.360  11.773  18.904  0.00  0.00    +0.000 C 
ENDBRANCH  16  18
ENDBRANCH  10  16
ENDBRANCH   8  13
ENDBRANCH   1   9
BRANCH   4  19
ATOM     19  C   UNL     1       6.724   4.444  16.670  0.00  0.00    +0.000 C 
ATOM     20  S   UNL     1       6.667   4.826  15.050  0.00  0.00    +0.000 S 
BRANCH  19  21
ATOM     21  N   UNL     1       7.953   4.357  17.272  0.00  0.00    +0.000 N 
ATOM     22  H   UNL     1       8.429   3.462  17.265  0.00  0.00    +0.000 HD
ATOM     23  H   UNL     1       8.432   5.188  17.591  0.00  0.00    +0.000 HD
ENDBRANCH  19  21
ENDBRANCH   4  19
TORSDOF 6
ENDMDL
MODEL 3
REMARK VINA RESULT:      -7.0      0.912      1.062
REMARK  Name = 
REMARK  8 active torsions:
REMARK  status: ('A' for Active; 'I' for Inactive)
REMARK    1  A    between atoms: C_1  and  C_2
REMARK    2  A    between atoms: C_2  and  O_3
REMARK    3  A    between atoms: O_3  and  C_4
REMARK    4  A    between atoms: C_7  and  N_8
REMARK    5  A    between atoms: N_9  and  C_10
REMARK    6  A    between atoms: N_13  and  C_14
REMARK    7  A    between atoms: C_14  and  N_15
REMARK    8  A    between atoms: C_18  and  C_19
REMARK                            x       y       z     vdW  Elec       q    Type
REMARK                         _______ _______ _______ _____ _____    ______ ____
ROOT
ATOM      1  C   UNL     1       3.979   4.982  18.869  0.00  0.00    +0.000 C 
ATOM      2  C   UNL     1       5.443   5.104  18.545  0.00  0.00    +0.000 C 
ATOM      3  O   UNL     1       6.289   5.582  19.285  0.00  0.00    +0.000 OA
ATOM      4  N   UNL     1       5.574   4.543  17.243  0.00  0.00    +0.000 N 
ATOM      5  N   UNL     1       4.361   4.034  16.749  0.00  0.00    +0.000 NA
ATOM      6  C   UNL     1       3.469   4.262  17.661  0.00  0.00    +0.000 C 
ATOM      7  C   UNL     1       2.045   3.830  17.544  0.00  0.00    +0.000 C 
ENDROOT
BRANCH   1   9
ATOM      8  N   UNL     1       2.598   6.477  19.838  0.00  0.00    +0.000 NA
ATOM      9  N   UNL     1       3.386   6.322  18.882  0.00  0.00    +0.000 NA
BRANCH   8  13
ATOM     10  C   UNL     1       0.569  10.179  19.554  0.00  0.00    +0.000 A 
ATOM     11  C   UNL     1       1.269   9.645  18.472  0.00  0.00    +0.000 A 
ATOM     12  C   UNL     1       1.938   8.425  18.594  0.00  0.00    +0.000 A 
ATOM     13  C   UNL     1       1.940   7.724  19.806  0.00  0.00    +0.000 A 
ATOM     14  C   UNL     1       1.257   8.284  20.897  0.00  0.00    +0.000 A 
ATOM     15  C   UNL     1       0.586   9.510  20.776  0.00  0.00    +0.000 A 
BRANCH  10  16
ATOM     16  O   UNL     1      -0.076  11.355  19.300  0.00  0.00    +0.000 OA
BRANCH  16  18
ATOM     17  C   UNL     1      -2.231  12.251  19.772  0.00  0.00    +0.000 C 
ATOM     18  C   UNL     1      -1.453  11.256  18.931  0.00  0.00    +0.000 C 
ENDBRANCH  16  18
ENDBRANCH  10  16
ENDBRANCH   8  13
ENDBRANCH   1   9
BRANCH   4  19
ATOM     19  C   UNL     1       6.709   4.453  16.422  0.00  0.00    +0.000 C 
ATOM     20  S   UNL     1       6.775   4.525  14.759  0.00  0.00    +0.000 S 
BRANCH  19  21
ATOM     21  N   UNL     1       7.883   4.288  17.111  0.00  0.00    +0.000 N 
ATOM     22  H   UNL     1       7.869   3.733  17.959  0.00  0.00    +0.000 HD
ATOM     23  H   UNL     1       8.762   4.592  16.713  0.00  0.00    +0.000 HD
ENDBRANCH  19  21
ENDBRANCH   4  19
TORSDOF 6
ENDMDL
MODEL 4
REMARK VINA RESULT:      -7.0      1.093      1.606
REMARK  Name = 
REMARK  8 active torsions:
REMARK  status: ('A' for Active; 'I' for Inactive)
REMARK    1  A    between atoms: C_1  and  C_2
REMARK    2  A    between atoms: C_2  and  O_3
REMARK    3  A    between atoms: O_3  and  C_4
REMARK    4  A    between atoms: C_7  and  N_8
REMARK    5  A    between atoms: N_9  and  C_10
REMARK    6  A    between atoms: N_13  and  C_14
REMARK    7  A    between atoms: C_14  and  N_15
REMARK    8  A    between atoms: C_18  and  C_19
REMARK                            x       y       z     vdW  Elec       q    Type
REMARK                         _______ _______ _______ _____ _____    ______ ____
ROOT
ATOM      1  C   UNL     1       3.933   5.030  18.803  0.00  0.00    +0.000 C 
ATOM      2  C   UNL     1       5.393   5.150  18.460  0.00  0.00    +0.000 C 
ATOM      3  O   UNL     1       6.242   5.664  19.172  0.00  0.00    +0.000 OA
ATOM      4  N   UNL     1       5.517   4.538  17.181  0.00  0.00    +0.000 N 
ATOM      5  N   UNL     1       4.304   3.999  16.719  0.00  0.00    +0.000 NA
ATOM      6  C   UNL     1       3.419   4.258  17.630  0.00  0.00    +0.000 C 
ATOM      7  C   UNL     1       1.997   3.810  17.543  0.00  0.00    +0.000 C 
ENDROOT
BRANCH   1   9
ATOM      8  N   UNL     1       2.579   6.566  19.743  0.00  0.00    +0.000 NA
ATOM      9  N   UNL     1       3.329   6.364  18.767  0.00  0.00    +0.000 NA
BRANCH   8  13
ATOM     10  C   UNL     1       0.626  10.320  19.711  0.00  0.00    +0.000 A 
ATOM     11  C   UNL     1       0.649   9.518  20.852  0.00  0.00    +0.000 A 
ATOM     12  C   UNL     1       1.294   8.279  20.834  0.00  0.00    +0.000 A 
ATOM     13  C   UNL     1       1.909   7.806  19.670  0.00  0.00    +0.000 A 
ATOM     14  C   UNL     1       1.855   8.606  18.519  0.00  0.00    +0.000 A 
ATOM     15  C   UNL     1       1.207   9.850  18.534  0.00  0.00    +0.000 A 
BRANCH  10  16
ATOM     16  O   UNL     1       0.001  11.524  19.864  0.00  0.00    +0.000 OA
BRANCH  16  18
ATOM     17  C   UNL     1      -0.398  13.345  18.382  0.00  0.00    +0.000 C 
ATOM     18  C   UNL     1      -0.833  11.947  18.783  0.00  0.00    +0.000 C 
ENDBRANCH  16  18
ENDBRANCH  10  16
ENDBRANCH   8  13
ENDBRANCH   1   9
BRANCH   4  19
ATOM     19  C   UNL     1       6.645   4.422  16.353  0.00  0.00    +0.000 C 
ATOM     20  S   UNL     1       6.697   4.439  14.688  0.00  0.00    +0.000 S 
BRANCH  19  21
ATOM     21  N   UNL     1       7.826   4.284  17.037  0.00  0.00    +0.000 N 
ATOM     22  H   UNL     1       8.671   4.106  16.506  0.00  0.00    +0.000 HD
ATOM     23  H   UNL     1       7.877   4.492  18.025  0.00  0.00    +0.000 HD
ENDBRANCH  19  21
ENDBRANCH   4  19
TORSDOF 6
ENDMDL
MODEL 5
REMARK VINA RESULT:      -6.9      0.907      1.122
REMARK  Name = 
REMARK  8 active torsions:
REMARK  status: ('A' for Active; 'I' for Inactive)
REMARK    1  A    between atoms: C_1  and  C_2
REMARK    2  A    between atoms: C_2  and  O_3
REMARK    3  A    between atoms: O_3  and  C_4
REMARK    4  A    between atoms: C_7  and  N_8
REMARK    5  A    between atoms: N_9  and  C_10
REMARK    6  A    between atoms: N_13  and  C_14
REMARK    7  A    between atoms: C_14  and  N_15
REMARK    8  A    between atoms: C_18  and  C_19
REMARK                            x       y       z     vdW  Elec       q    Type
REMARK                         _______ _______ _______ _____ _____    ______ ____
ROOT
ATOM      1  C   UNL     1       4.245   4.076  19.408  0.00  0.00    +0.000 C 
ATOM      2  C   UNL     1       5.584   4.550  18.916  0.00  0.00    +0.000 C 
ATOM      3  O   UNL     1       6.393   5.181  19.578  0.00  0.00    +0.000 OA
ATOM      4  N   UNL     1       5.660   4.091  17.570  0.00  0.00    +0.000 N 
ATOM      5  N   UNL     1       4.538   3.333  17.193  0.00  0.00    +0.000 NA
ATOM      6  C   UNL     1       3.751   3.308  18.223  0.00  0.00    +0.000 C 
ATOM      7  C   UNL     1       2.459   2.559  18.252  0.00  0.00    +0.000 C 
ENDROOT
BRANCH   1   9
ATOM      8  N   UNL     1       3.455   6.042  18.641  0.00  0.00    +0.000 NA
ATOM      9  N   UNL     1       3.371   5.237  19.591  0.00  0.00    +0.000 NA
BRANCH   8  13
ATOM     10  C   UNL     1       1.147   9.562  19.072  0.00  0.00    +0.000 A 
ATOM     11  C   UNL     1       1.945   9.345  17.948  0.00  0.00    +0.000 A 
ATOM     12  C   UNL     1       2.704   8.177  17.835  0.00  0.00    +0.000 A 
ATOM     13  C   UNL     1       2.699   7.215  18.850  0.00  0.00    +0.000 A 
ATOM     14  C   UNL     1       1.916   7.456  19.989  0.00  0.00    +0.000 A 
ATOM     15  C   UNL     1       1.154   8.628  20.106  0.00  0.00    +0.000 A 
BRANCH  10  16
ATOM     16  O   UNL     1       0.422  10.718  19.050  0.00  0.00    +0.000 OA
BRANCH  16  18
ATOM     17  C   UNL     1       1.432  12.309  20.505  0.00  0.00    +0.000 C 
ATOM     18  C   UNL     1       1.170  11.936  19.057  0.00  0.00    +0.000 C 
ENDBRANCH  16  18
ENDBRANCH  10  16
ENDBRANCH   8  13
ENDBRANCH   1   9
BRANCH   4  19
ATOM     19  C   UNL     1       6.662   4.303  16.610  0.00  0.00    +0.000 C 
ATOM     20  S   UNL     1       6.476   4.519  14.969  0.00  0.00    +0.000 S 
BRANCH  19  21
ATOM     21  N   UNL     1       7.931   4.331  17.128  0.00  0.00    +0.000 N 
ATOM     22  H   UNL     1       8.564   5.057  16.811  0.00  0.00    +0.000 HD
ATOM     23  H   UNL     1       8.185   3.734  17.904  0.00  0.00    +0.000 HD
ENDBRANCH  19  21
ENDBRANCH   4  19
TORSDOF 6
ENDMDL
MODEL 6
REMARK VINA RESULT:      -6.8      1.205      1.797
REMARK  Name = 
REMARK  8 active torsions:
REMARK  status: ('A' for Active; 'I' for Inactive)
REMARK    1  A    between atoms: C_1  and  C_2
REMARK    2  A    between atoms: C_2  and  O_3
REMARK    3  A    between atoms: O_3  and  C_4
REMARK    4  A    between atoms: C_7  and  N_8
REMARK    5  A    between atoms: N_9  and  C_10
REMARK    6  A    between atoms: N_13  and  C_14
REMARK    7  A    between atoms: C_14  and  N_15
REMARK    8  A    between atoms: C_18  and  C_19
REMARK                            x       y       z     vdW  Elec       q    Type
REMARK                         _______ _______ _______ _____ _____    ______ ____
ROOT
ATOM      1  C   UNL     1       4.010   5.008  18.919  0.00  0.00    +0.000 C 
ATOM      2  C   UNL     1       5.480   5.127  18.622  0.00  0.00    +0.000 C 
ATOM      3  O   UNL     1       6.315   5.592  19.382  0.00  0.00    +0.000 OA
ATOM      4  N   UNL     1       5.632   4.581  17.316  0.00  0.00    +0.000 N 
ATOM      5  N   UNL     1       4.426   4.083  16.794  0.00  0.00    +0.000 NA
ATOM      6  C   UNL     1       3.519   4.305  17.694  0.00  0.00    +0.000 C 
ATOM      7  C   UNL     1       2.095   3.880  17.546  0.00  0.00    +0.000 C 
ENDROOT
BRANCH   1   9
ATOM      8  N   UNL     1       2.532   6.460  19.805  0.00  0.00    +0.000 NA
ATOM      9  N   UNL     1       3.422   6.349  18.937  0.00  0.00    +0.000 NA
BRANCH   8  13
ATOM     10  C   UNL     1       0.650  10.249  19.876  0.00  0.00    +0.000 A 
ATOM     11  C   UNL     1       0.681   9.428  21.003  0.00  0.00    +0.000 A 
ATOM     12  C   UNL     1       1.302   8.177  20.951  0.00  0.00    +0.000 A 
ATOM     13  C   UNL     1       1.884   7.712  19.766  0.00  0.00    +0.000 A 
ATOM     14  C   UNL     1       1.822   8.534  18.630  0.00  0.00    +0.000 A 
ATOM     15  C   UNL     1       1.198   9.789  18.680  0.00  0.00    +0.000 A 
BRANCH  10  16
ATOM     16  O   UNL     1       0.051  11.462  20.062  0.00  0.00    +0.000 OA
BRANCH  16  18
ATOM     17  C   UNL     1      -0.944  12.572  21.919  0.00  0.00    +0.000 C 
ATOM     18  C   UNL     1       0.363  12.143  21.279  0.00  0.00    +0.000 C 
ENDBRANCH  16  18
ENDBRANCH  10  16
ENDBRANCH   8  13
ENDBRANCH   1   9
BRANCH   4  19
ATOM     19  C   UNL     1       6.780   4.496  16.513  0.00  0.00    +0.000 C 
ATOM     20  S   UNL     1       6.881   4.624  14.856  0.00  0.00    +0.000 S 
BRANCH  19  21
ATOM     21  N   UNL     1       7.937   4.283  17.218  0.00  0.00    +0.000 N 
ATOM     22  H   UNL     1       8.406   3.390  17.114  0.00  0.00    +0.000 HD
ATOM     23  H   UNL     1       8.384   5.040  17.717  0.00  0.00    +0.000 HD
ENDBRANCH  19  21
ENDBRANCH   4  19
TORSDOF 6
ENDMDL
MODEL 7
REMARK VINA RESULT:      -6.8      1.141      1.277
REMARK  Name = 
REMARK  8 active torsions:
REMARK  status: ('A' for Active; 'I' for Inactive)
REMARK    1  A    between atoms: C_1  and  C_2
REMARK    2  A    between atoms: C_2  and  O_3
REMARK    3  A    between atoms: O_3  and  C_4
REMARK    4  A    between atoms: C_7  and  N_8
REMARK    5  A    between atoms: N_9  and  C_10
REMARK    6  A    between atoms: N_13  and  C_14
REMARK    7  A    between atoms: C_14  and  N_15
REMARK    8  A    between atoms: C_18  and  C_19
REMARK                            x       y       z     vdW  Elec       q    Type
REMARK                         _______ _______ _______ _____ _____    ______ ____
ROOT
ATOM      1  C   UNL     1       4.416   4.130  18.942  0.00  0.00    +0.000 C 
ATOM      2  C   UNL     1       5.705   4.750  18.475  0.00  0.00    +0.000 C 
ATOM      3  O   UNL     1       6.550   5.246  19.203  0.00  0.00    +0.000 OA
ATOM      4  N   UNL     1       5.685   4.605  17.059  0.00  0.00    +0.000 N 
ATOM      5  N   UNL     1       4.552   3.910  16.602  0.00  0.00    +0.000 NA
ATOM      6  C   UNL     1       3.847   3.628  17.653  0.00  0.00    +0.000 C 
ATOM      7  C   UNL     1       2.576   2.847  17.604  0.00  0.00    +0.000 C 
ENDROOT
BRANCH   1   9
ATOM      8  N   UNL     1       3.294   6.049  18.571  0.00  0.00    +0.000 NA
ATOM      9  N   UNL     1       3.537   5.190  19.443  0.00  0.00    +0.000 NA
BRANCH   8  13
ATOM     10  C   UNL     1       0.930   9.307  19.875  0.00  0.00    +0.000 A 
ATOM     11  C   UNL     1       1.463   9.261  18.587  0.00  0.00    +0.000 A 
ATOM     12  C   UNL     1       2.248   8.177  18.184  0.00  0.00    +0.000 A 
ATOM     13  C   UNL     1       2.534   7.129  19.066  0.00  0.00    +0.000 A 
ATOM     14  C   UNL     1       2.017   7.199  20.369  0.00  0.00    +0.000 A 
ATOM     15  C   UNL     1       1.231   8.286  20.776  0.00  0.00    +0.000 A 
BRANCH  10  16
ATOM     16  O   UNL     1       0.149  10.395  20.138  0.00  0.00    +0.000 OA
BRANCH  16  18
ATOM     17  C   UNL     1      -0.604  11.202  22.248  0.00  0.00    +0.000 C 
ATOM     18  C   UNL     1       0.540  11.202  21.250  0.00  0.00    +0.000 C 
ENDBRANCH  16  18
ENDBRANCH  10  16
ENDBRANCH   8  13
ENDBRANCH   1   9
BRANCH   4  19
ATOM     19  C   UNL     1       6.606   5.061  16.102  0.00  0.00    +0.000 C 
ATOM     20  S   UNL     1       6.790   4.541  14.531  0.00  0.00    +0.000 S 
BRANCH  19  21
ATOM     21  N   UNL     1       7.432   6.057  16.556  0.00  0.00    +0.000 N 
ATOM     22  H   UNL     1       7.054   6.994  16.641  0.00  0.00    +0.000 HD
ATOM     23  H   UNL     1       8.347   5.840  16.927  0.00  0.00    +0.000 HD
ENDBRANCH  19  21
ENDBRANCH   4  19
TORSDOF 6
ENDMDL
MODEL 8
REMARK VINA RESULT:      -6.7      2.428      3.264
REMARK  Name = 
REMARK  8 active torsions:
REMARK  status: ('A' for Active; 'I' for Inactive)
REMARK    1  A    between atoms: C_1  and  C_2
REMARK    2  A    between atoms: C_2  and  O_3
REMARK    3  A    between atoms: O_3  and  C_4
REMARK    4  A    between atoms: C_7  and  N_8
REMARK    5  A    between atoms: N_9  and  C_10
REMARK    6  A    between atoms: N_13  and  C_14
REMARK    7  A    between atoms: C_14  and  N_15
REMARK    8  A    between atoms: C_18  and  C_19
REMARK                            x       y       z     vdW  Elec       q    Type
REMARK                         _______ _______ _______ _____ _____    ______ ____
ROOT
ATOM      1  C   UNL     1       4.570   5.129  17.332  0.00  0.00    +0.000 C 
ATOM      2  C   UNL     1       3.778   3.986  17.905  0.00  0.00    +0.000 C 
ATOM      3  O   UNL     1       2.748   3.536  17.428  0.00  0.00    +0.000 OA
ATOM      4  N   UNL     1       4.502   3.588  19.064  0.00  0.00    +0.000 N 
ATOM      5  N   UNL     1       5.689   4.321  19.240  0.00  0.00    +0.000 NA
ATOM      6  C   UNL     1       5.739   5.173  18.264  0.00  0.00    +0.000 C 
ATOM      7  C   UNL     1       6.877   6.118  18.058  0.00  0.00    +0.000 C 
ENDROOT
BRANCH   1   9
ATOM      8  N   UNL     1       3.286   6.442  18.637  0.00  0.00    +0.000 NA
ATOM      9  N   UNL     1       3.806   6.367  17.505  0.00  0.00    +0.000 NA
BRANCH   8  13
ATOM     10  C   UNL     1       0.881   9.866  19.267  0.00  0.00    +0.000 A 
ATOM     11  C   UNL     1       1.094   8.928  20.276  0.00  0.00    +0.000 A 
ATOM     12  C   UNL     1       1.886   7.801  20.040  0.00  0.00    +0.000 A 
ATOM     13  C   UNL     1       2.462   7.578  18.784  0.00  0.00    +0.000 A 
ATOM     14  C   UNL     1       2.218   8.513  17.767  0.00  0.00    +0.000 A 
ATOM     15  C   UNL     1       1.422   9.644  18.001  0.00  0.00    +0.000 A 
BRANCH  10  16
ATOM     16  O   UNL     1       0.124  10.943  19.630  0.00  0.00    +0.000 OA
BRANCH  16  18
ATOM     17  C   UNL     1      -0.231  12.996  18.477  0.00  0.00    +0.000 C 
ATOM     18  C   UNL     1       0.701  12.230  19.399  0.00  0.00    +0.000 C 
ENDBRANCH  16  18
ENDBRANCH  10  16
ENDBRANCH   8  13
ENDBRANCH   1   9
BRANCH   4  19
ATOM     19  C   UNL     1       4.187   2.609  20.021  0.00  0.00    +0.000 C 
ATOM     20  S   UNL     1       2.877   2.569  21.048  0.00  0.00    +0.000 S 
BRANCH  19  21
ATOM     21  N   UNL     1       5.091   1.580  20.082  0.00  0.00    +0.000 N 
ATOM     22  H   UNL     1       4.819   0.678  19.707  0.00  0.00    +0.000 HD
ATOM     23  H   UNL     1       6.047   1.749  20.364  0.00  0.00    +0.000 HD
ENDBRANCH  19  21
ENDBRANCH   4  19
TORSDOF 6
ENDMDL
MODEL 9
REMARK VINA RESULT:      -6.7      2.301      2.992
REMARK  Name = 
REMARK  8 active torsions:
REMARK  status: ('A' for Active; 'I' for Inactive)
REMARK    1  A    between atoms: C_1  and  C_2
REMARK    2  A    between atoms: C_2  and  O_3
REMARK    3  A    between atoms: O_3  and  C_4
REMARK    4  A    between atoms: C_7  and  N_8
REMARK    5  A    between atoms: N_9  and  C_10
REMARK    6  A    between atoms: N_13  and  C_14
REMARK    7  A    between atoms: C_14  and  N_15
REMARK    8  A    between atoms: C_18  and  C_19
REMARK                            x       y       z     vdW  Elec       q    Type
REMARK                         _______ _______ _______ _____ _____    ______ ____
ROOT
ATOM      1  C   UNL     1       4.659   5.238  17.394  0.00  0.00    +0.000 C 
ATOM      2  C   UNL     1       3.818   4.107  17.918  0.00  0.00    +0.000 C 
ATOM      3  O   UNL     1       2.762   3.733  17.432  0.00  0.00    +0.000 OA
ATOM      4  N   UNL     1       4.535   3.613  19.044  0.00  0.00    +0.000 N 
ATOM      5  N   UNL     1       5.758   4.277  19.241  0.00  0.00    +0.000 NA
ATOM      6  C   UNL     1       5.839   5.176  18.311  0.00  0.00    +0.000 C 
ATOM      7  C   UNL     1       7.020   6.074  18.139  0.00  0.00    +0.000 C 
ENDROOT
BRANCH   1   9
ATOM      8  N   UNL     1       3.233   6.443  18.657  0.00  0.00    +0.000 NA
ATOM      9  N   UNL     1       3.959   6.501  17.643  0.00  0.00    +0.000 NA
BRANCH   8  13
ATOM     10  C   UNL     1       0.894   9.946  19.052  0.00  0.00    +0.000 A 
ATOM     11  C   UNL     1       1.580   9.656  17.873  0.00  0.00    +0.000 A 
ATOM     12  C   UNL     1       2.353   8.496  17.771  0.00  0.00    +0.000 A 
ATOM     13  C   UNL     1       2.473   7.616  18.852  0.00  0.00    +0.000 A 
ATOM     14  C   UNL     1       1.802   7.931  20.043  0.00  0.00    +0.000 A 
ATOM     15  C   UNL     1       1.028   9.096  20.149  0.00  0.00    +0.000 A 
BRANCH  10  16
ATOM     16  O   UNL     1       0.142  11.085  19.017  0.00  0.00    +0.000 OA
BRANCH  16  18
ATOM     17  C   UNL     1      -2.043  11.774  18.368  0.00  0.00    +0.000 C 
ATOM     18  C   UNL     1      -1.240  10.943  19.351  0.00  0.00    +0.000 C 
ENDBRANCH  16  18
ENDBRANCH  10  16
ENDBRANCH   8  13
ENDBRANCH   1   9
BRANCH   4  19
ATOM     19  C   UNL     1       4.183   2.601  19.952  0.00  0.00    +0.000 C 
ATOM     20  S   UNL     1       2.894   2.578  21.007  0.00  0.00    +0.000 S 
BRANCH  19  21
ATOM     21  N   UNL     1       5.025   1.519  19.934  0.00  0.00    +0.000 N 
ATOM     22  H   UNL     1       4.627   0.603  19.762  0.00  0.00    +0.000 HD
ATOM     23  H   UNL     1       6.028   1.646  19.952  0.00  0.00    +0.000 HD
ENDBRANCH  19  21
ENDBRANCH   4  19
TORSDOF 6
ENDMDL
