MODEL 1
REMARK VINA RESULT:      -9.5      0.000      0.000
REMARK  Name = 
REMARK  5 active torsions:
REMARK  status: ('A' for Active; 'I' for Inactive)
REMARK    1  A    between atoms: C_2  and  C_3
REMARK    2  A    between atoms: C_3  and  N_4
REMARK    3  A    between atoms: N_20  and  C_21
REMARK    4  A    between atoms: C_24  and  C_25
REMARK    5  A    between atoms: N_27  and  O_28
REMARK                            x       y       z     vdW  Elec       q    Type
REMARK                         _______ _______ _______ _____ _____    ______ ____
ROOT
ATOM      1  C   UNL     1       7.874   6.217  18.407  0.00  0.00    +0.000 C 
ENDROOT
BRANCH   1   2
ATOM      2  N   UNL     1       6.717   5.575  17.829  0.00  0.00    +0.000 N 
ATOM      3  C   UNL     1       5.587   5.243  18.569  0.00  0.00    +0.000 C 
ATOM      4  O   UNL     1       5.464   5.411  19.777  0.00  0.00    +0.000 OA
ATOM      5  C   UNL     1       4.518   4.601  17.566  0.00  0.00    +0.000 C 
ATOM      6  O   UNL     1       3.403   5.437  17.281  0.00  0.00    +0.000 OA
ATOM      7  C   UNL     1       2.515   5.531  18.389  0.00  0.00    +0.000 C 
ATOM      8  C   UNL     1       2.060   4.150  18.821  0.00  0.00    +0.000 C 
ATOM      9  C   UNL     1       3.266   3.251  19.031  0.00  0.00    +0.000 C 
ATOM     10  O   UNL     1       4.116   3.278  17.889  0.00  0.00    +0.000 OA
ATOM     11  C   UNL     1       5.350   4.545  16.298  0.00  0.00    +0.000 A 
ATOM     12  C   UNL     1       5.013   4.018  15.058  0.00  0.00    +0.000 A 
ATOM     13  C   UNL     1       5.963   4.079  14.035  0.00  0.00    +0.000 A 
ATOM     14 BR   UNL     1       5.560   3.352  12.335  0.00  0.00    +0.000 Br
ATOM     15  C   UNL     1       7.221   4.665  14.250  0.00  0.00    +0.000 A 
ATOM     16  C   UNL     1       7.545   5.205  15.496  0.00  0.00    +0.000 A 
ATOM     17  C   UNL     1       6.604   5.132  16.508  0.00  0.00    +0.000 A 
ENDBRANCH   1   2
BRANCH   1  19
ATOM     18  O   UNL     1       7.222   8.172  17.193  0.00  0.00    +0.000 OA
ATOM     19  C   UNL     1       7.892   7.715  18.120  0.00  0.00    +0.000 C 
ATOM     20  N   UNL     1       8.762   8.437  18.923  0.00  0.00    +0.000 N 
ATOM     21  H   UNL     1       9.429   7.902  19.472  0.00  0.00    +0.000 HD
BRANCH  20  22
ATOM     22  C   UNL     1       8.937   9.839  18.887  0.00  0.00    +0.000 A 
ATOM     23  C   UNL     1       8.609  10.617  17.772  0.00  0.00    +0.000 A 
ATOM     24  C   UNL     1       8.876  11.988  17.752  0.00  0.00    +0.000 A 
ATOM     25  C   UNL     1       9.479  12.605  18.849  0.00  0.00    +0.000 A 
ATOM     26  C   UNL     1       9.747  11.850  19.997  0.00  0.00    +0.000 A 
ATOM     27  C   UNL     1       9.467  10.474  20.017  0.00  0.00    +0.000 A 
BRANCH  25  28
ATOM     28  C   UNL     1       9.808  14.050  18.745  0.00  0.00    +0.000 C 
ATOM     29  O   UNL     1      10.370  14.645  19.662  0.00  0.00    +0.000 OA
ATOM     30  N   UNL     1       9.383  14.700  17.608  0.00  0.00    +0.000 N 
ATOM     31  H   UNL     1       8.627  14.343  17.034  0.00  0.00    +0.000 HD
BRANCH  30  32
ATOM     32  O   UNL     1       9.506  16.111  17.653  0.00  0.00    +0.000 OA
ATOM     33  H   UNL     1       9.841  16.261  18.567  0.00  0.00    +0.000 HD
ENDBRANCH  30  32
ENDBRANCH  25  28
ENDBRANCH  20  22
ENDBRANCH   1  19
TORSDOF 5
ENDMDL
MODEL 2
REMARK VINA RESULT:      -9.0      5.626      8.023
REMARK  Name = 
REMARK  5 active torsions:
REMARK  status: ('A' for Active; 'I' for Inactive)
REMARK    1  A    between atoms: C_2  and  C_3
REMARK    2  A    between atoms: C_3  and  N_4
REMARK    3  A    between atoms: N_20  and  C_21
REMARK    4  A    between atoms: C_24  and  C_25
REMARK    5  A    between atoms: N_27  and  O_28
REMARK                            x       y       z     vdW  Elec       q    Type
REMARK                         _______ _______ _______ _____ _____    ______ ____
ROOT
ATOM      1  C   UNL     1       2.826   8.148  19.215  0.00  0.00    +0.000 C 
ENDROOT
BRANCH   1   2
ATOM      2  N   UNL     1       2.975   6.767  18.820  0.00  0.00    +0.000 N 
ATOM      3  C   UNL     1       2.394   5.713  19.518  0.00  0.00    +0.000 C 
ATOM      4  O   UNL     1       1.743   5.829  20.550  0.00  0.00    +0.000 OA
ATOM      5  C   UNL     1       2.748   4.360  18.742  0.00  0.00    +0.000 C 
ATOM      6  O   UNL     1       1.651   3.774  18.051  0.00  0.00    +0.000 OA
ATOM      7  C   UNL     1       0.718   3.181  18.946  0.00  0.00    +0.000 C 
ATOM      8  C   UNL     1       1.408   2.160  19.831  0.00  0.00    +0.000 C 
ATOM      9  C   UNL     1       2.627   2.785  20.485  0.00  0.00    +0.000 C 
ATOM     10  O   UNL     1       3.461   3.400  19.508  0.00  0.00    +0.000 OA
ATOM     11  C   UNL     1       3.685   4.905  17.680  0.00  0.00    +0.000 A 
ATOM     12  C   UNL     1       4.401   4.212  16.712  0.00  0.00    +0.000 A 
ATOM     13  C   UNL     1       5.213   4.945  15.841  0.00  0.00    +0.000 A 
ATOM     14 BR   UNL     1       6.227   4.044  14.522  0.00  0.00    +0.000 Br
ATOM     15  C   UNL     1       5.295   6.343  15.934  0.00  0.00    +0.000 A 
ATOM     16  C   UNL     1       4.560   7.032  16.901  0.00  0.00    +0.000 A 
ATOM     17  C   UNL     1       3.767   6.300  17.768  0.00  0.00    +0.000 A 
ENDBRANCH   1   2
BRANCH   1  19
ATOM     18  O   UNL     1       1.729   8.917  17.233  0.00  0.00    +0.000 OA
ATOM     19  C   UNL     1       1.690   8.832  18.461  0.00  0.00    +0.000 C 
ATOM     20  N   UNL     1       0.716   9.384  19.280  0.00  0.00    +0.000 N 
ATOM     21  H   UNL     1       0.936   9.456  20.270  0.00  0.00    +0.000 HD
BRANCH  20  22
ATOM     22  C   UNL     1      -0.456  10.036  18.834  0.00  0.00    +0.000 A 
ATOM     23  C   UNL     1      -1.028  11.117  19.511  0.00  0.00    +0.000 A 
ATOM     24  C   UNL     1      -2.232  11.678  19.078  0.00  0.00    +0.000 A 
ATOM     25  C   UNL     1      -2.885  11.164  17.958  0.00  0.00    +0.000 A 
ATOM     26  C   UNL     1      -2.287  10.128  17.230  0.00  0.00    +0.000 A 
ATOM     27  C   UNL     1      -1.071   9.575  17.663  0.00  0.00    +0.000 A 
BRANCH  25  28
ATOM     28  C   UNL     1      -4.200  11.749  17.584  0.00  0.00    +0.000 C 
ATOM     29  O   UNL     1      -4.718  11.514  16.495  0.00  0.00    +0.000 OA
ATOM     30  N   UNL     1      -4.764  12.624  18.485  0.00  0.00    +0.000 N 
ATOM     31  H   UNL     1      -4.212  13.106  19.187  0.00  0.00    +0.000 HD
BRANCH  30  32
ATOM     32  O   UNL     1      -5.887  13.335  17.993  0.00  0.00    +0.000 OA
ATOM     33  H   UNL     1      -6.118  13.912  18.757  0.00  0.00    +0.000 HD
ENDBRANCH  30  32
ENDBRANCH  25  28
ENDBRANCH  20  22
ENDBRANCH   1  19
TORSDOF 5
ENDMDL
MODEL 3
REMARK VINA RESULT:      -8.8      6.730     10.496
REMARK  Name = 
REMARK  5 active torsions:
REMARK  status: ('A' for Active; 'I' for Inactive)
REMARK    1  A    between atoms: C_2  and  C_3
REMARK    2  A    between atoms: C_3  and  N_4
REMARK    3  A    between atoms: N_20  and  C_21
REMARK    4  A    between atoms: C_24  and  C_25
REMARK    5  A    between atoms: N_27  and  O_28
REMARK                            x       y       z     vdW  Elec       q    Type
REMARK                         _______ _______ _______ _____ _____    ______ ____
ROOT
ATOM      1  C   UNL     1       1.507  10.250  18.051  0.00  0.00    +0.000 C 
ENDROOT
BRANCH   1   2
ATOM      2  N   UNL     1       0.431  10.993  18.661  0.00  0.00    +0.000 N 
ATOM      3  C   UNL     1       0.620  11.859  19.734  0.00  0.00    +0.000 C 
ATOM      4  O   UNL     1       1.691  12.051  20.300  0.00  0.00    +0.000 OA
ATOM      5  C   UNL     1      -0.793  12.521  20.083  0.00  0.00    +0.000 C 
ATOM      6  O   UNL     1      -0.908  13.891  19.717  0.00  0.00    +0.000 OA
ATOM      7  C   UNL     1      -0.145  14.732  20.573  0.00  0.00    +0.000 C 
ATOM      8  C   UNL     1      -0.550  14.523  22.020  0.00  0.00    +0.000 C 
ATOM      9  C   UNL     1      -0.507  13.043  22.359  0.00  0.00    +0.000 C 
ATOM     10  O   UNL     1      -1.251  12.289  21.407  0.00  0.00    +0.000 OA
ATOM     11  C   UNL     1      -1.687  11.745  19.133  0.00  0.00    +0.000 A 
ATOM     12  C   UNL     1      -3.068  11.803  18.993  0.00  0.00    +0.000 A 
ATOM     13  C   UNL     1      -3.670  10.975  18.042  0.00  0.00    +0.000 A 
ATOM     14 BR   UNL     1      -5.551  11.001  17.831  0.00  0.00    +0.000 Br
ATOM     15  C   UNL     1      -2.902  10.115  17.241  0.00  0.00    +0.000 A 
ATOM     16  C   UNL     1      -1.513  10.074  17.379  0.00  0.00    +0.000 A 
ATOM     17  C   UNL     1      -0.924  10.889  18.331  0.00  0.00    +0.000 A 
ENDBRANCH   1   2
BRANCH   1  19
ATOM     18  O   UNL     1       1.337   8.725  19.886  0.00  0.00    +0.000 OA
ATOM     19  C   UNL     1       1.716   8.898  18.727  0.00  0.00    +0.000 C 
ATOM     20  N   UNL     1       2.411   7.979  17.957  0.00  0.00    +0.000 N 
ATOM     21  H   UNL     1       2.876   8.335  17.126  0.00  0.00    +0.000 HD
BRANCH  20  22
ATOM     22  C   UNL     1       2.702   6.648  18.333  0.00  0.00    +0.000 A 
ATOM     23  C   UNL     1       3.716   6.318  19.238  0.00  0.00    +0.000 A 
ATOM     24  C   UNL     1       4.020   4.984  19.518  0.00  0.00    +0.000 A 
ATOM     25  C   UNL     1       3.314   3.954  18.894  0.00  0.00    +0.000 A 
ATOM     26  C   UNL     1       2.250   4.272  18.041  0.00  0.00    +0.000 A 
ATOM     27  C   UNL     1       1.941   5.615  17.772  0.00  0.00    +0.000 A 
BRANCH  25  28
ATOM     28  C   UNL     1       3.727   2.554  19.171  0.00  0.00    +0.000 C 
ATOM     29  O   UNL     1       2.944   1.617  19.038  0.00  0.00    +0.000 OA
ATOM     30  N   UNL     1       5.004   2.372  19.656  0.00  0.00    +0.000 N 
ATOM     31  H   UNL     1       5.519   3.118  20.111  0.00  0.00    +0.000 HD
BRANCH  30  32
ATOM     32  O   UNL     1       5.276   1.063  20.127  0.00  0.00    +0.000 OA
ATOM     33  H   UNL     1       4.751   1.029  20.959  0.00  0.00    +0.000 HD
ENDBRANCH  30  32
ENDBRANCH  25  28
ENDBRANCH  20  22
ENDBRANCH   1  19
TORSDOF 5
ENDMDL
MODEL 4
REMARK VINA RESULT:      -8.8      6.816     10.357
REMARK  Name = 
REMARK  5 active torsions:
REMARK  status: ('A' for Active; 'I' for Inactive)
REMARK    1  A    between atoms: C_2  and  C_3
REMARK    2  A    between atoms: C_3  and  N_4
REMARK    3  A    between atoms: N_20  and  C_21
REMARK    4  A    between atoms: C_24  and  C_25
REMARK    5  A    between atoms: N_27  and  O_28
REMARK                            x       y       z     vdW  Elec       q    Type
REMARK                         _______ _______ _______ _____ _____    ______ ____
ROOT
ATOM      1  C   UNL     1       1.501  10.643  18.411  0.00  0.00    +0.000 C 
ENDROOT
BRANCH   1   2
ATOM      2  N   UNL     1       0.335  11.188  19.067  0.00  0.00    +0.000 N 
ATOM      3  C   UNL     1       0.374  11.743  20.342  0.00  0.00    +0.000 C 
ATOM      4  O   UNL     1       1.368  11.791  21.058  0.00  0.00    +0.000 OA
ATOM      5  C   UNL     1      -1.095  12.274  20.688  0.00  0.00    +0.000 C 
ATOM      6  O   UNL     1      -1.226  13.690  20.680  0.00  0.00    +0.000 OA
ATOM      7  C   UNL     1      -0.593  14.285  21.807  0.00  0.00    +0.000 C 
ATOM      8  C   UNL     1      -1.143  13.698  23.094  0.00  0.00    +0.000 C 
ATOM      9  C   UNL     1      -1.076  12.183  23.039  0.00  0.00    +0.000 C 
ATOM     10  O   UNL     1      -1.682  11.697  21.845  0.00  0.00    +0.000 OA
ATOM     11  C   UNL     1      -1.849  11.765  19.473  0.00  0.00    +0.000 A 
ATOM     12  C   UNL     1      -3.209  11.843  19.196  0.00  0.00    +0.000 A 
ATOM     13  C   UNL     1      -3.671  11.288  18.000  0.00  0.00    +0.000 A 
ATOM     14 BR   UNL     1      -5.518  11.346  17.591  0.00  0.00    +0.000 Br
ATOM     15  C   UNL     1      -2.787  10.677  17.097  0.00  0.00    +0.000 A 
ATOM     16  C   UNL     1      -1.420  10.617  17.377  0.00  0.00    +0.000 A 
ATOM     17  C   UNL     1      -0.970  11.158  18.569  0.00  0.00    +0.000 A 
ENDBRANCH   1   2
BRANCH   1  19
ATOM     18  O   UNL     1       1.173   8.693  19.759  0.00  0.00    +0.000 OA
ATOM     19  C   UNL     1       1.709   9.172  18.758  0.00  0.00    +0.000 C 
ATOM     20  N   UNL     1       2.583   8.507  17.911  0.00  0.00    +0.000 N 
ATOM     21  H   UNL     1       3.139   9.081  17.283  0.00  0.00    +0.000 HD
BRANCH  20  22
ATOM     22  C   UNL     1       2.915   7.135  17.990  0.00  0.00    +0.000 A 
ATOM     23  C   UNL     1       2.036   6.168  18.486  0.00  0.00    +0.000 A 
ATOM     24  C   UNL     1       2.438   4.836  18.622  0.00  0.00    +0.000 A 
ATOM     25  C   UNL     1       3.730   4.451  18.264  0.00  0.00    +0.000 A 
ATOM     26  C   UNL     1       4.596   5.396  17.699  0.00  0.00    +0.000 A 
ATOM     27  C   UNL     1       4.183   6.730  17.555  0.00  0.00    +0.000 A 
BRANCH  25  28
ATOM     28  C   UNL     1       4.129   3.039  18.497  0.00  0.00    +0.000 C 
ATOM     29  O   UNL     1       3.665   2.123  17.824  0.00  0.00    +0.000 OA
ATOM     30  N   UNL     1       4.983   2.806  19.553  0.00  0.00    +0.000 N 
ATOM     31  H   UNL     1       5.082   3.460  20.321  0.00  0.00    +0.000 HD
BRANCH  30  32
ATOM     32  O   UNL     1       5.150   1.438  19.886  0.00  0.00    +0.000 OA
ATOM     33  H   UNL     1       5.627   1.491  20.746  0.00  0.00    +0.000 HD
ENDBRANCH  30  32
ENDBRANCH  25  28
ENDBRANCH  20  22
ENDBRANCH   1  19
TORSDOF 5
ENDMDL
MODEL 5
REMARK VINA RESULT:      -8.7      7.025     10.870
REMARK  Name = 
REMARK  5 active torsions:
REMARK  status: ('A' for Active; 'I' for Inactive)
REMARK    1  A    between atoms: C_2  and  C_3
REMARK    2  A    between atoms: C_3  and  N_4
REMARK    3  A    between atoms: N_20  and  C_21
REMARK    4  A    between atoms: C_24  and  C_25
REMARK    5  A    between atoms: N_27  and  O_28
REMARK                            x       y       z     vdW  Elec       q    Type
REMARK                         _______ _______ _______ _____ _____    ______ ____
ROOT
ATOM      1  C   UNL     1       1.046  10.112  21.329  0.00  0.00    +0.000 C 
ENDROOT
BRANCH   1   2
ATOM      2  N   UNL     1      -0.123  10.861  20.933  0.00  0.00    +0.000 N 
ATOM      3  C   UNL     1      -0.819  11.696  21.802  0.00  0.00    +0.000 C 
ATOM      4  O   UNL     1      -0.552  11.853  22.988  0.00  0.00    +0.000 OA
ATOM      5  C   UNL     1      -2.009  12.376  20.977  0.00  0.00    +0.000 C 
ATOM      6  O   UNL     1      -1.815  13.756  20.694  0.00  0.00    +0.000 OA
ATOM      7  C   UNL     1      -1.972  14.562  21.857  0.00  0.00    +0.000 C 
ATOM      8  C   UNL     1      -3.333  14.324  22.485  0.00  0.00    +0.000 C 
ATOM      9  C   UNL     1      -3.552  12.836  22.692  0.00  0.00    +0.000 C 
ATOM     10  O   UNL     1      -3.310  12.120  21.486  0.00  0.00    +0.000 OA
ATOM     11  C   UNL     1      -1.866  11.641  19.657  0.00  0.00    +0.000 A 
ATOM     12  C   UNL     1      -2.659  11.729  18.521  0.00  0.00    +0.000 A 
ATOM     13  C   UNL     1      -2.325  10.937  17.419  0.00  0.00    +0.000 A 
ATOM     14 BR   UNL     1      -3.391  11.004  15.857  0.00  0.00    +0.000 Br
ATOM     15  C   UNL     1      -1.212  10.082  17.454  0.00  0.00    +0.000 A 
ATOM     16  C   UNL     1      -0.411  10.011  18.596  0.00  0.00    +0.000 A 
ATOM     17  C   UNL     1      -0.754  10.790  19.688  0.00  0.00    +0.000 A 
ENDBRANCH   1   2
BRANCH   1  19
ATOM     18  O   UNL     1      -0.130   8.033  21.471  0.00  0.00    +0.000 OA
ATOM     19  C   UNL     1       0.876   8.619  21.068  0.00  0.00    +0.000 C 
ATOM     20  N   UNL     1       1.960   8.025  20.438  0.00  0.00    +0.000 N 
ATOM     21  H   UNL     1       2.816   8.570  20.388  0.00  0.00    +0.000 HD
BRANCH  20  22
ATOM     22  C   UNL     1       2.039   6.668  20.050  0.00  0.00    +0.000 A 
ATOM     23  C   UNL     1       1.669   5.615  20.891  0.00  0.00    +0.000 A 
ATOM     24  C   UNL     1       1.842   4.286  20.494  0.00  0.00    +0.000 A 
ATOM     25  C   UNL     1       2.391   3.990  19.246  0.00  0.00    +0.000 A 
ATOM     26  C   UNL     1       2.699   5.035  18.367  0.00  0.00    +0.000 A 
ATOM     27  C   UNL     1       2.513   6.369  18.766  0.00  0.00    +0.000 A 
BRANCH  25  28
ATOM     28  C   UNL     1       2.621   2.562  18.904  0.00  0.00    +0.000 C 
ATOM     29  O   UNL     1       1.750   1.714  19.076  0.00  0.00    +0.000 OA
ATOM     30  N   UNL     1       3.882   2.231  18.459  0.00  0.00    +0.000 N 
ATOM     31  H   UNL     1       4.692   2.809  18.654  0.00  0.00    +0.000 HD
BRANCH  30  32
ATOM     32  O   UNL     1       4.130   0.838  18.371  0.00  0.00    +0.000 OA
ATOM     33  H   UNL     1       4.493   0.748  17.461  0.00  0.00    +0.000 HD
ENDBRANCH  30  32
ENDBRANCH  25  28
ENDBRANCH  20  22
ENDBRANCH   1  19
TORSDOF 5
ENDMDL
MODEL 6
REMARK VINA RESULT:      -8.7      5.912      8.274
REMARK  Name = 
REMARK  5 active torsions:
REMARK  status: ('A' for Active; 'I' for Inactive)
REMARK    1  A    between atoms: C_2  and  C_3
REMARK    2  A    between atoms: C_3  and  N_4
REMARK    3  A    between atoms: N_20  and  C_21
REMARK    4  A    between atoms: C_24  and  C_25
REMARK    5  A    between atoms: N_27  and  O_28
REMARK                            x       y       z     vdW  Elec       q    Type
REMARK                         _______ _______ _______ _____ _____    ______ ____
ROOT
ATOM      1  C   UNL     1       2.575   8.546  19.147  0.00  0.00    +0.000 C 
ENDROOT
BRANCH   1   2
ATOM      2  N   UNL     1       2.767   7.129  18.945  0.00  0.00    +0.000 N 
ATOM      3  C   UNL     1       2.224   6.164  19.787  0.00  0.00    +0.000 C 
ATOM      4  O   UNL     1       1.575   6.400  20.800  0.00  0.00    +0.000 OA
ATOM      5  C   UNL     1       2.618   4.729  19.201  0.00  0.00    +0.000 C 
ATOM      6  O   UNL     1       1.537   4.019  18.608  0.00  0.00    +0.000 OA
ATOM      7  C   UNL     1       0.628   3.526  19.585  0.00  0.00    +0.000 C 
ATOM      8  C   UNL     1       1.355   2.658  20.595  0.00  0.00    +0.000 C 
ATOM      9  C   UNL     1       2.557   3.406  21.146  0.00  0.00    +0.000 C 
ATOM     10  O   UNL     1       3.365   3.907  20.086  0.00  0.00    +0.000 OA
ATOM     11  C   UNL     1       3.531   5.151  18.065  0.00  0.00    +0.000 A 
ATOM     12  C   UNL     1       4.264   4.355  17.195  0.00  0.00    +0.000 A 
ATOM     13  C   UNL     1       5.047   4.985  16.224  0.00  0.00    +0.000 A 
ATOM     14 BR   UNL     1       6.083   3.943  15.031  0.00  0.00    +0.000 Br
ATOM     15  C   UNL     1       5.084   6.385  16.122  0.00  0.00    +0.000 A 
ATOM     16  C   UNL     1       4.332   7.177  16.992  0.00  0.00    +0.000 A 
ATOM     17  C   UNL     1       3.568   6.546  17.959  0.00  0.00    +0.000 A 
ENDBRANCH   1   2
BRANCH   1  19
ATOM     18  O   UNL     1       1.182   8.953  17.245  0.00  0.00    +0.000 OA
ATOM     19  C   UNL     1       1.305   9.048  18.467  0.00  0.00    +0.000 C 
ATOM     20  N   UNL     1       0.404   9.658  19.326  0.00  0.00    +0.000 N 
ATOM     21  H   UNL     1       0.741   9.887  20.257  0.00  0.00    +0.000 HD
BRANCH  20  22
ATOM     22  C   UNL     1      -0.860  10.172  18.957  0.00  0.00    +0.000 A 
ATOM     23  C   UNL     1      -1.661   9.584  17.972  0.00  0.00    +0.000 A 
ATOM     24  C   UNL     1      -2.867  10.174  17.583  0.00  0.00    +0.000 A 
ATOM     25  C   UNL     1      -3.291  11.365  18.174  0.00  0.00    +0.000 A 
ATOM     26  C   UNL     1      -2.533  11.924  19.210  0.00  0.00    +0.000 A 
ATOM     27  C   UNL     1      -1.328  11.322  19.605  0.00  0.00    +0.000 A 
BRANCH  25  28
ATOM     28  C   UNL     1      -4.543  11.988  17.671  0.00  0.00    +0.000 C 
ATOM     29  O   UNL     1      -4.999  11.705  16.566  0.00  0.00    +0.000 OA
ATOM     30  N   UNL     1      -5.118  12.949  18.473  0.00  0.00    +0.000 N 
ATOM     31  H   UNL     1      -4.589  13.450  19.179  0.00  0.00    +0.000 HD
BRANCH  30  32
ATOM     32  O   UNL     1      -6.165  13.681  17.858  0.00  0.00    +0.000 OA
ATOM     33  H   UNL     1      -6.910  13.038  17.884  0.00  0.00    +0.000 HD
ENDBRANCH  30  32
ENDBRANCH  25  28
ENDBRANCH  20  22
ENDBRANCH   1  19
TORSDOF 5
ENDMDL
MODEL 7
REMARK VINA RESULT:      -8.6      7.241     10.805
REMARK  Name = 
REMARK  5 active torsions:
REMARK  status: ('A' for Active; 'I' for Inactive)
REMARK    1  A    between atoms: C_2  and  C_3
REMARK    2  A    between atoms: C_3  and  N_4
REMARK    3  A    between atoms: N_20  and  C_21
REMARK    4  A    between atoms: C_24  and  C_25
REMARK    5  A    between atoms: N_27  and  O_28
REMARK                            x       y       z     vdW  Elec       q    Type
REMARK                         _______ _______ _______ _____ _____    ______ ____
ROOT
ATOM      1  C   UNL     1       1.107  10.675  18.874  0.00  0.00    +0.000 C 
ENDROOT
BRANCH   1   2
ATOM      2  N   UNL     1      -0.044  11.356  19.417  0.00  0.00    +0.000 N 
ATOM      3  C   UNL     1       0.004  12.117  20.581  0.00  0.00    +0.000 C 
ATOM      4  O   UNL     1       0.996  12.256  21.288  0.00  0.00    +0.000 OA
ATOM      5  C   UNL     1      -1.450  12.741  20.816  0.00  0.00    +0.000 C 
ATOM      6  O   UNL     1      -1.537  14.139  20.569  0.00  0.00    +0.000 OA
ATOM      7  C   UNL     1      -0.893  14.897  21.586  0.00  0.00    +0.000 C 
ATOM      8  C   UNL     1      -1.467  14.552  22.948  0.00  0.00    +0.000 C 
ATOM      9  C   UNL     1      -1.446  13.047  23.149  0.00  0.00    +0.000 C 
ATOM     10  O   UNL     1      -2.060  12.384  22.048  0.00  0.00    +0.000 OA
ATOM     11  C   UNL     1      -2.213  12.057  19.697  0.00  0.00    +0.000 A 
ATOM     12  C   UNL     1      -3.567  12.126  19.397  0.00  0.00    +0.000 A 
ATOM     13  C   UNL     1      -4.040  11.390  18.307  0.00  0.00    +0.000 A 
ATOM     14 BR   UNL     1      -5.882  11.432  17.874  0.00  0.00    +0.000 Br
ATOM     15  C   UNL     1      -3.171  10.611  17.528  0.00  0.00    +0.000 A 
ATOM     16  C   UNL     1      -1.807  10.559  17.829  0.00  0.00    +0.000 A 
ATOM     17  C   UNL     1      -1.347  11.281  18.917  0.00  0.00    +0.000 A 
ENDBRANCH   1   2
BRANCH   1  19
ATOM     18  O   UNL     1       0.669   8.959  20.483  0.00  0.00    +0.000 OA
ATOM     19  C   UNL     1       1.250   9.266  19.441  0.00  0.00    +0.000 C 
ATOM     20  N   UNL     1       2.122   8.453  18.732  0.00  0.00    +0.000 N 
ATOM     21  H   UNL     1       2.717   8.909  18.045  0.00  0.00    +0.000 HD
BRANCH  20  22
ATOM     22  C   UNL     1       2.400   7.098  19.024  0.00  0.00    +0.000 A 
ATOM     23  C   UNL     1       1.971   6.471  20.197  0.00  0.00    +0.000 A 
ATOM     24  C   UNL     1       2.339   5.153  20.481  0.00  0.00    +0.000 A 
ATOM     25  C   UNL     1       3.147   4.441  19.593  0.00  0.00    +0.000 A 
ATOM     26  C   UNL     1       3.524   5.035  18.382  0.00  0.00    +0.000 A 
ATOM     27  C   UNL     1       3.142   6.355  18.097  0.00  0.00    +0.000 A 
BRANCH  25  28
ATOM     28  C   UNL     1       3.570   3.069  19.978  0.00  0.00    +0.000 C 
ATOM     29  O   UNL     1       2.905   2.389  20.755  0.00  0.00    +0.000 OA
ATOM     30  N   UNL     1       4.779   2.635  19.481  0.00  0.00    +0.000 N 
ATOM     31  H   UNL     1       5.494   3.280  19.160  0.00  0.00    +0.000 HD
BRANCH  30  32
ATOM     32  O   UNL     1       5.254   1.429  20.056  0.00  0.00    +0.000 OA
ATOM     33  H   UNL     1       6.215   1.615  20.162  0.00  0.00    +0.000 HD
ENDBRANCH  30  32
ENDBRANCH  25  28
ENDBRANCH  20  22
ENDBRANCH   1  19
TORSDOF 5
ENDMDL
MODEL 8
REMARK VINA RESULT:      -8.5      6.392     10.298
REMARK  Name = 
REMARK  5 active torsions:
REMARK  status: ('A' for Active; 'I' for Inactive)
REMARK    1  A    between atoms: C_2  and  C_3
REMARK    2  A    between atoms: C_3  and  N_4
REMARK    3  A    between atoms: N_20  and  C_21
REMARK    4  A    between atoms: C_24  and  C_25
REMARK    5  A    between atoms: N_27  and  O_28
REMARK                            x       y       z     vdW  Elec       q    Type
REMARK                         _______ _______ _______ _____ _____    ______ ____
ROOT
ATOM      1  C   UNL     1       1.189   9.782  17.917  0.00  0.00    +0.000 C 
ENDROOT
BRANCH   1   2
ATOM      2  N   UNL     1       0.897  10.848  18.846  0.00  0.00    +0.000 N 
ATOM      3  C   UNL     1      -0.191  10.820  19.713  0.00  0.00    +0.000 C 
ATOM      4  O   UNL     1      -1.032   9.930  19.756  0.00  0.00    +0.000 OA
ATOM      5  C   UNL     1      -0.138  12.147  20.605  0.00  0.00    +0.000 C 
ATOM      6  O   UNL     1       0.239  11.932  21.959  0.00  0.00    +0.000 OA
ATOM      7  C   UNL     1      -0.800  11.306  22.703  0.00  0.00    +0.000 C 
ATOM      8  C   UNL     1      -2.077  12.120  22.620  0.00  0.00    +0.000 C 
ATOM      9  C   UNL     1      -2.407  12.414  21.167  0.00  0.00    +0.000 C 
ATOM     10  O   UNL     1      -1.282  12.981  20.502  0.00  0.00    +0.000 OA
ATOM     11  C   UNL     1       1.026  12.861  19.942  0.00  0.00    +0.000 A 
ATOM     12  C   UNL     1       1.543  14.122  20.213  0.00  0.00    +0.000 A 
ATOM     13  C   UNL     1       2.628  14.567  19.453  0.00  0.00    +0.000 A 
ATOM     14 BR   UNL     1       3.351  16.288  19.768  0.00  0.00    +0.000 Br
ATOM     15  C   UNL     1       3.189  13.761  18.450  0.00  0.00    +0.000 A 
ATOM     16  C   UNL     1       2.672  12.488  18.196  0.00  0.00    +0.000 A 
ATOM     17  C   UNL     1       1.590  12.058  18.944  0.00  0.00    +0.000 A 
ENDBRANCH   1   2
BRANCH   1  19
ATOM     18  O   UNL     1       1.855   8.544  19.853  0.00  0.00    +0.000 OA
ATOM     19  C   UNL     1       1.710   8.538  18.630  0.00  0.00    +0.000 C 
ATOM     20  N   UNL     1       2.057   7.499  17.779  0.00  0.00    +0.000 N 
ATOM     21  H   UNL     1       2.120   7.719  16.789  0.00  0.00    +0.000 HD
BRANCH  20  22
ATOM     22  C   UNL     1       2.528   6.229  18.186  0.00  0.00    +0.000 A 
ATOM     23  C   UNL     1       3.731   6.050  18.874  0.00  0.00    +0.000 A 
ATOM     24  C   UNL     1       4.196   4.769  19.184  0.00  0.00    +0.000 A 
ATOM     25  C   UNL     1       3.462   3.644  18.807  0.00  0.00    +0.000 A 
ATOM     26  C   UNL     1       2.221   3.813  18.181  0.00  0.00    +0.000 A 
ATOM     27  C   UNL     1       1.753   5.102  17.882  0.00  0.00    +0.000 A 
BRANCH  25  28
ATOM     28  C   UNL     1       4.037   2.304  19.096  0.00  0.00    +0.000 C 
ATOM     29  O   UNL     1       3.540   1.281  18.631  0.00  0.00    +0.000 OA
ATOM     30  N   UNL     1       5.103   2.266  19.967  0.00  0.00    +0.000 N 
ATOM     31  H   UNL     1       5.287   3.013  20.628  0.00  0.00    +0.000 HD
BRANCH  30  32
ATOM     32  O   UNL     1       5.467   0.965  20.397  0.00  0.00    +0.000 OA
ATOM     33  H   UNL     1       4.821   0.399  19.916  0.00  0.00    +0.000 HD
ENDBRANCH  30  32
ENDBRANCH  25  28
ENDBRANCH  20  22
ENDBRANCH   1  19
TORSDOF 5
ENDMDL
MODEL 9
REMARK VINA RESULT:      -8.3      5.238      7.467
REMARK  Name = 
REMARK  5 active torsions:
REMARK  status: ('A' for Active; 'I' for Inactive)
REMARK    1  A    between atoms: C_2  and  C_3
REMARK    2  A    between atoms: C_3  and  N_4
REMARK    3  A    between atoms: N_20  and  C_21
REMARK    4  A    between atoms: C_24  and  C_25
REMARK    5  A    between atoms: N_27  and  O_28
REMARK                            x       y       z     vdW  Elec       q    Type
REMARK                         _______ _______ _______ _____ _____    ______ ____
ROOT
ATOM      1  C   UNL     1       3.472   7.883  18.748  0.00  0.00    +0.000 C 
ENDROOT
BRANCH   1   2
ATOM      2  N   UNL     1       3.512   6.510  18.303  0.00  0.00    +0.000 N 
ATOM      3  C   UNL     1       2.928   5.466  19.013  0.00  0.00    +0.000 C 
ATOM      4  O   UNL     1       2.364   5.581  20.096  0.00  0.00    +0.000 OA
ATOM      5  C   UNL     1       3.145   4.122  18.172  0.00  0.00    +0.000 C 
ATOM      6  O   UNL     1       1.969   3.620  17.551  0.00  0.00    +0.000 OA
ATOM      7  C   UNL     1       1.074   3.048  18.499  0.00  0.00    +0.000 C 
ATOM      8  C   UNL     1       1.770   1.962  19.297  0.00  0.00    +0.000 C 
ATOM      9  C   UNL     1       3.068   2.498  19.873  0.00  0.00    +0.000 C 
ATOM     10  O   UNL     1       3.859   3.101  18.853  0.00  0.00    +0.000 OA
ATOM     11  C   UNL     1       4.029   4.651  17.058  0.00  0.00    +0.000 A 
ATOM     12  C   UNL     1       4.630   3.954  16.017  0.00  0.00    +0.000 A 
ATOM     13  C   UNL     1       5.413   4.671  15.108  0.00  0.00    +0.000 A 
ATOM     14 BR   UNL     1       6.272   3.762  13.689  0.00  0.00    +0.000 Br
ATOM     15  C   UNL     1       5.580   6.059  15.235  0.00  0.00    +0.000 A 
ATOM     16  C   UNL     1       4.960   6.754  16.276  0.00  0.00    +0.000 A 
ATOM     17  C   UNL     1       4.195   6.036  17.180  0.00  0.00    +0.000 A 
ENDBRANCH   1   2
BRANCH   1  19
ATOM     18  O   UNL     1       2.056   8.806  17.055  0.00  0.00    +0.000 OA
ATOM     19  C   UNL     1       2.217   8.599  18.259  0.00  0.00    +0.000 C 
ATOM     20  N   UNL     1       1.377   9.033  19.274  0.00  0.00    +0.000 N 
ATOM     21  H   UNL     1       1.753   9.014  20.218  0.00  0.00    +0.000 HD
BRANCH  20  22
ATOM     22  C   UNL     1       0.137   9.686  19.088  0.00  0.00    +0.000 A 
ATOM     23  C   UNL     1      -0.636   9.533  17.934  0.00  0.00    +0.000 A 
ATOM     24  C   UNL     1      -1.816  10.262  17.760  0.00  0.00    +0.000 A 
ATOM     25  C   UNL     1      -2.240  11.159  18.741  0.00  0.00    +0.000 A 
ATOM     26  C   UNL     1      -1.512  11.268  19.932  0.00  0.00    +0.000 A 
ATOM     27  C   UNL     1      -0.333  10.525  20.106  0.00  0.00    +0.000 A 
BRANCH  25  28
ATOM     28  C   UNL     1      -3.461  11.963  18.473  0.00  0.00    +0.000 C 
ATOM     29  O   UNL     1      -4.033  12.577  19.371  0.00  0.00    +0.000 OA
ATOM     30  N   UNL     1      -3.957  11.921  17.189  0.00  0.00    +0.000 N 
ATOM     31  H   UNL     1      -3.738  11.164  16.550  0.00  0.00    +0.000 HD
BRANCH  30  32
ATOM     32  O   UNL     1      -5.241  12.502  17.033  0.00  0.00    +0.000 OA
ATOM     33  H   UNL     1      -5.587  12.492  17.955  0.00  0.00    +0.000 HD
ENDBRANCH  30  32
ENDBRANCH  25  28
ENDBRANCH  20  22
ENDBRANCH   1  19
TORSDOF 5
ENDMDL
