MODEL 1
REMARK VINA RESULT:      -6.2      0.000      0.000
REMARK  Name = 
REMARK  7 active torsions:
REMARK  status: ('A' for Active; 'I' for Inactive)
REMARK    1  A    between atoms: C_1  and  O_2
REMARK    2  A    between atoms: O_2  and  C_3
REMARK    3  A    between atoms: C_3  and  C_4
REMARK    4  A    between atoms: C_4  and  N_5
REMARK    5  A    between atoms: N_12  and  C_13
REMARK    6  A    between atoms: C_13  and  C_14
REMARK    7  A    between atoms: C_13  and  C_15
REMARK                            x       y       z     vdW  Elec       q    Type
REMARK                         _______ _______ _______ _____ _____    ______ ____
ROOT
ATOM      1  N   UNL     1       6.168   5.481  14.778  0.00  0.00    +0.000 NA
ATOM      2  C   UNL     1       7.449   5.473  15.550  0.00  0.00    +0.000 C 
ATOM      3  C   UNL     1       7.326   4.749  16.908  0.00  0.00    +0.000 C 
ATOM      4  O   UNL     1       8.265   4.125  17.395  0.00  0.00    +0.000 OA
ATOM      5  C   UNL     1       6.049   4.963  17.543  0.00  0.00    +0.000 A 
ATOM      6  S   UNL     1       5.627   4.444  19.088  0.00  0.00    +0.000 S 
ATOM      7  C   UNL     1       4.126   5.300  18.941  0.00  0.00    +0.000 A 
ATOM      8  N   UNL     1       3.346   5.413  20.040  0.00  0.00    +0.000 N 
ATOM      9  N   UNL     1       3.893   5.810  17.750  0.00  0.00    +0.000 NA
ATOM     10  C   UNL     1       5.002   5.625  16.940  0.00  0.00    +0.000 A 
ATOM     11  C   UNL     1       5.097   6.173  15.548  0.00  0.00    +0.000 C 
ATOM     12  H   UNL     1       3.636   4.919  20.875  0.00  0.00    +0.000 HD
ENDROOT
BRANCH   8  13
ATOM     13  C   UNL     1       1.951   5.798  19.960  0.00  0.00    +0.000 C 
ATOM     14  C   UNL     1       1.080   4.660  20.490  0.00  0.00    +0.000 C 
ATOM     15  C   UNL     1       1.740   7.054  20.807  0.00  0.00    +0.000 C 
ENDBRANCH   8  13
BRANCH   1  16
ATOM     16  C   UNL     1       5.824   4.104  14.359  0.00  0.00    +0.000 C 
BRANCH  16  17
ATOM     17  C   UNL     1       6.350   3.677  12.985  0.00  0.00    +0.000 C 
BRANCH  17  19
ATOM     18  C   UNL     1       5.628   2.051  11.450  0.00  0.00    +0.000 C 
ATOM     19  O   UNL     1       5.252   3.191  12.210  0.00  0.00    +0.000 OA
ENDBRANCH  17  19
ENDBRANCH  16  17
ENDBRANCH   1  16
TORSDOF 4
ENDMDL
MODEL 2
REMARK VINA RESULT:      -6.1      2.583      6.337
REMARK  Name = 
REMARK  7 active torsions:
REMARK  status: ('A' for Active; 'I' for Inactive)
REMARK    1  A    between atoms: C_1  and  O_2
REMARK    2  A    between atoms: O_2  and  C_3
REMARK    3  A    between atoms: C_3  and  C_4
REMARK    4  A    between atoms: C_4  and  N_5
REMARK    5  A    between atoms: N_12  and  C_13
REMARK    6  A    between atoms: C_13  and  C_14
REMARK    7  A    between atoms: C_13  and  C_15
REMARK                            x       y       z     vdW  Elec       q    Type
REMARK                         _______ _______ _______ _____ _____    ______ ____
ROOT
ATOM      1  N   UNL     1       5.086   4.991  18.241  0.00  0.00    +0.000 NA
ATOM      2  C   UNL     1       6.483   5.518  18.343  0.00  0.00    +0.000 C 
ATOM      3  C   UNL     1       7.039   6.009  16.989  0.00  0.00    +0.000 C 
ATOM      4  O   UNL     1       7.823   6.951  16.916  0.00  0.00    +0.000 OA
ATOM      5  C   UNL     1       6.603   5.199  15.879  0.00  0.00    +0.000 A 
ATOM      6  S   UNL     1       7.129   5.360  14.287  0.00  0.00    +0.000 S 
ATOM      7  C   UNL     1       6.233   3.934  13.871  0.00  0.00    +0.000 A 
ATOM      8  N   UNL     1       6.415   3.403  12.640  0.00  0.00    +0.000 N 
ATOM      9  N   UNL     1       5.467   3.461  14.831  0.00  0.00    +0.000 NA
ATOM     10  C   UNL     1       5.680   4.182  15.995  0.00  0.00    +0.000 A 
ATOM     11  C   UNL     1       5.030   3.838  17.300  0.00  0.00    +0.000 C 
ATOM     12  H   UNL     1       7.000   3.913  11.991  0.00  0.00    +0.000 HD
ENDROOT
BRANCH   8  13
ATOM     13  C   UNL     1       5.493   2.440  12.072  0.00  0.00    +0.000 C 
ATOM     14  C   UNL     1       4.397   3.177  11.305  0.00  0.00    +0.000 C 
ATOM     15  C   UNL     1       6.266   1.523  11.122  0.00  0.00    +0.000 C 
ENDBRANCH   8  13
BRANCH   1  16
ATOM     16  C   UNL     1       4.156   6.092  17.912  0.00  0.00    +0.000 C 
BRANCH  16  17
ATOM     17  C   UNL     1       2.665   5.744  17.978  0.00  0.00    +0.000 C 
BRANCH  17  19
ATOM     18  C   UNL     1       1.545   4.049  19.160  0.00  0.00    +0.000 C 
ATOM     19  O   UNL     1       2.385   5.191  19.266  0.00  0.00    +0.000 OA
ENDBRANCH  17  19
ENDBRANCH  16  17
ENDBRANCH   1  16
TORSDOF 4
ENDMDL
MODEL 3
REMARK VINA RESULT:      -6.1      2.498      4.305
REMARK  Name = 
REMARK  7 active torsions:
REMARK  status: ('A' for Active; 'I' for Inactive)
REMARK    1  A    between atoms: C_1  and  O_2
REMARK    2  A    between atoms: O_2  and  C_3
REMARK    3  A    between atoms: C_3  and  C_4
REMARK    4  A    between atoms: C_4  and  N_5
REMARK    5  A    between atoms: N_12  and  C_13
REMARK    6  A    between atoms: C_13  and  C_14
REMARK    7  A    between atoms: C_13  and  C_15
REMARK                            x       y       z     vdW  Elec       q    Type
REMARK                         _______ _______ _______ _____ _____    ______ ____
ROOT
ATOM      1  N   UNL     1       7.577   5.170  16.937  0.00  0.00    +0.000 NA
ATOM      2  C   UNL     1       7.195   4.348  15.746  0.00  0.00    +0.000 C 
ATOM      3  C   UNL     1       5.666   4.230  15.565  0.00  0.00    +0.000 C 
ATOM      4  O   UNL     1       5.152   4.154  14.452  0.00  0.00    +0.000 OA
ATOM      5  C   UNL     1       4.959   4.140  16.817  0.00  0.00    +0.000 A 
ATOM      6  S   UNL     1       3.307   3.860  16.989  0.00  0.00    +0.000 S 
ATOM      7  C   UNL     1       3.526   3.757  18.706  0.00  0.00    +0.000 A 
ATOM      8  N   UNL     1       2.484   3.337  19.458  0.00  0.00    +0.000 N 
ATOM      9  N   UNL     1       4.732   4.069  19.131  0.00  0.00    +0.000 NA
ATOM     10  C   UNL     1       5.566   4.284  18.046  0.00  0.00    +0.000 A 
ATOM     11  C   UNL     1       7.032   4.567  18.185  0.00  0.00    +0.000 C 
ATOM     12  H   UNL     1       1.599   3.184  18.990  0.00  0.00    +0.000 HD
ENDROOT
BRANCH   8  13
ATOM     13  C   UNL     1       2.439   3.532  20.893  0.00  0.00    +0.000 C 
ATOM     14  C   UNL     1       2.007   4.966  21.197  0.00  0.00    +0.000 C 
ATOM     15  C   UNL     1       1.432   2.547  21.491  0.00  0.00    +0.000 C 
ENDBRANCH   8  13
BRANCH   1  16
ATOM     16  C   UNL     1       7.186   6.580  16.722  0.00  0.00    +0.000 C 
BRANCH  16  17
ATOM     17  C   UNL     1       7.547   7.549  17.853  0.00  0.00    +0.000 C 
BRANCH  17  19
ATOM     18  C   UNL     1       8.560   9.628  18.274  0.00  0.00    +0.000 C 
ATOM     19  O   UNL     1       8.060   8.751  17.273  0.00  0.00    +0.000 OA
ENDBRANCH  17  19
ENDBRANCH  16  17
ENDBRANCH   1  16
TORSDOF 4
ENDMDL
MODEL 4
REMARK VINA RESULT:      -5.9      1.556      1.786
REMARK  Name = 
REMARK  7 active torsions:
REMARK  status: ('A' for Active; 'I' for Inactive)
REMARK    1  A    between atoms: C_1  and  O_2
REMARK    2  A    between atoms: O_2  and  C_3
REMARK    3  A    between atoms: C_3  and  C_4
REMARK    4  A    between atoms: C_4  and  N_5
REMARK    5  A    between atoms: N_12  and  C_13
REMARK    6  A    between atoms: C_13  and  C_14
REMARK    7  A    between atoms: C_13  and  C_15
REMARK                            x       y       z     vdW  Elec       q    Type
REMARK                         _______ _______ _______ _____ _____    ______ ____
ROOT
ATOM      1  N   UNL     1       6.510   6.099  15.759  0.00  0.00    +0.000 NA
ATOM      2  C   UNL     1       7.389   6.416  16.928  0.00  0.00    +0.000 C 
ATOM      3  C   UNL     1       7.244   5.398  18.079  0.00  0.00    +0.000 C 
ATOM      4  O   UNL     1       8.192   5.103  18.802  0.00  0.00    +0.000 OA
ATOM      5  C   UNL     1       5.893   4.925  18.242  0.00  0.00    +0.000 A 
ATOM      6  S   UNL     1       5.351   3.923  19.483  0.00  0.00    +0.000 S 
ATOM      7  C   UNL     1       3.729   4.117  18.901  0.00  0.00    +0.000 A 
ATOM      8  N   UNL     1       2.717   3.640  19.661  0.00  0.00    +0.000 N 
ATOM      9  N   UNL     1       3.623   4.763  17.759  0.00  0.00    +0.000 NA
ATOM     10  C   UNL     1       4.868   5.238  17.376  0.00  0.00    +0.000 A 
ATOM     11  C   UNL     1       5.077   6.098  16.166  0.00  0.00    +0.000 C 
ATOM     12  H   UNL     1       2.961   3.117  20.493  0.00  0.00    +0.000 HD
ENDROOT
BRANCH   8  13
ATOM     13  C   UNL     1       1.382   3.444  19.133  0.00  0.00    +0.000 C 
ATOM     14  C   UNL     1       1.286   2.057  18.499  0.00  0.00    +0.000 C 
ATOM     15  C   UNL     1       0.379   3.561  20.282  0.00  0.00    +0.000 C 
ENDBRANCH   8  13
BRANCH   1  16
ATOM     16  C   UNL     1       6.961   4.845  15.116  0.00  0.00    +0.000 C 
BRANCH  16  17
ATOM     17  C   UNL     1       5.942   4.170  14.191  0.00  0.00    +0.000 C 
BRANCH  17  19
ATOM     18  C   UNL     1       5.812   3.052  12.128  0.00  0.00    +0.000 C 
ATOM     19  O   UNL     1       6.548   3.983  12.910  0.00  0.00    +0.000 OA
ENDBRANCH  17  19
ENDBRANCH  16  17
ENDBRANCH   1  16
TORSDOF 4
ENDMDL
MODEL 5
REMARK VINA RESULT:      -5.7      2.590      6.459
REMARK  Name = 
REMARK  7 active torsions:
REMARK  status: ('A' for Active; 'I' for Inactive)
REMARK    1  A    between atoms: C_1  and  O_2
REMARK    2  A    between atoms: O_2  and  C_3
REMARK    3  A    between atoms: C_3  and  C_4
REMARK    4  A    between atoms: C_4  and  N_5
REMARK    5  A    between atoms: N_12  and  C_13
REMARK    6  A    between atoms: C_13  and  C_14
REMARK    7  A    between atoms: C_13  and  C_15
REMARK                            x       y       z     vdW  Elec       q    Type
REMARK                         _______ _______ _______ _____ _____    ______ ____
ROOT
ATOM      1  N   UNL     1       3.065   5.045  18.607  0.00  0.00    +0.000 NA
ATOM      2  C   UNL     1       4.102   4.501  19.539  0.00  0.00    +0.000 C 
ATOM      3  C   UNL     1       5.543   4.786  19.064  0.00  0.00    +0.000 C 
ATOM      4  O   UNL     1       6.458   4.980  19.859  0.00  0.00    +0.000 OA
ATOM      5  C   UNL     1       5.685   4.712  17.632  0.00  0.00    +0.000 A 
ATOM      6  S   UNL     1       7.138   4.825  16.787  0.00  0.00    +0.000 S 
ATOM      7  C   UNL     1       6.288   4.453  15.322  0.00  0.00    +0.000 A 
ATOM      8  N   UNL     1       7.015   4.208  14.207  0.00  0.00    +0.000 N 
ATOM      9  N   UNL     1       4.978   4.403  15.438  0.00  0.00    +0.000 NA
ATOM     10  C   UNL     1       4.623   4.545  16.770  0.00  0.00    +0.000 A 
ATOM     11  C   UNL     1       3.209   4.439  17.254  0.00  0.00    +0.000 C 
ATOM     12  H   UNL     1       8.017   4.338  14.263  0.00  0.00    +0.000 HD
ENDROOT
BRANCH   8  13
ATOM     13  C   UNL     1       6.426   4.223  12.883  0.00  0.00    +0.000 C 
ATOM     14  C   UNL     1       7.401   4.871  11.902  0.00  0.00    +0.000 C 
ATOM     15  C   UNL     1       6.141   2.781  12.458  0.00  0.00    +0.000 C 
ENDBRANCH   8  13
BRANCH   1  16
ATOM     16  C   UNL     1       3.104   6.524  18.619  0.00  0.00    +0.000 C 
BRANCH  16  17
ATOM     17  C   UNL     1       2.314   7.200  19.745  0.00  0.00    +0.000 C 
BRANCH  17  19
ATOM     18  C   UNL     1       2.211   8.681  17.923  0.00  0.00    +0.000 C 
ATOM     19  O   UNL     1       1.740   8.406  19.236  0.00  0.00    +0.000 OA
ENDBRANCH  17  19
ENDBRANCH  16  17
ENDBRANCH   1  16
TORSDOF 4
ENDMDL
MODEL 6
REMARK VINA RESULT:      -5.6      1.176      1.332
REMARK  Name = 
REMARK  7 active torsions:
REMARK  status: ('A' for Active; 'I' for Inactive)
REMARK    1  A    between atoms: C_1  and  O_2
REMARK    2  A    between atoms: O_2  and  C_3
REMARK    3  A    between atoms: C_3  and  C_4
REMARK    4  A    between atoms: C_4  and  N_5
REMARK    5  A    between atoms: N_12  and  C_13
REMARK    6  A    between atoms: C_13  and  C_14
REMARK    7  A    between atoms: C_13  and  C_15
REMARK                            x       y       z     vdW  Elec       q    Type
REMARK                         _______ _______ _______ _____ _____    ______ ____
ROOT
ATOM      1  N   UNL     1       6.314   5.215  14.693  0.00  0.00    +0.000 NA
ATOM      2  C   UNL     1       7.436   5.466  15.651  0.00  0.00    +0.000 C 
ATOM      3  C   UNL     1       7.316   4.634  16.946  0.00  0.00    +0.000 C 
ATOM      4  O   UNL     1       8.307   4.226  17.546  0.00  0.00    +0.000 OA
ATOM      5  C   UNL     1       5.952   4.478  17.386  0.00  0.00    +0.000 A 
ATOM      6  S   UNL     1       5.468   3.756  18.829  0.00  0.00    +0.000 S 
ATOM      7  C   UNL     1       3.834   4.223  18.487  0.00  0.00    +0.000 A 
ATOM      8  N   UNL     1       2.906   4.057  19.458  0.00  0.00    +0.000 N 
ATOM      9  N   UNL     1       3.644   4.748  17.295  0.00  0.00    +0.000 NA
ATOM     10  C   UNL     1       4.864   4.904  16.657  0.00  0.00    +0.000 A 
ATOM     11  C   UNL     1       5.007   5.562  15.317  0.00  0.00    +0.000 C 
ATOM     12  H   UNL     1       3.195   3.588  20.308  0.00  0.00    +0.000 HD
ENDROOT
BRANCH   8  13
ATOM     13  C   UNL     1       1.484   4.091  19.181  0.00  0.00    +0.000 C 
ATOM     14  C   UNL     1       1.037   2.727  18.656  0.00  0.00    +0.000 C 
ATOM     15  C   UNL     1       0.740   4.419  20.477  0.00  0.00    +0.000 C 
ENDBRANCH   8  13
BRANCH   1  16
ATOM     16  C   UNL     1       6.394   3.832  14.175  0.00  0.00    +0.000 C 
BRANCH  16  17
ATOM     17  C   UNL     1       5.847   3.621  12.760  0.00  0.00    +0.000 C 
BRANCH  17  19
ATOM     18  C   UNL     1       6.999   2.200  11.284  0.00  0.00    +0.000 C 
ATOM     19  O   UNL     1       6.951   3.498  11.860  0.00  0.00    +0.000 OA
ENDBRANCH  17  19
ENDBRANCH  16  17
ENDBRANCH   1  16
TORSDOF 4
ENDMDL
MODEL 7
REMARK VINA RESULT:      -5.6      2.700      4.554
REMARK  Name = 
REMARK  7 active torsions:
REMARK  status: ('A' for Active; 'I' for Inactive)
REMARK    1  A    between atoms: C_1  and  O_2
REMARK    2  A    between atoms: O_2  and  C_3
REMARK    3  A    between atoms: C_3  and  C_4
REMARK    4  A    between atoms: C_4  and  N_5
REMARK    5  A    between atoms: N_12  and  C_13
REMARK    6  A    between atoms: C_13  and  C_14
REMARK    7  A    between atoms: C_13  and  C_15
REMARK                            x       y       z     vdW  Elec       q    Type
REMARK                         _______ _______ _______ _____ _____    ______ ____
ROOT
ATOM      1  N   UNL     1       7.600   6.093  18.099  0.00  0.00    +0.000 NA
ATOM      2  C   UNL     1       7.897   5.016  17.104  0.00  0.00    +0.000 C 
ATOM      3  C   UNL     1       6.622   4.402  16.487  0.00  0.00    +0.000 C 
ATOM      4  O   UNL     1       6.597   3.995  15.329  0.00  0.00    +0.000 OA
ATOM      5  C   UNL     1       5.538   4.297  17.431  0.00  0.00    +0.000 A 
ATOM      6  S   UNL     1       4.058   3.548  17.140  0.00  0.00    +0.000 S 
ATOM      7  C   UNL     1       3.633   3.792  18.803  0.00  0.00    +0.000 A 
ATOM      8  N   UNL     1       2.513   3.193  19.270  0.00  0.00    +0.000 N 
ATOM      9  N   UNL     1       4.482   4.525  19.491  0.00  0.00    +0.000 NA
ATOM     10  C   UNL     1       5.587   4.815  18.707  0.00  0.00    +0.000 A 
ATOM     11  C   UNL     1       6.783   5.556  19.223  0.00  0.00    +0.000 C 
ATOM     12  H   UNL     1       1.931   2.701  18.603  0.00  0.00    +0.000 HD
ENDROOT
BRANCH   8  13
ATOM     13  C   UNL     1       1.888   3.589  20.516  0.00  0.00    +0.000 C 
ATOM     14  C   UNL     1       0.369   3.536  20.361  0.00  0.00    +0.000 C 
ATOM     15  C   UNL     1       2.334   2.624  21.616  0.00  0.00    +0.000 C 
ENDBRANCH   8  13
BRANCH   1  16
ATOM     16  C   UNL     1       7.001   7.260  17.415  0.00  0.00    +0.000 C 
BRANCH  16  17
ATOM     17  C   UNL     1       7.771   8.578  17.553  0.00  0.00    +0.000 C 
BRANCH  17  19
ATOM     18  C   UNL     1       9.072   9.770  19.105  0.00  0.00    +0.000 C 
ATOM     19  O   UNL     1       8.630   8.484  18.691  0.00  0.00    +0.000 OA
ENDBRANCH  17  19
ENDBRANCH  16  17
ENDBRANCH   1  16
TORSDOF 4
ENDMDL
MODEL 8
REMARK VINA RESULT:      -5.6      2.499      2.905
REMARK  Name = 
REMARK  7 active torsions:
REMARK  status: ('A' for Active; 'I' for Inactive)
REMARK    1  A    between atoms: C_1  and  O_2
REMARK    2  A    between atoms: O_2  and  C_3
REMARK    3  A    between atoms: C_3  and  C_4
REMARK    4  A    between atoms: C_4  and  N_5
REMARK    5  A    between atoms: N_12  and  C_13
REMARK    6  A    between atoms: C_13  and  C_14
REMARK    7  A    between atoms: C_13  and  C_15
REMARK                            x       y       z     vdW  Elec       q    Type
REMARK                         _______ _______ _______ _____ _____    ______ ____
ROOT
ATOM      1  N   UNL     1       6.397   5.114  16.569  0.00  0.00    +0.000 NA
ATOM      2  C   UNL     1       6.615   4.621  17.965  0.00  0.00    +0.000 C 
ATOM      3  C   UNL     1       5.311   4.563  18.790  0.00  0.00    +0.000 C 
ATOM      4  O   UNL     1       5.130   3.707  19.651  0.00  0.00    +0.000 OA
ATOM      5  C   UNL     1       4.411   5.648  18.492  0.00  0.00    +0.000 A 
ATOM      6  S   UNL     1       2.971   5.975  19.302  0.00  0.00    +0.000 S 
ATOM      7  C   UNL     1       2.808   7.433  18.378  0.00  0.00    +0.000 A 
ATOM      8  N   UNL     1       1.835   8.305  18.729  0.00  0.00    +0.000 N 
ATOM      9  N   UNL     1       3.694   7.583  17.417  0.00  0.00    +0.000 NA
ATOM     10  C   UNL     1       4.627   6.560  17.481  0.00  0.00    +0.000 A 
ATOM     11  C   UNL     1       5.825   6.489  16.583  0.00  0.00    +0.000 C 
ATOM     12  H   UNL     1       1.194   8.024  19.461  0.00  0.00    +0.000 HD
ENDROOT
BRANCH   8  13
ATOM     13  C   UNL     1       1.393   9.365  17.845  0.00  0.00    +0.000 C 
ATOM     14  C   UNL     1      -0.109   9.581  18.023  0.00  0.00    +0.000 C 
ATOM     15  C   UNL     1       2.149  10.647  18.202  0.00  0.00    +0.000 C 
ENDBRANCH   8  13
BRANCH   1  16
ATOM     16  C   UNL     1       5.597   4.130  15.807  0.00  0.00    +0.000 C 
BRANCH  16  17
ATOM     17  C   UNL     1       5.474   4.397  14.303  0.00  0.00    +0.000 C 
BRANCH  17  19
ATOM     18  C   UNL     1       5.898   3.320  12.257  0.00  0.00    +0.000 C 
ATOM     19  O   UNL     1       6.313   3.471  13.608  0.00  0.00    +0.000 OA
ENDBRANCH  17  19
ENDBRANCH  16  17
ENDBRANCH   1  16
TORSDOF 4
ENDMDL
MODEL 9
REMARK VINA RESULT:      -5.6      2.602      6.406
REMARK  Name = 
REMARK  7 active torsions:
REMARK  status: ('A' for Active; 'I' for Inactive)
REMARK    1  A    between atoms: C_1  and  O_2
REMARK    2  A    between atoms: O_2  and  C_3
REMARK    3  A    between atoms: C_3  and  C_4
REMARK    4  A    between atoms: C_4  and  N_5
REMARK    5  A    between atoms: N_12  and  C_13
REMARK    6  A    between atoms: C_13  and  C_14
REMARK    7  A    between atoms: C_13  and  C_15
REMARK                            x       y       z     vdW  Elec       q    Type
REMARK                         _______ _______ _______ _____ _____    ______ ____
ROOT
ATOM      1  N   UNL     1       4.390   4.553  18.577  0.00  0.00    +0.000 NA
ATOM      2  C   UNL     1       5.768   5.032  18.909  0.00  0.00    +0.000 C 
ATOM      3  C   UNL     1       6.497   5.647  17.694  0.00  0.00    +0.000 C 
ATOM      4  O   UNL     1       7.294   6.572  17.820  0.00  0.00    +0.000 OA
ATOM      5  C   UNL     1       6.198   4.967  16.459  0.00  0.00    +0.000 A 
ATOM      6  S   UNL     1       6.924   5.278  14.972  0.00  0.00    +0.000 S 
ATOM      7  C   UNL     1       6.074   3.925  14.299  0.00  0.00    +0.000 A 
ATOM      8  N   UNL     1       6.405   3.520  13.052  0.00  0.00    +0.000 N 
ATOM      9  N   UNL     1       5.186   3.375  15.099  0.00  0.00    +0.000 NA
ATOM     10  C   UNL     1       5.257   3.967  16.350  0.00  0.00    +0.000 A 
ATOM     11  C   UNL     1       4.441   3.505  17.520  0.00  0.00    +0.000 C 
ATOM     12  H   UNL     1       7.073   4.080  12.538  0.00  0.00    +0.000 HD
ENDROOT
BRANCH   8  13
ATOM     13  C   UNL     1       5.553   2.643  12.274  0.00  0.00    +0.000 C 
ATOM     14  C   UNL     1       4.493   3.474  11.552  0.00  0.00    +0.000 C 
ATOM     15  C   UNL     1       6.416   1.900  11.253  0.00  0.00    +0.000 C 
ENDBRANCH   8  13
BRANCH   1  16
ATOM     16  C   UNL     1       3.521   5.705  18.251  0.00  0.00    +0.000 C 
BRANCH  16  17
ATOM     17  C   UNL     1       2.821   6.366  19.443  0.00  0.00    +0.000 C 
BRANCH  17  19
ATOM     18  C   UNL     1       2.862   8.063  17.817  0.00  0.00    +0.000 C 
ATOM     19  O   UNL     1       2.231   7.591  18.999  0.00  0.00    +0.000 OA
ENDBRANCH  17  19
ENDBRANCH  16  17
ENDBRANCH   1  16
TORSDOF 4
ENDMDL
