MODEL 1
REMARK VINA RESULT:      -7.8      0.000      0.000
REMARK  Name = 
REMARK  4 active torsions:
REMARK  status: ('A' for Active; 'I' for Inactive)
REMARK    1  A    between atoms: C_1  and  C_2
REMARK    2  A    between atoms: C_2  and  N_3
REMARK    3  A    between atoms: C_5  and  C_6
REMARK    4  A    between atoms: C_9  and  N_10
REMARK                            x       y       z     vdW  Elec       q    Type
REMARK                         _______ _______ _______ _____ _____    ______ ____
ROOT
ATOM      1  N   UNL     1       1.746   7.025  20.465  0.00  0.00    +0.000 N 
ATOM      2  N   UNL     1       1.322   5.958  21.172  0.00  0.00    +0.000 NA
ATOM      3  C   UNL     1       1.818   4.910  20.499  0.00  0.00    +0.000 A 
ATOM      4  C   UNL     1       1.563   3.527  20.970  0.00  0.00    +0.000 C 
ATOM      5  C   UNL     1       2.557   5.312  19.354  0.00  0.00    +0.000 A 
ATOM      6  C   UNL     1       3.260   4.660  18.318  0.00  0.00    +0.000 A 
ATOM      7  C   UNL     1       3.853   5.415  17.286  0.00  0.00    +0.000 A 
ATOM      8  C   UNL     1       3.766   6.812  17.350  0.00  0.00    +0.000 A 
ATOM      9  C   UNL     1       3.084   7.481  18.370  0.00  0.00    +0.000 A 
ATOM     10  C   UNL     1       2.483   6.700  19.357  0.00  0.00    +0.000 A 
ENDROOT
BRANCH   7  11
ATOM     11  N   UNL     1       4.454   4.734  16.200  0.00  0.00    +0.000 N 
ATOM     12  C   UNL     1       5.653   4.957  15.593  0.00  0.00    +0.000 A 
ATOM     13  N   UNL     1       6.672   5.698  16.044  0.00  0.00    +0.000 NA
ATOM     14  N   UNL     1       7.584   5.651  15.065  0.00  0.00    +0.000 N 
ATOM     15  C   UNL     1       7.215   4.905  13.986  0.00  0.00    +0.000 A 
ATOM     16  C   UNL     1       7.840   4.621  12.776  0.00  0.00    +0.000 A 
ATOM     17  C   UNL     1       7.109   3.821  11.904  0.00  0.00    +0.000 A 
ATOM     18  C   UNL     1       5.848   3.370  12.282  0.00  0.00    +0.000 A 
ATOM     19  N   UNL     1       5.229   3.636  13.456  0.00  0.00    +0.000 NA
ATOM     20  C   UNL     1       5.951   4.420  14.301  0.00  0.00    +0.000 A 
ATOM     21  H   UNL     1       3.815   4.121  15.706  0.00  0.00    +0.000 HD
ATOM     22  H   UNL     1       8.442   6.172  15.194  0.00  0.00    +0.000 HD
ENDBRANCH   7  11
BRANCH   1  24
ATOM     23  C   UNL     1       0.034   8.486  21.492  0.00  0.00    +0.000 C 
ATOM     24  C   UNL     1       1.443   8.362  20.937  0.00  0.00    +0.000 C 
ENDBRANCH   1  24
TORSDOF 2
ENDMDL
MODEL 2
REMARK VINA RESULT:      -7.7      1.926      8.145
REMARK  Name = 
REMARK  4 active torsions:
REMARK  status: ('A' for Active; 'I' for Inactive)
REMARK    1  A    between atoms: C_1  and  C_2
REMARK    2  A    between atoms: C_2  and  N_3
REMARK    3  A    between atoms: C_5  and  C_6
REMARK    4  A    between atoms: C_9  and  N_10
REMARK                            x       y       z     vdW  Elec       q    Type
REMARK                         _______ _______ _______ _____ _____    ______ ____
ROOT
ATOM      1  N   UNL     1       6.191   4.813  16.022  0.00  0.00    +0.000 N 
ATOM      2  N   UNL     1       7.216   5.682  16.133  0.00  0.00    +0.000 NA
ATOM      3  C   UNL     1       6.791   6.565  17.047  0.00  0.00    +0.000 A 
ATOM      4  C   UNL     1       7.653   7.702  17.450  0.00  0.00    +0.000 C 
ATOM      5  C   UNL     1       5.484   6.261  17.517  0.00  0.00    +0.000 A 
ATOM      6  C   UNL     1       4.575   6.832  18.433  0.00  0.00    +0.000 A 
ATOM      7  C   UNL     1       3.302   6.257  18.613  0.00  0.00    +0.000 A 
ATOM      8  C   UNL     1       2.993   5.090  17.902  0.00  0.00    +0.000 A 
ATOM      9  C   UNL     1       3.879   4.499  16.996  0.00  0.00    +0.000 A 
ATOM     10  C   UNL     1       5.119   5.115  16.820  0.00  0.00    +0.000 A 
ENDROOT
BRANCH   7  11
ATOM     11  N   UNL     1       2.368   6.911  19.451  0.00  0.00    +0.000 N 
ATOM     12  C   UNL     1       1.795   8.140  19.319  0.00  0.00    +0.000 A 
ATOM     13  N   UNL     1       1.769   8.917  18.229  0.00  0.00    +0.000 NA
ATOM     14  N   UNL     1       1.149  10.035  18.624  0.00  0.00    +0.000 N 
ATOM     15  C   UNL     1       0.756  10.030  19.929  0.00  0.00    +0.000 A 
ATOM     16  C   UNL     1       0.117  10.975  20.726  0.00  0.00    +0.000 A 
ATOM     17  C   UNL     1      -0.092  10.593  22.047  0.00  0.00    +0.000 A 
ATOM     18  C   UNL     1       0.332   9.337  22.472  0.00  0.00    +0.000 A 
ATOM     19  N   UNL     1       0.952   8.408  21.708  0.00  0.00    +0.000 NA
ATOM     20  C   UNL     1       1.153   8.792  20.419  0.00  0.00    +0.000 A 
ATOM     21  H   UNL     1       2.260   6.469  20.358  0.00  0.00    +0.000 HD
ATOM     22  H   UNL     1       1.039  10.780  17.947  0.00  0.00    +0.000 HD
ENDBRANCH   7  11
BRANCH   1  24
ATOM     23  C   UNL     1       6.212   4.027  13.678  0.00  0.00    +0.000 C 
ATOM     24  C   UNL     1       6.318   3.663  15.148  0.00  0.00    +0.000 C 
ENDBRANCH   1  24
TORSDOF 2
ENDMDL
MODEL 3
REMARK VINA RESULT:      -7.6      4.201      5.466
REMARK  Name = 
REMARK  4 active torsions:
REMARK  status: ('A' for Active; 'I' for Inactive)
REMARK    1  A    between atoms: C_1  and  C_2
REMARK    2  A    between atoms: C_2  and  N_3
REMARK    3  A    between atoms: C_5  and  C_6
REMARK    4  A    between atoms: C_9  and  N_10
REMARK                            x       y       z     vdW  Elec       q    Type
REMARK                         _______ _______ _______ _____ _____    ______ ____
ROOT
ATOM      1  N   UNL     1      -0.233  11.020  19.803  0.00  0.00    +0.000 N 
ATOM      2  N   UNL     1      -0.636  10.951  21.087  0.00  0.00    +0.000 NA
ATOM      3  C   UNL     1      -0.031   9.849  21.554  0.00  0.00    +0.000 A 
ATOM      4  C   UNL     1      -0.229   9.423  22.960  0.00  0.00    +0.000 C 
ATOM      5  C   UNL     1       0.756   9.209  20.559  0.00  0.00    +0.000 A 
ATOM      6  C   UNL     1       1.565   8.055  20.490  0.00  0.00    +0.000 A 
ATOM      7  C   UNL     1       2.177   7.695  19.273  0.00  0.00    +0.000 A 
ATOM      8  C   UNL     1       1.998   8.535  18.166  0.00  0.00    +0.000 A 
ATOM      9  C   UNL     1       1.210   9.688  18.210  0.00  0.00    +0.000 A 
ATOM     10  C   UNL     1       0.595   9.996  19.424  0.00  0.00    +0.000 A 
ENDROOT
BRANCH   7  11
ATOM     11  N   UNL     1       2.890   6.475  19.201  0.00  0.00    +0.000 N 
ATOM     12  C   UNL     1       2.548   5.304  18.593  0.00  0.00    +0.000 A 
ATOM     13  N   UNL     1       1.579   5.104  17.691  0.00  0.00    +0.000 NA
ATOM     14  N   UNL     1       1.605   3.788  17.453  0.00  0.00    +0.000 N 
ATOM     15  C   UNL     1       2.554   3.106  18.154  0.00  0.00    +0.000 A 
ATOM     16  C   UNL     1       2.895   1.759  18.218  0.00  0.00    +0.000 A 
ATOM     17  C   UNL     1       3.932   1.450  19.093  0.00  0.00    +0.000 A 
ATOM     18  C   UNL     1       4.541   2.469  19.820  0.00  0.00    +0.000 A 
ATOM     19  N   UNL     1       4.221   3.783  19.765  0.00  0.00    +0.000 NA
ATOM     20  C   UNL     1       3.206   4.074  18.909  0.00  0.00    +0.000 A 
ATOM     21  H   UNL     1       3.674   6.427  19.843  0.00  0.00    +0.000 HD
ATOM     22  H   UNL     1       0.926   3.412  16.803  0.00  0.00    +0.000 HD
ENDBRANCH   7  11
BRANCH   1  24
ATOM     23  C   UNL     1      -1.874  11.827  18.137  0.00  0.00    +0.000 C 
ATOM     24  C   UNL     1      -0.650  12.139  18.981  0.00  0.00    +0.000 C 
ENDBRANCH   1  24
TORSDOF 2
ENDMDL
MODEL 4
REMARK VINA RESULT:      -7.6      1.322      2.663
REMARK  Name = 
REMARK  4 active torsions:
REMARK  status: ('A' for Active; 'I' for Inactive)
REMARK    1  A    between atoms: C_1  and  C_2
REMARK    2  A    between atoms: C_2  and  N_3
REMARK    3  A    between atoms: C_5  and  C_6
REMARK    4  A    between atoms: C_9  and  N_10
REMARK                            x       y       z     vdW  Elec       q    Type
REMARK                         _______ _______ _______ _____ _____    ______ ____
ROOT
ATOM      1  N   UNL     1       2.475   4.421  20.785  0.00  0.00    +0.000 N 
ATOM      2  N   UNL     1       2.100   5.710  20.671  0.00  0.00    +0.000 NA
ATOM      3  C   UNL     1       2.515   6.058  19.444  0.00  0.00    +0.000 A 
ATOM      4  C   UNL     1       2.285   7.431  18.935  0.00  0.00    +0.000 C 
ATOM      5  C   UNL     1       3.164   4.984  18.776  0.00  0.00    +0.000 A 
ATOM      6  C   UNL     1       3.785   4.794  17.523  0.00  0.00    +0.000 A 
ATOM      7  C   UNL     1       4.384   3.557  17.214  0.00  0.00    +0.000 A 
ATOM      8  C   UNL     1       4.299   2.524  18.157  0.00  0.00    +0.000 A 
ATOM      9  C   UNL     1       3.682   2.683  19.401  0.00  0.00    +0.000 A 
ATOM     10  C   UNL     1       3.127   3.932  19.684  0.00  0.00    +0.000 A 
ENDROOT
BRANCH   7  11
ATOM     11  N   UNL     1       5.097   3.427  15.999  0.00  0.00    +0.000 N 
ATOM     12  C   UNL     1       6.086   4.211  15.485  0.00  0.00    +0.000 A 
ATOM     13  N   UNL     1       6.809   5.139  16.124  0.00  0.00    +0.000 NA
ATOM     14  N   UNL     1       7.596   5.665  15.178  0.00  0.00    +0.000 N 
ATOM     15  C   UNL     1       7.431   5.121  13.940  0.00  0.00    +0.000 A 
ATOM     16  C   UNL     1       8.016   5.387  12.706  0.00  0.00    +0.000 A 
ATOM     17  C   UNL     1       7.550   4.612  11.649  0.00  0.00    +0.000 A 
ATOM     18  C   UNL     1       6.566   3.656  11.882  0.00  0.00    +0.000 A 
ATOM     19  N   UNL     1       5.990   3.386  13.077  0.00  0.00    +0.000 NA
ATOM     20  C   UNL     1       6.451   4.149  14.103  0.00  0.00    +0.000 A 
ATOM     21  H   UNL     1       4.681   2.762  15.356  0.00  0.00    +0.000 HD
ATOM     22  H   UNL     1       8.221   6.415  15.447  0.00  0.00    +0.000 HD
ENDBRANCH   7  11
BRANCH   1  24
ATOM     23  C   UNL     1       1.207   2.507  21.706  0.00  0.00    +0.000 C 
ATOM     24  C   UNL     1       2.133   3.679  21.983  0.00  0.00    +0.000 C 
ENDBRANCH   1  24
TORSDOF 2
ENDMDL
MODEL 5
REMARK VINA RESULT:      -7.5      2.327      4.073
REMARK  Name = 
REMARK  4 active torsions:
REMARK  status: ('A' for Active; 'I' for Inactive)
REMARK    1  A    between atoms: C_1  and  C_2
REMARK    2  A    between atoms: C_2  and  N_3
REMARK    3  A    between atoms: C_5  and  C_6
REMARK    4  A    between atoms: C_9  and  N_10
REMARK                            x       y       z     vdW  Elec       q    Type
REMARK                         _______ _______ _______ _____ _____    ______ ____
ROOT
ATOM      1  N   UNL     1       0.346   9.775  21.569  0.00  0.00    +0.000 N 
ATOM      2  N   UNL     1       0.257  10.945  20.906  0.00  0.00    +0.000 NA
ATOM      3  C   UNL     1       0.846  10.692  19.728  0.00  0.00    +0.000 A 
ATOM      4  C   UNL     1       0.953  11.754  18.699  0.00  0.00    +0.000 C 
ATOM      5  C   UNL     1       1.318   9.354  19.643  0.00  0.00    +0.000 A 
ATOM      6  C   UNL     1       1.998   8.576  18.682  0.00  0.00    +0.000 A 
ATOM      7  C   UNL     1       2.354   7.245  18.978  0.00  0.00    +0.000 A 
ATOM      8  C   UNL     1       1.972   6.715  20.218  0.00  0.00    +0.000 A 
ATOM      9  C   UNL     1       1.290   7.462  21.182  0.00  0.00    +0.000 A 
ATOM     10  C   UNL     1       0.982   8.785  20.866  0.00  0.00    +0.000 A 
ENDROOT
BRANCH   7  11
ATOM     11  N   UNL     1       3.134   6.522  18.044  0.00  0.00    +0.000 N 
ATOM     12  C   UNL     1       4.312   5.861  18.224  0.00  0.00    +0.000 A 
ATOM     13  N   UNL     1       4.882   5.508  19.382  0.00  0.00    +0.000 NA
ATOM     14  N   UNL     1       6.044   4.944  19.029  0.00  0.00    +0.000 N 
ATOM     15  C   UNL     1       6.266   4.903  17.685  0.00  0.00    +0.000 A 
ATOM     16  C   UNL     1       7.328   4.437  16.918  0.00  0.00    +0.000 A 
ATOM     17  C   UNL     1       7.183   4.600  15.543  0.00  0.00    +0.000 A 
ATOM     18  C   UNL     1       6.029   5.195  15.042  0.00  0.00    +0.000 A 
ATOM     19  N   UNL     1       4.988   5.651  15.777  0.00  0.00    +0.000 NA
ATOM     20  C   UNL     1       5.140   5.488  17.118  0.00  0.00    +0.000 A 
ATOM     21  H   UNL     1       2.858   6.680  17.081  0.00  0.00    +0.000 HD
ATOM     22  H   UNL     1       6.655   4.619  19.768  0.00  0.00    +0.000 HD
ENDBRANCH   7  11
BRANCH   1  24
ATOM     23  C   UNL     1      -1.243  10.759  23.188  0.00  0.00    +0.000 C 
ATOM     24  C   UNL     1      -0.250   9.650  22.885  0.00  0.00    +0.000 C 
ENDBRANCH   1  24
TORSDOF 2
ENDMDL
MODEL 6
REMARK VINA RESULT:      -7.5      2.740      7.971
REMARK  Name = 
REMARK  4 active torsions:
REMARK  status: ('A' for Active; 'I' for Inactive)
REMARK    1  A    between atoms: C_1  and  C_2
REMARK    2  A    between atoms: C_2  and  N_3
REMARK    3  A    between atoms: C_5  and  C_6
REMARK    4  A    between atoms: C_9  and  N_10
REMARK                            x       y       z     vdW  Elec       q    Type
REMARK                         _______ _______ _______ _____ _____    ______ ____
ROOT
ATOM      1  N   UNL     1       7.577   4.979  13.121  0.00  0.00    +0.000 N 
ATOM      2  N   UNL     1       7.034   4.250  12.126  0.00  0.00    +0.000 NA
ATOM      3  C   UNL     1       6.068   3.547  12.734  0.00  0.00    +0.000 A 
ATOM      4  C   UNL     1       5.225   2.605  11.960  0.00  0.00    +0.000 C 
ATOM      5  C   UNL     1       5.999   3.827  14.126  0.00  0.00    +0.000 A 
ATOM      6  C   UNL     1       5.215   3.385  15.213  0.00  0.00    +0.000 A 
ATOM      7  C   UNL     1       5.474   3.870  16.510  0.00  0.00    +0.000 A 
ATOM      8  C   UNL     1       6.486   4.826  16.673  0.00  0.00    +0.000 A 
ATOM      9  C   UNL     1       7.269   5.286  15.612  0.00  0.00    +0.000 A 
ATOM     10  C   UNL     1       7.005   4.761  14.347  0.00  0.00    +0.000 A 
ENDROOT
BRANCH   7  11
ATOM     11  N   UNL     1       4.751   3.328  17.600  0.00  0.00    +0.000 N 
ATOM     12  C   UNL     1       3.443   3.496  17.943  0.00  0.00    +0.000 A 
ATOM     13  N   UNL     1       2.457   3.996  17.188  0.00  0.00    +0.000 NA
ATOM     14  N   UNL     1       1.388   4.009  17.992  0.00  0.00    +0.000 N 
ATOM     15  C   UNL     1       1.620   3.533  19.247  0.00  0.00    +0.000 A 
ATOM     16  C   UNL     1       0.811   3.397  20.370  0.00  0.00    +0.000 A 
ATOM     17  C   UNL     1       1.441   2.878  21.497  0.00  0.00    +0.000 A 
ATOM     18  C   UNL     1       2.789   2.538  21.432  0.00  0.00    +0.000 A 
ATOM     19  N   UNL     1       3.587   2.663  20.346  0.00  0.00    +0.000 NA
ATOM     20  C   UNL     1       2.962   3.172  19.251  0.00  0.00    +0.000 A 
ATOM     21  H   UNL     1       5.344   2.908  18.308  0.00  0.00    +0.000 HD
ATOM     22  H   UNL     1       0.521   4.377  17.619  0.00  0.00    +0.000 HD
ENDBRANCH   7  11
BRANCH   1  24
ATOM     23  C   UNL     1       8.418   6.655  11.508  0.00  0.00    +0.000 C 
ATOM     24  C   UNL     1       8.636   5.923  12.821  0.00  0.00    +0.000 C 
ENDBRANCH   1  24
TORSDOF 2
ENDMDL
MODEL 7
REMARK VINA RESULT:      -7.4      2.720      8.704
REMARK  Name = 
REMARK  4 active torsions:
REMARK  status: ('A' for Active; 'I' for Inactive)
REMARK    1  A    between atoms: C_1  and  C_2
REMARK    2  A    between atoms: C_2  and  N_3
REMARK    3  A    between atoms: C_5  and  C_6
REMARK    4  A    between atoms: C_9  and  N_10
REMARK                            x       y       z     vdW  Elec       q    Type
REMARK                         _______ _______ _______ _____ _____    ______ ____
ROOT
ATOM      1  N   UNL     1       3.988   4.012  18.464  0.00  0.00    +0.000 N 
ATOM      2  N   UNL     1       4.691   4.366  17.370  0.00  0.00    +0.000 NA
ATOM      3  C   UNL     1       4.428   5.673  17.229  0.00  0.00    +0.000 A 
ATOM      4  C   UNL     1       5.028   6.443  16.113  0.00  0.00    +0.000 C 
ATOM      5  C   UNL     1       3.548   6.153  18.236  0.00  0.00    +0.000 A 
ATOM      6  C   UNL     1       2.949   7.390  18.557  0.00  0.00    +0.000 A 
ATOM      7  C   UNL     1       2.060   7.480  19.646  0.00  0.00    +0.000 A 
ATOM      8  C   UNL     1       1.835   6.332  20.418  0.00  0.00    +0.000 A 
ATOM      9  C   UNL     1       2.424   5.098  20.127  0.00  0.00    +0.000 A 
ATOM     10  C   UNL     1       3.274   5.040  19.022  0.00  0.00    +0.000 A 
ENDROOT
BRANCH   7  11
ATOM     11  N   UNL     1       1.385   8.702  19.878  0.00  0.00    +0.000 N 
ATOM     12  C   UNL     1       0.901   9.220  21.042  0.00  0.00    +0.000 A 
ATOM     13  N   UNL     1       1.181   8.825  22.291  0.00  0.00    +0.000 NA
ATOM     14  N   UNL     1       0.416   9.598  23.069  0.00  0.00    +0.000 N 
ATOM     15  C   UNL     1      -0.356  10.493  22.391  0.00  0.00    +0.000 A 
ATOM     16  C   UNL     1      -1.287  11.441  22.805  0.00  0.00    +0.000 A 
ATOM     17  C   UNL     1      -1.896  12.161  21.781  0.00  0.00    +0.000 A 
ATOM     18  C   UNL     1      -1.548  11.898  20.459  0.00  0.00    +0.000 A 
ATOM     19  N   UNL     1      -0.644  10.982  20.044  0.00  0.00    +0.000 NA
ATOM     20  C   UNL     1      -0.056  10.283  21.051  0.00  0.00    +0.000 A 
ATOM     21  H   UNL     1       1.068   9.156  19.028  0.00  0.00    +0.000 HD
ATOM     22  H   UNL     1       0.457   9.449  24.070  0.00  0.00    +0.000 HD
ENDBRANCH   7  11
BRANCH   1  24
ATOM     23  C   UNL     1       3.112   1.707  18.274  0.00  0.00    +0.000 C 
ATOM     24  C   UNL     1       4.078   2.654  18.965  0.00  0.00    +0.000 C 
ENDBRANCH   1  24
TORSDOF 2
ENDMDL
MODEL 8
REMARK VINA RESULT:      -7.4      2.261      7.979
REMARK  Name = 
REMARK  4 active torsions:
REMARK  status: ('A' for Active; 'I' for Inactive)
REMARK    1  A    between atoms: C_1  and  C_2
REMARK    2  A    between atoms: C_2  and  N_3
REMARK    3  A    between atoms: C_5  and  C_6
REMARK    4  A    between atoms: C_9  and  N_10
REMARK                            x       y       z     vdW  Elec       q    Type
REMARK                         _______ _______ _______ _____ _____    ______ ____
ROOT
ATOM      1  N   UNL     1       5.251   4.365  16.484  0.00  0.00    +0.000 N 
ATOM      2  N   UNL     1       4.698   3.153  16.689  0.00  0.00    +0.000 NA
ATOM      3  C   UNL     1       3.599   3.421  17.411  0.00  0.00    +0.000 A 
ATOM      4  C   UNL     1       2.703   2.324  17.847  0.00  0.00    +0.000 C 
ATOM      5  C   UNL     1       3.457   4.811  17.671  0.00  0.00    +0.000 A 
ATOM      6  C   UNL     1       2.535   5.626  18.363  0.00  0.00    +0.000 A 
ATOM      7  C   UNL     1       2.751   7.015  18.451  0.00  0.00    +0.000 A 
ATOM      8  C   UNL     1       3.865   7.557  17.797  0.00  0.00    +0.000 A 
ATOM      9  C   UNL     1       4.787   6.773  17.097  0.00  0.00    +0.000 A 
ATOM     10  C   UNL     1       4.557   5.398  17.058  0.00  0.00    +0.000 A 
ENDROOT
BRANCH   7  11
ATOM     11  N   UNL     1       1.875   7.794  19.244  0.00  0.00    +0.000 N 
ATOM     12  C   UNL     1       1.344   9.024  18.999  0.00  0.00    +0.000 A 
ATOM     13  N   UNL     1       1.304   9.679  17.832  0.00  0.00    +0.000 NA
ATOM     14  N   UNL     1       0.742  10.858  18.124  0.00  0.00    +0.000 N 
ATOM     15  C   UNL     1       0.401  11.010  19.435  0.00  0.00    +0.000 A 
ATOM     16  C   UNL     1      -0.170  12.061  20.145  0.00  0.00    +0.000 A 
ATOM     17  C   UNL     1      -0.342  11.832  21.507  0.00  0.00    +0.000 A 
ATOM     18  C   UNL     1       0.052  10.614  22.051  0.00  0.00    +0.000 A 
ATOM     19  N   UNL     1       0.606   9.583  21.372  0.00  0.00    +0.000 NA
ATOM     20  C   UNL     1       0.770   9.817  20.043  0.00  0.00    +0.000 A 
ATOM     21  H   UNL     1       1.787   7.456  20.197  0.00  0.00    +0.000 HD
ATOM     22  H   UNL     1       0.634  11.529  17.373  0.00  0.00    +0.000 HD
ENDBRANCH   7  11
BRANCH   1  24
ATOM     23  C   UNL     1       6.239   4.005  14.245  0.00  0.00    +0.000 C 
ATOM     24  C   UNL     1       6.449   4.477  15.674  0.00  0.00    +0.000 C 
ENDBRANCH   1  24
TORSDOF 2
ENDMDL
MODEL 9
REMARK VINA RESULT:      -7.3      3.103      8.819
REMARK  Name = 
REMARK  4 active torsions:
REMARK  status: ('A' for Active; 'I' for Inactive)
REMARK    1  A    between atoms: C_1  and  C_2
REMARK    2  A    between atoms: C_2  and  N_3
REMARK    3  A    between atoms: C_5  and  C_6
REMARK    4  A    between atoms: C_9  and  N_10
REMARK                            x       y       z     vdW  Elec       q    Type
REMARK                         _______ _______ _______ _____ _____    ______ ____
ROOT
ATOM      1  N   UNL     1       3.111   4.193  18.344  0.00  0.00    +0.000 N 
ATOM      2  N   UNL     1       2.919   3.322  19.355  0.00  0.00    +0.000 NA
ATOM      3  C   UNL     1       2.420   4.081  20.342  0.00  0.00    +0.000 A 
ATOM      4  C   UNL     1       2.072   3.477  21.650  0.00  0.00    +0.000 C 
ATOM      5  C   UNL     1       2.300   5.444  19.958  0.00  0.00    +0.000 A 
ATOM      6  C   UNL     1       1.866   6.638  20.573  0.00  0.00    +0.000 A 
ATOM      7  C   UNL     1       1.936   7.858  19.871  0.00  0.00    +0.000 A 
ATOM      8  C   UNL     1       2.396   7.837  18.548  0.00  0.00    +0.000 A 
ATOM      9  C   UNL     1       2.823   6.667  17.913  0.00  0.00    +0.000 A 
ATOM     10  C   UNL     1       2.768   5.484  18.650  0.00  0.00    +0.000 A 
ENDROOT
BRANCH   7  11
ATOM     11  N   UNL     1       1.603   9.056  20.547  0.00  0.00    +0.000 N 
ATOM     12  C   UNL     1       0.636   9.287  21.478  0.00  0.00    +0.000 A 
ATOM     13  N   UNL     1      -0.058   8.381  22.179  0.00  0.00    +0.000 NA
ATOM     14  N   UNL     1      -0.919   9.102  22.905  0.00  0.00    +0.000 N 
ATOM     15  C   UNL     1      -0.823  10.449  22.722  0.00  0.00    +0.000 A 
ATOM     16  C   UNL     1      -1.527  11.526  23.250  0.00  0.00    +0.000 A 
ATOM     17  C   UNL     1      -1.135  12.777  22.783  0.00  0.00    +0.000 A 
ATOM     18  C   UNL     1      -0.102  12.869  21.855  0.00  0.00    +0.000 A 
ATOM     19  N   UNL     1       0.592  11.830  21.335  0.00  0.00    +0.000 NA
ATOM     20  C   UNL     1       0.200  10.612  21.796  0.00  0.00    +0.000 A 
ATOM     21  H   UNL     1       2.030   9.881  20.139  0.00  0.00    +0.000 HD
ATOM     22  H   UNL     1      -1.567   8.603  23.503  0.00  0.00    +0.000 HD
ENDBRANCH   7  11
BRANCH   1  24
ATOM     23  C   UNL     1       5.054   4.058  16.820  0.00  0.00    +0.000 C 
ATOM     24  C   UNL     1       3.596   3.710  17.066  0.00  0.00    +0.000 C 
ENDBRANCH   1  24
TORSDOF 2
ENDMDL
