MODEL 1
REMARK VINA RESULT:      -7.3      0.000      0.000
REMARK  Name = 
REMARK  5 active torsions:
REMARK  status: ('A' for Active; 'I' for Inactive)
REMARK    1  A    between atoms: C_11  and  O_12
REMARK    2  A    between atoms: C_13  and  O_14
REMARK    3  A    between atoms: C_15  and  O_16
REMARK    4  A    between atoms: C_17  and  C_18
REMARK    5  A    between atoms: C_18  and  O_19
REMARK                            x       y       z     vdW  Elec       q    Type
REMARK                         _______ _______ _______ _____ _____    ______ ____
ROOT
ATOM      1  O   UNL     1       3.907   6.521  19.344  0.00  0.00    +0.000 OA
ATOM      2  C   UNL     1       3.855   5.495  18.670  0.00  0.00    +0.000 C 
ATOM      3  C   UNL     1       2.803   4.494  18.988  0.00  0.00    +0.000 A 
ATOM      4  C   UNL     1       1.745   4.888  19.819  0.00  0.00    +0.000 A 
ATOM      5  C   UNL     1       0.807   3.959  20.265  0.00  0.00    +0.000 A 
ATOM      6  C   UNL     1       0.917   2.630  19.868  0.00  0.00    +0.000 A 
ATOM      7  C   UNL     1       1.967   2.227  19.036  0.00  0.00    +0.000 A 
ATOM      8  C   UNL     1       2.925   3.152  18.601  0.00  0.00    +0.000 A 
ATOM      9  S   UNL     1       4.305   2.581  17.612  0.00  0.00    +0.000 S 
ATOM     10  C   UNL     1       4.561   4.142  16.720  0.00  0.00    +0.000 C 
ATOM     11  C   UNL     1       5.548   4.035  15.530  0.00  0.00    +0.000 C 
ATOM     12  C   UNL     1       7.014   4.386  15.836  0.00  0.00    +0.000 C 
ATOM     13  C   UNL     1       7.312   5.135  17.142  0.00  0.00    +0.000 C 
ATOM     14  C   UNL     1       6.128   5.836  17.838  0.00  0.00    +0.000 C 
ATOM     15  N   UNL     1       4.811   5.197  17.689  0.00  0.00    +0.000 N 
ENDROOT
BRANCH  11  16
ATOM     16  O   UNL     1       5.071   4.791  14.411  0.00  0.00    +0.000 OA
ATOM     17  H   UNL     1       4.625   5.590  14.734  0.00  0.00    +0.000 HD
ENDBRANCH  11  16
BRANCH  12  18
ATOM     18  O   UNL     1       7.622   5.079  14.732  0.00  0.00    +0.000 OA
ATOM     19  H   UNL     1       8.108   4.434  14.191  0.00  0.00    +0.000 HD
ENDBRANCH  12  18
BRANCH  13  20
ATOM     20  O   UNL     1       7.912   4.216  18.076  0.00  0.00    +0.000 OA
ATOM     21  H   UNL     1       8.878   4.307  18.026  0.00  0.00    +0.000 HD
ENDBRANCH  13  20
BRANCH  14  22
ATOM     22  C   UNL     1       6.117   7.354  17.542  0.00  0.00    +0.000 C 
BRANCH  22  23
ATOM     23  O   UNL     1       7.400   7.794  17.094  0.00  0.00    +0.000 OA
ATOM     24  H   UNL     1       7.823   7.038  16.645  0.00  0.00    +0.000 HD
ENDBRANCH  22  23
ENDBRANCH  14  22
TORSDOF 5
ENDMDL
MODEL 2
REMARK VINA RESULT:      -6.9      3.264      5.274
REMARK  Name = 
REMARK  5 active torsions:
REMARK  status: ('A' for Active; 'I' for Inactive)
REMARK    1  A    between atoms: C_11  and  O_12
REMARK    2  A    between atoms: C_13  and  O_14
REMARK    3  A    between atoms: C_15  and  O_16
REMARK    4  A    between atoms: C_17  and  C_18
REMARK    5  A    between atoms: C_18  and  O_19
REMARK                            x       y       z     vdW  Elec       q    Type
REMARK                         _______ _______ _______ _____ _____    ______ ____
ROOT
ATOM      1  O   UNL     1       1.016   6.244  21.194  0.00  0.00    +0.000 OA
ATOM      2  C   UNL     1       1.877   6.370  20.327  0.00  0.00    +0.000 C 
ATOM      3  C   UNL     1       1.941   7.653  19.577  0.00  0.00    +0.000 A 
ATOM      4  C   UNL     1       1.239   8.753  20.089  0.00  0.00    +0.000 A 
ATOM      5  C   UNL     1       1.147   9.938  19.362  0.00  0.00    +0.000 A 
ATOM      6  C   UNL     1       1.772  10.031  18.121  0.00  0.00    +0.000 A 
ATOM      7  C   UNL     1       2.477   8.940  17.603  0.00  0.00    +0.000 A 
ATOM      8  C   UNL     1       2.556   7.739  18.320  0.00  0.00    +0.000 A 
ATOM      9  S   UNL     1       3.392   6.335  17.585  0.00  0.00    +0.000 S 
ATOM     10  C   UNL     1       3.906   5.575  19.152  0.00  0.00    +0.000 C 
ATOM     11  C   UNL     1       4.911   4.407  18.987  0.00  0.00    +0.000 C 
ATOM     12  C   UNL     1       4.301   2.997  18.918  0.00  0.00    +0.000 C 
ATOM     13  C   UNL     1       2.843   2.826  19.365  0.00  0.00    +0.000 C 
ATOM     14  C   UNL     1       2.232   3.954  20.222  0.00  0.00    +0.000 C 
ATOM     15  N   UNL     1       2.722   5.316  19.954  0.00  0.00    +0.000 N 
ENDROOT
BRANCH  11  16
ATOM     16  O   UNL     1       5.925   4.469  19.997  0.00  0.00    +0.000 OA
ATOM     17  H   UNL     1       5.621   3.988  20.783  0.00  0.00    +0.000 HD
ENDBRANCH  11  16
BRANCH  12  18
ATOM     18  O   UNL     1       5.130   2.040  19.600  0.00  0.00    +0.000 OA
ATOM     19  H   UNL     1       5.985   2.458  19.800  0.00  0.00    +0.000 HD
ENDBRANCH  12  18
BRANCH  13  20
ATOM     20  O   UNL     1       2.019   2.642  18.197  0.00  0.00    +0.000 OA
ATOM     21  H   UNL     1       1.426   3.406  18.111  0.00  0.00    +0.000 HD
ENDBRANCH  13  20
BRANCH  14  22
ATOM     22  C   UNL     1       2.223   3.582  21.723  0.00  0.00    +0.000 C 
BRANCH  22  23
ATOM     23  O   UNL     1       2.946   2.371  21.951  0.00  0.00    +0.000 OA
ATOM     24  H   UNL     1       3.128   2.321  22.909  0.00  0.00    +0.000 HD
ENDBRANCH  22  23
ENDBRANCH  14  22
TORSDOF 5
ENDMDL
MODEL 3
REMARK VINA RESULT:      -6.8      3.028      4.145
REMARK  Name = 
REMARK  5 active torsions:
REMARK  status: ('A' for Active; 'I' for Inactive)
REMARK    1  A    between atoms: C_11  and  O_12
REMARK    2  A    between atoms: C_13  and  O_14
REMARK    3  A    between atoms: C_15  and  O_16
REMARK    4  A    between atoms: C_17  and  C_18
REMARK    5  A    between atoms: C_18  and  O_19
REMARK                            x       y       z     vdW  Elec       q    Type
REMARK                         _______ _______ _______ _____ _____    ______ ____
ROOT
ATOM      1  O   UNL     1       3.822   7.757  17.040  0.00  0.00    +0.000 OA
ATOM      2  C   UNL     1       3.184   7.101  17.860  0.00  0.00    +0.000 C 
ATOM      3  C   UNL     1       2.249   7.820  18.765  0.00  0.00    +0.000 A 
ATOM      4  C   UNL     1       1.909   9.143  18.449  0.00  0.00    +0.000 A 
ATOM      5  C   UNL     1       1.152   9.912  19.330  0.00  0.00    +0.000 A 
ATOM      6  C   UNL     1       0.719   9.353  20.530  0.00  0.00    +0.000 A 
ATOM      7  C   UNL     1       1.051   8.033  20.853  0.00  0.00    +0.000 A 
ATOM      8  C   UNL     1       1.829   7.261  19.980  0.00  0.00    +0.000 A 
ATOM      9  S   UNL     1       2.309   5.606  20.470  0.00  0.00    +0.000 S 
ATOM     10  C   UNL     1       2.426   4.934  18.786  0.00  0.00    +0.000 C 
ATOM     11  C   UNL     1       2.589   3.394  18.731  0.00  0.00    +0.000 C 
ATOM     12  C   UNL     1       4.033   2.872  18.653  0.00  0.00    +0.000 C 
ATOM     13  C   UNL     1       5.137   3.872  18.282  0.00  0.00    +0.000 C 
ATOM     14  C   UNL     1       4.696   5.194  17.622  0.00  0.00    +0.000 C 
ATOM     15  N   UNL     1       3.386   5.725  18.035  0.00  0.00    +0.000 N 
ENDROOT
BRANCH  11  16
ATOM     16  O   UNL     1       1.795   2.841  17.675  0.00  0.00    +0.000 OA
ATOM     17  H   UNL     1       0.948   3.313  17.634  0.00  0.00    +0.000 HD
ENDBRANCH  11  16
BRANCH  12  18
ATOM     18  O   UNL     1       4.121   1.718  17.800  0.00  0.00    +0.000 OA
ATOM     19  H   UNL     1       4.188   0.924  18.358  0.00  0.00    +0.000 HD
ENDBRANCH  12  18
BRANCH  13  20
ATOM     20  O   UNL     1       5.897   4.183  19.466  0.00  0.00    +0.000 OA
ATOM     21  H   UNL     1       6.446   4.964  19.287  0.00  0.00    +0.000 HD
ENDBRANCH  13  20
BRANCH  14  22
ATOM     22  C   UNL     1       4.893   5.155  16.089  0.00  0.00    +0.000 C 
BRANCH  22  23
ATOM     23  O   UNL     1       5.813   6.164  15.669  0.00  0.00    +0.000 OA
ATOM     24  H   UNL     1       5.326   6.768  15.077  0.00  0.00    +0.000 HD
ENDBRANCH  22  23
ENDBRANCH  14  22
TORSDOF 5
ENDMDL
MODEL 4
REMARK VINA RESULT:      -6.8      2.984      4.452
REMARK  Name = 
REMARK  5 active torsions:
REMARK  status: ('A' for Active; 'I' for Inactive)
REMARK    1  A    between atoms: C_11  and  O_12
REMARK    2  A    between atoms: C_13  and  O_14
REMARK    3  A    between atoms: C_15  and  O_16
REMARK    4  A    between atoms: C_17  and  C_18
REMARK    5  A    between atoms: C_18  and  O_19
REMARK                            x       y       z     vdW  Elec       q    Type
REMARK                         _______ _______ _______ _____ _____    ______ ____
ROOT
ATOM      1  O   UNL     1       1.954   5.141  21.076  0.00  0.00    +0.000 OA
ATOM      2  C   UNL     1       2.389   5.848  20.170  0.00  0.00    +0.000 C 
ATOM      3  C   UNL     1       1.946   7.266  20.108  0.00  0.00    +0.000 A 
ATOM      4  C   UNL     1       1.312   7.810  21.233  0.00  0.00    +0.000 A 
ATOM      5  C   UNL     1       0.752   9.085  21.187  0.00  0.00    +0.000 A 
ATOM      6  C   UNL     1       0.837   9.828  20.012  0.00  0.00    +0.000 A 
ATOM      7  C   UNL     1       1.470   9.295  18.885  0.00  0.00    +0.000 A 
ATOM      8  C   UNL     1       2.017   8.006  18.919  0.00  0.00    +0.000 A 
ATOM      9  S   UNL     1       2.740   7.324  17.429  0.00  0.00    +0.000 S 
ATOM     10  C   UNL     1       3.928   6.239  18.271  0.00  0.00    +0.000 C 
ATOM     11  C   UNL     1       4.980   5.602  17.328  0.00  0.00    +0.000 C 
ATOM     12  C   UNL     1       4.639   4.205  16.782  0.00  0.00    +0.000 C 
ATOM     13  C   UNL     1       3.510   3.426  17.469  0.00  0.00    +0.000 C 
ATOM     14  C   UNL     1       3.085   3.894  18.876  0.00  0.00    +0.000 C 
ATOM     15  N   UNL     1       3.197   5.337  19.146  0.00  0.00    +0.000 N 
ENDROOT
BRANCH  11  16
ATOM     16  O   UNL     1       6.273   5.601  17.944  0.00  0.00    +0.000 OA
ATOM     17  H   UNL     1       6.168   5.528  18.905  0.00  0.00    +0.000 HD
ENDBRANCH  11  16
BRANCH  12  18
ATOM     18  O   UNL     1       5.814   3.381  16.701  0.00  0.00    +0.000 OA
ATOM     19  H   UNL     1       5.828   2.784  17.468  0.00  0.00    +0.000 HD
ENDBRANCH  12  18
BRANCH  13  20
ATOM     20  O   UNL     1       2.351   3.440  16.613  0.00  0.00    +0.000 OA
ATOM     21  H   UNL     1       1.701   4.062  16.979  0.00  0.00    +0.000 HD
ENDBRANCH  13  20
BRANCH  14  22
ATOM     22  C   UNL     1       3.706   3.007  19.980  0.00  0.00    +0.000 C 
BRANCH  22  23
ATOM     23  O   UNL     1       5.027   2.599  19.620  0.00  0.00    +0.000 OA
ATOM     24  H   UNL     1       5.638   2.997  20.269  0.00  0.00    +0.000 HD
ENDBRANCH  22  23
ENDBRANCH  14  22
TORSDOF 5
ENDMDL
MODEL 5
REMARK VINA RESULT:      -6.8      3.231      5.226
REMARK  Name = 
REMARK  5 active torsions:
REMARK  status: ('A' for Active; 'I' for Inactive)
REMARK    1  A    between atoms: C_11  and  O_12
REMARK    2  A    between atoms: C_13  and  O_14
REMARK    3  A    between atoms: C_15  and  O_16
REMARK    4  A    between atoms: C_17  and  C_18
REMARK    5  A    between atoms: C_18  and  O_19
REMARK                            x       y       z     vdW  Elec       q    Type
REMARK                         _______ _______ _______ _____ _____    ______ ____
ROOT
ATOM      1  O   UNL     1       1.022   5.443  21.097  0.00  0.00    +0.000 OA
ATOM      2  C   UNL     1       1.862   5.495  20.201  0.00  0.00    +0.000 C 
ATOM      3  C   UNL     1       2.105   6.803  19.538  0.00  0.00    +0.000 A 
ATOM      4  C   UNL     1       1.605   7.959  20.153  0.00  0.00    +0.000 A 
ATOM      5  C   UNL     1       1.679   9.194  19.512  0.00  0.00    +0.000 A 
ATOM      6  C   UNL     1       2.269   9.278  18.253  0.00  0.00    +0.000 A 
ATOM      7  C   UNL     1       2.772   8.131  17.632  0.00  0.00    +0.000 A 
ATOM      8  C   UNL     1       2.683   6.883  18.263  0.00  0.00    +0.000 A 
ATOM      9  S   UNL     1       3.258   5.424  17.398  0.00  0.00    +0.000 S 
ATOM     10  C   UNL     1       3.696   4.479  18.886  0.00  0.00    +0.000 C 
ATOM     11  C   UNL     1       4.495   3.183  18.598  0.00  0.00    +0.000 C 
ATOM     12  C   UNL     1       3.666   1.895  18.462  0.00  0.00    +0.000 C 
ATOM     13  C   UNL     1       2.215   1.923  18.962  0.00  0.00    +0.000 C 
ATOM     14  C   UNL     1       1.822   3.067  19.919  0.00  0.00    +0.000 C 
ATOM     15  N   UNL     1       2.514   4.351  19.722  0.00  0.00    +0.000 N 
ENDROOT
BRANCH  11  16
ATOM     16  O   UNL     1       5.540   3.010  19.563  0.00  0.00    +0.000 OA
ATOM     17  H   UNL     1       6.322   3.506  19.276  0.00  0.00    +0.000 HD
ENDBRANCH  11  16
BRANCH  12  18
ATOM     18  O   UNL     1       4.354   0.772  19.040  0.00  0.00    +0.000 OA
ATOM     19  H   UNL     1       4.359   0.877  20.007  0.00  0.00    +0.000 HD
ENDBRANCH  12  18
BRANCH  13  20
ATOM     20  O   UNL     1       1.333   1.957  17.823  0.00  0.00    +0.000 OA
ATOM     21  H   UNL     1       0.607   1.330  17.972  0.00  0.00    +0.000 HD
ENDBRANCH  13  20
BRANCH  14  22
ATOM     22  C   UNL     1       1.805   2.592  21.391  0.00  0.00    +0.000 C 
BRANCH  22  23
ATOM     23  O   UNL     1       3.134   2.441  21.892  0.00  0.00    +0.000 OA
ATOM     24  H   UNL     1       3.075   1.907  22.707  0.00  0.00    +0.000 HD
ENDBRANCH  22  23
ENDBRANCH  14  22
TORSDOF 5
ENDMDL
MODEL 6
REMARK VINA RESULT:      -6.7      1.663      3.246
REMARK  Name = 
REMARK  5 active torsions:
REMARK  status: ('A' for Active; 'I' for Inactive)
REMARK    1  A    between atoms: C_11  and  O_12
REMARK    2  A    between atoms: C_13  and  O_14
REMARK    3  A    between atoms: C_15  and  O_16
REMARK    4  A    between atoms: C_17  and  C_18
REMARK    5  A    between atoms: C_18  and  O_19
REMARK                            x       y       z     vdW  Elec       q    Type
REMARK                         _______ _______ _______ _____ _____    ______ ____
ROOT
ATOM      1  O   UNL     1       3.896   2.443  16.940  0.00  0.00    +0.000 OA
ATOM      2  C   UNL     1       4.005   3.365  17.745  0.00  0.00    +0.000 C 
ATOM      3  C   UNL     1       3.060   3.417  18.892  0.00  0.00    +0.000 A 
ATOM      4  C   UNL     1       2.302   2.272  19.175  0.00  0.00    +0.000 A 
ATOM      5  C   UNL     1       1.303   2.303  20.146  0.00  0.00    +0.000 A 
ATOM      6  C   UNL     1       1.067   3.482  20.848  0.00  0.00    +0.000 A 
ATOM      7  C   UNL     1       1.819   4.629  20.574  0.00  0.00    +0.000 A 
ATOM      8  C   UNL     1       2.812   4.609  19.585  0.00  0.00    +0.000 A 
ATOM      9  S   UNL     1       3.692   6.121  19.201  0.00  0.00    +0.000 S 
ATOM     10  C   UNL     1       5.226   5.316  18.655  0.00  0.00    +0.000 C 
ATOM     11  C   UNL     1       6.411   6.293  18.446  0.00  0.00    +0.000 C 
ATOM     12  C   UNL     1       6.604   6.822  17.015  0.00  0.00    +0.000 C 
ATOM     13  C   UNL     1       5.871   6.095  15.879  0.00  0.00    +0.000 C 
ATOM     14  C   UNL     1       5.345   4.676  16.175  0.00  0.00    +0.000 C 
ATOM     15  N   UNL     1       4.915   4.415  17.559  0.00  0.00    +0.000 N 
ENDROOT
BRANCH  11  16
ATOM     16  O   UNL     1       7.628   5.722  18.940  0.00  0.00    +0.000 OA
ATOM     17  H   UNL     1       8.328   6.393  18.917  0.00  0.00    +0.000 HD
ENDBRANCH  11  16
BRANCH  12  18
ATOM     18  O   UNL     1       8.000   6.942  16.690  0.00  0.00    +0.000 OA
ATOM     19  H   UNL     1       8.516   6.869  17.511  0.00  0.00    +0.000 HD
ENDBRANCH  12  18
BRANCH  13  20
ATOM     20  O   UNL     1       4.767   6.911  15.443  0.00  0.00    +0.000 OA
ATOM     21  H   UNL     1       3.954   6.582  15.858  0.00  0.00    +0.000 HD
ENDBRANCH  13  20
BRANCH  14  22
ATOM     22  C   UNL     1       6.288   3.591  15.604  0.00  0.00    +0.000 C 
BRANCH  22  23
ATOM     23  O   UNL     1       6.212   3.552  14.178  0.00  0.00    +0.000 OA
ATOM     24  H   UNL     1       6.723   2.775  13.884  0.00  0.00    +0.000 HD
ENDBRANCH  22  23
ENDBRANCH  14  22
TORSDOF 5
ENDMDL
MODEL 7
REMARK VINA RESULT:      -6.5      2.664      5.661
REMARK  Name = 
REMARK  5 active torsions:
REMARK  status: ('A' for Active; 'I' for Inactive)
REMARK    1  A    between atoms: C_11  and  O_12
REMARK    2  A    between atoms: C_13  and  O_14
REMARK    3  A    between atoms: C_15  and  O_16
REMARK    4  A    between atoms: C_17  and  C_18
REMARK    5  A    between atoms: C_18  and  O_19
REMARK                            x       y       z     vdW  Elec       q    Type
REMARK                         _______ _______ _______ _____ _____    ______ ____
ROOT
ATOM      1  O   UNL     1       3.285   6.837  18.588  0.00  0.00    +0.000 OA
ATOM      2  C   UNL     1       3.583   5.659  18.407  0.00  0.00    +0.000 C 
ATOM      3  C   UNL     1       4.384   5.309  17.204  0.00  0.00    +0.000 A 
ATOM      4  C   UNL     1       5.015   6.348  16.506  0.00  0.00    +0.000 A 
ATOM      5  C   UNL     1       5.662   6.102  15.296  0.00  0.00    +0.000 A 
ATOM      6  C   UNL     1       5.689   4.807  14.786  0.00  0.00    +0.000 A 
ATOM      7  C   UNL     1       5.064   3.763  15.476  0.00  0.00    +0.000 A 
ATOM      8  C   UNL     1       4.396   4.008  16.683  0.00  0.00    +0.000 A 
ATOM      9  S   UNL     1       3.531   2.663  17.491  0.00  0.00    +0.000 S 
ATOM     10  C   UNL     1       3.707   3.310  19.179  0.00  0.00    +0.000 C 
ATOM     11  C   UNL     1       3.295   2.306  20.286  0.00  0.00    +0.000 C 
ATOM     12  C   UNL     1       1.843   2.407  20.783  0.00  0.00    +0.000 C 
ATOM     13  C   UNL     1       1.054   3.675  20.428  0.00  0.00    +0.000 C 
ATOM     14  C   UNL     1       1.864   4.906  19.974  0.00  0.00    +0.000 C 
ATOM     15  N   UNL     1       3.108   4.633  19.236  0.00  0.00    +0.000 N 
ENDROOT
BRANCH  11  16
ATOM     16  O   UNL     1       4.210   2.365  21.385  0.00  0.00    +0.000 OA
ATOM     17  H   UNL     1       3.929   3.064  21.996  0.00  0.00    +0.000 HD
ENDBRANCH  11  16
BRANCH  12  18
ATOM     18  O   UNL     1       1.763   2.169  22.199  0.00  0.00    +0.000 OA
ATOM     19  H   UNL     1       1.680   1.212  22.347  0.00  0.00    +0.000 HD
ENDBRANCH  12  18
BRANCH  13  20
ATOM     20  O   UNL     1       0.098   3.352  19.399  0.00  0.00    +0.000 OA
ATOM     21  H   UNL     1      -0.459   4.131  19.236  0.00  0.00    +0.000 HD
ENDBRANCH  13  20
BRANCH  14  22
ATOM     22  C   UNL     1       2.037   5.925  21.125  0.00  0.00    +0.000 C 
BRANCH  22  23
ATOM     23  O   UNL     1       1.531   7.207  20.748  0.00  0.00    +0.000 OA
ATOM     24  H   UNL     1       0.570   7.198  20.917  0.00  0.00    +0.000 HD
ENDBRANCH  22  23
ENDBRANCH  14  22
TORSDOF 5
ENDMDL
MODEL 8
REMARK VINA RESULT:      -6.4      1.319      1.451
REMARK  Name = 
REMARK  5 active torsions:
REMARK  status: ('A' for Active; 'I' for Inactive)
REMARK    1  A    between atoms: C_11  and  O_12
REMARK    2  A    between atoms: C_13  and  O_14
REMARK    3  A    between atoms: C_15  and  O_16
REMARK    4  A    between atoms: C_17  and  C_18
REMARK    5  A    between atoms: C_18  and  O_19
REMARK                            x       y       z     vdW  Elec       q    Type
REMARK                         _______ _______ _______ _____ _____    ______ ____
ROOT
ATOM      1  O   UNL     1       2.683   6.742  18.314  0.00  0.00    +0.000 OA
ATOM      2  C   UNL     1       3.226   5.641  18.369  0.00  0.00    +0.000 C 
ATOM      3  C   UNL     1       2.621   4.599  19.240  0.00  0.00    +0.000 A 
ATOM      4  C   UNL     1       1.316   4.807  19.711  0.00  0.00    +0.000 A 
ATOM      5  C   UNL     1       0.749   3.937  20.640  0.00  0.00    +0.000 A 
ATOM      6  C   UNL     1       1.483   2.845  21.093  0.00  0.00    +0.000 A 
ATOM      7  C   UNL     1       2.784   2.628  20.628  0.00  0.00    +0.000 A 
ATOM      8  C   UNL     1       3.368   3.510  19.709  0.00  0.00    +0.000 A 
ATOM      9  S   UNL     1       5.067   3.249  19.206  0.00  0.00    +0.000 S 
ATOM     10  C   UNL     1       4.899   4.004  17.563  0.00  0.00    +0.000 C 
ATOM     11  C   UNL     1       6.120   3.777  16.636  0.00  0.00    +0.000 C 
ATOM     12  C   UNL     1       7.186   4.885  16.640  0.00  0.00    +0.000 C 
ATOM     13  C   UNL     1       6.805   6.240  17.253  0.00  0.00    +0.000 C 
ATOM     14  C   UNL     1       5.302   6.533  17.437  0.00  0.00    +0.000 C 
ATOM     15  N   UNL     1       4.441   5.374  17.725  0.00  0.00    +0.000 N 
ENDROOT
BRANCH  11  16
ATOM     16  O   UNL     1       5.691   3.495  15.299  0.00  0.00    +0.000 OA
ATOM     17  H   UNL     1       6.429   3.109  14.802  0.00  0.00    +0.000 HD
ENDBRANCH  11  16
BRANCH  12  18
ATOM     18  O   UNL     1       7.729   5.086  15.324  0.00  0.00    +0.000 OA
ATOM     19  H   UNL     1       7.238   4.527  14.698  0.00  0.00    +0.000 HD
ENDBRANCH  12  18
BRANCH  13  20
ATOM     20  O   UNL     1       7.456   6.370  18.532  0.00  0.00    +0.000 OA
ATOM     21  H   UNL     1       8.330   6.769  18.397  0.00  0.00    +0.000 HD
ENDBRANCH  13  20
BRANCH  14  22
ATOM     22  C   UNL     1       4.761   7.443  16.309  0.00  0.00    +0.000 C 
BRANCH  22  23
ATOM     23  O   UNL     1       5.124   6.932  15.025  0.00  0.00    +0.000 OA
ATOM     24  H   UNL     1       5.314   7.699  14.453  0.00  0.00    +0.000 HD
ENDBRANCH  22  23
ENDBRANCH  14  22
TORSDOF 5
ENDMDL
MODEL 9
REMARK VINA RESULT:      -6.2      2.756      5.647
REMARK  Name = 
REMARK  5 active torsions:
REMARK  status: ('A' for Active; 'I' for Inactive)
REMARK    1  A    between atoms: C_11  and  O_12
REMARK    2  A    between atoms: C_13  and  O_14
REMARK    3  A    between atoms: C_15  and  O_16
REMARK    4  A    between atoms: C_17  and  C_18
REMARK    5  A    between atoms: C_18  and  O_19
REMARK                            x       y       z     vdW  Elec       q    Type
REMARK                         _______ _______ _______ _____ _____    ______ ____
ROOT
ATOM      1  O   UNL     1       6.078   4.125  20.252  0.00  0.00    +0.000 OA
ATOM      2  C   UNL     1       5.450   4.612  19.315  0.00  0.00    +0.000 C 
ATOM      3  C   UNL     1       6.080   5.713  18.540  0.00  0.00    +0.000 A 
ATOM      4  C   UNL     1       7.455   5.935  18.707  0.00  0.00    +0.000 A 
ATOM      5  C   UNL     1       8.073   7.036  18.117  0.00  0.00    +0.000 A 
ATOM      6  C   UNL     1       7.318   7.914  17.344  0.00  0.00    +0.000 A 
ATOM      7  C   UNL     1       5.947   7.699  17.170  0.00  0.00    +0.000 A 
ATOM      8  C   UNL     1       5.315   6.606  17.777  0.00  0.00    +0.000 A 
ATOM      9  S   UNL     1       3.542   6.415  17.605  0.00  0.00    +0.000 S 
ATOM     10  C   UNL     1       3.529   4.605  17.754  0.00  0.00    +0.000 C 
ATOM     11  C   UNL     1       2.166   3.953  17.409  0.00  0.00    +0.000 C 
ATOM     12  C   UNL     1       1.221   3.698  18.595  0.00  0.00    +0.000 C 
ATOM     13  C   UNL     1       1.814   3.765  20.009  0.00  0.00    +0.000 C 
ATOM     14  C   UNL     1       3.348   3.669  20.134  0.00  0.00    +0.000 C 
ATOM     15  N   UNL     1       4.131   4.237  19.025  0.00  0.00    +0.000 N 
ENDROOT
BRANCH  11  16
ATOM     16  O   UNL     1       2.359   2.753  16.651  0.00  0.00    +0.000 OA
ATOM     17  H   UNL     1       2.726   2.981  15.783  0.00  0.00    +0.000 HD
ENDBRANCH  11  16
BRANCH  12  18
ATOM     18  O   UNL     1       0.504   2.462  18.430  0.00  0.00    +0.000 OA
ATOM     19  H   UNL     1       1.055   1.852  17.910  0.00  0.00    +0.000 HD
ENDBRANCH  12  18
BRANCH  13  20
ATOM     20  O   UNL     1       1.379   4.988  20.636  0.00  0.00    +0.000 OA
ATOM     21  H   UNL     1       2.020   5.230  21.324  0.00  0.00    +0.000 HD
ENDBRANCH  13  20
BRANCH  14  22
ATOM     22  C   UNL     1       3.794   2.246  20.543  0.00  0.00    +0.000 C 
BRANCH  22  23
ATOM     23  O   UNL     1       4.515   1.616  19.484  0.00  0.00    +0.000 OA
ATOM     24  H   UNL     1       4.160   0.712  19.392  0.00  0.00    +0.000 HD
ENDBRANCH  22  23
ENDBRANCH  14  22
TORSDOF 5
ENDMDL
