MODEL 1
REMARK VINA RESULT:      -7.8      0.000      0.000
REMARK  Name = 
REMARK  5 active torsions:
REMARK  status: ('A' for Active; 'I' for Inactive)
REMARK    1  A    between atoms: C_1  and  C_2
REMARK    2  A    between atoms: C_5  and  S_6
REMARK    3  A    between atoms: S_6  and  C_7
REMARK    4  A    between atoms: C_7  and  C_8
REMARK    5  A    between atoms: C_8  and  C_10
REMARK                            x       y       z     vdW  Elec       q    Type
REMARK                         _______ _______ _______ _____ _____    ______ ____
ROOT
ATOM      1  C   UNL     1       5.153   6.507  17.015  0.00  0.00    +0.000 C 
ATOM      2  O   UNL     1       5.103   6.870  15.835  0.00  0.00    +0.000 OA
ENDROOT
BRANCH   1   3
ATOM      3  C   UNL     1       3.940   6.145  17.747  0.00  0.00    +0.000 A 
ATOM      4  C   UNL     1       3.207   6.975  18.577  0.00  0.00    +0.000 A 
ATOM      5  N   UNL     1       2.165   6.259  19.099  0.00  0.00    +0.000 N 
ATOM      6  C   UNL     1       2.197   4.967  18.636  0.00  0.00    +0.000 A 
ATOM      7  C   UNL     1       1.342   3.894  18.916  0.00  0.00    +0.000 A 
ATOM      8  C   UNL     1       1.622   2.666  18.312  0.00  0.00    +0.000 A 
ATOM      9  C   UNL     1       2.714   2.520  17.463  0.00  0.00    +0.000 A 
ATOM     10  C   UNL     1       3.556   3.604  17.190  0.00  0.00    +0.000 A 
ATOM     11  C   UNL     1       3.298   4.859  17.787  0.00  0.00    +0.000 A 
ATOM     12  H   UNL     1       1.476   6.617  19.748  0.00  0.00    +0.000 HD
ENDBRANCH   1   3
BRANCH   1  13
ATOM     13  C   UNL     1       6.513   6.323  17.659  0.00  0.00    +0.000 C 
BRANCH  13  14
ATOM     14  S   UNL     1       7.195   4.696  17.254  0.00  0.00    +0.000 S 
BRANCH  14  19
ATOM     15  C   UNL     1       5.815   3.393  12.471  0.00  0.00    +0.000 C 
ATOM     16  C   UNL     1       6.499   4.088  13.578  0.00  0.00    +0.000 A 
ATOM     17  N   UNL     1       7.329   5.119  13.381  0.00  0.00    +0.000 NA
ATOM     18  N   UNL     1       7.682   5.421  14.644  0.00  0.00    +0.000 N 
ATOM     19  C   UNL     1       7.081   4.581  15.536  0.00  0.00    +0.000 A 
ATOM     20  N   UNL     1       6.322   3.730  14.889  0.00  0.00    +0.000 NA
ATOM     21  H   UNL     1       8.320   6.196  14.810  0.00  0.00    +0.000 HD
ENDBRANCH  14  19
ENDBRANCH  13  14
ENDBRANCH   1  13
TORSDOF 4
ENDMDL
MODEL 2
REMARK VINA RESULT:      -7.7      1.208      1.956
REMARK  Name = 
REMARK  5 active torsions:
REMARK  status: ('A' for Active; 'I' for Inactive)
REMARK    1  A    between atoms: C_1  and  C_2
REMARK    2  A    between atoms: C_5  and  S_6
REMARK    3  A    between atoms: S_6  and  C_7
REMARK    4  A    between atoms: C_7  and  C_8
REMARK    5  A    between atoms: C_8  and  C_10
REMARK                            x       y       z     vdW  Elec       q    Type
REMARK                         _______ _______ _______ _____ _____    ______ ____
ROOT
ATOM      1  C   UNL     1       4.776   5.995  17.279  0.00  0.00    +0.000 C 
ATOM      2  O   UNL     1       4.552   6.819  16.386  0.00  0.00    +0.000 OA
ENDROOT
BRANCH   1   3
ATOM      3  C   UNL     1       3.820   4.931  17.584  0.00  0.00    +0.000 A 
ATOM      4  C   UNL     1       3.569   3.810  16.810  0.00  0.00    +0.000 A 
ATOM      5  N   UNL     1       2.588   3.074  17.416  0.00  0.00    +0.000 N 
ATOM      6  C   UNL     1       2.178   3.689  18.573  0.00  0.00    +0.000 A 
ATOM      7  C   UNL     1       1.197   3.300  19.494  0.00  0.00    +0.000 A 
ATOM      8  C   UNL     1       0.970   4.135  20.590  0.00  0.00    +0.000 A 
ATOM      9  C   UNL     1       1.695   5.311  20.756  0.00  0.00    +0.000 A 
ATOM     10  C   UNL     1       2.676   5.682  19.829  0.00  0.00    +0.000 A 
ATOM     11  C   UNL     1       2.928   4.857  18.709  0.00  0.00    +0.000 A 
ATOM     12  H   UNL     1       2.201   2.210  17.059  0.00  0.00    +0.000 HD
ENDBRANCH   1   3
BRANCH   1  13
ATOM     13  C   UNL     1       6.122   6.029  17.975  0.00  0.00    +0.000 C 
BRANCH  13  14
ATOM     14  S   UNL     1       7.129   4.607  17.485  0.00  0.00    +0.000 S 
BRANCH  14  19
ATOM     15  C   UNL     1       6.039   3.487  12.582  0.00  0.00    +0.000 C 
ATOM     16  C   UNL     1       6.607   4.178  13.755  0.00  0.00    +0.000 A 
ATOM     17  N   UNL     1       7.318   5.308  13.655  0.00  0.00    +0.000 NA
ATOM     18  N   UNL     1       7.599   5.561  14.945  0.00  0.00    +0.000 N 
ATOM     19  C   UNL     1       7.075   4.598  15.759  0.00  0.00    +0.000 A 
ATOM     20  N   UNL     1       6.437   3.713  15.032  0.00  0.00    +0.000 NA
ATOM     21  H   UNL     1       8.138   6.389  15.183  0.00  0.00    +0.000 HD
ENDBRANCH  14  19
ENDBRANCH  13  14
ENDBRANCH   1  13
TORSDOF 4
ENDMDL
MODEL 3
REMARK VINA RESULT:      -7.4      2.034      2.653
REMARK  Name = 
REMARK  5 active torsions:
REMARK  status: ('A' for Active; 'I' for Inactive)
REMARK    1  A    between atoms: C_1  and  C_2
REMARK    2  A    between atoms: C_5  and  S_6
REMARK    3  A    between atoms: S_6  and  C_7
REMARK    4  A    between atoms: C_7  and  C_8
REMARK    5  A    between atoms: C_8  and  C_10
REMARK                            x       y       z     vdW  Elec       q    Type
REMARK                         _______ _______ _______ _____ _____    ______ ____
ROOT
ATOM      1  C   UNL     1       5.503   4.594  18.497  0.00  0.00    +0.000 C 
ATOM      2  O   UNL     1       6.618   4.111  18.722  0.00  0.00    +0.000 OA
ENDROOT
BRANCH   1   3
ATOM      3  C   UNL     1       4.321   3.742  18.371  0.00  0.00    +0.000 A 
ATOM      4  C   UNL     1       4.120   2.759  17.418  0.00  0.00    +0.000 A 
ATOM      5  N   UNL     1       2.882   2.210  17.614  0.00  0.00    +0.000 N 
ATOM      6  C   UNL     1       2.256   2.816  18.676  0.00  0.00    +0.000 A 
ATOM      7  C   UNL     1       0.986   2.584  19.217  0.00  0.00    +0.000 A 
ATOM      8  C   UNL     1       0.590   3.369  20.302  0.00  0.00    +0.000 A 
ATOM      9  C   UNL     1       1.432   4.346  20.823  0.00  0.00    +0.000 A 
ATOM     10  C   UNL     1       2.701   4.561  20.272  0.00  0.00    +0.000 A 
ATOM     11  C   UNL     1       3.129   3.782  19.173  0.00  0.00    +0.000 A 
ATOM     12  H   UNL     1       2.471   1.476  17.051  0.00  0.00    +0.000 HD
ENDBRANCH   1   3
BRANCH   1  13
ATOM     13  C   UNL     1       5.358   6.103  18.474  0.00  0.00    +0.000 C 
BRANCH  13  14
ATOM     14  S   UNL     1       4.829   6.668  16.838  0.00  0.00    +0.000 S 
BRANCH  14  19
ATOM     15  C   UNL     1       6.458   3.686  12.974  0.00  0.00    +0.000 C 
ATOM     16  C   UNL     1       6.491   4.607  14.126  0.00  0.00    +0.000 A 
ATOM     17  N   UNL     1       7.624   5.153  14.583  0.00  0.00    +0.000 NA
ATOM     18  N   UNL     1       7.166   5.908  15.597  0.00  0.00    +0.000 N 
ATOM     19  C   UNL     1       5.812   5.789  15.724  0.00  0.00    +0.000 A 
ATOM     20  N   UNL     1       5.357   4.975  14.802  0.00  0.00    +0.000 NA
ATOM     21  H   UNL     1       7.822   6.462  16.140  0.00  0.00    +0.000 HD
ENDBRANCH  14  19
ENDBRANCH  13  14
ENDBRANCH   1  13
TORSDOF 4
ENDMDL
MODEL 4
REMARK VINA RESULT:      -7.3      1.849      2.038
REMARK  Name = 
REMARK  5 active torsions:
REMARK  status: ('A' for Active; 'I' for Inactive)
REMARK    1  A    between atoms: C_1  and  C_2
REMARK    2  A    between atoms: C_5  and  S_6
REMARK    3  A    between atoms: S_6  and  C_7
REMARK    4  A    between atoms: C_7  and  C_8
REMARK    5  A    between atoms: C_8  and  C_10
REMARK                            x       y       z     vdW  Elec       q    Type
REMARK                         _______ _______ _______ _____ _____    ______ ____
ROOT
ATOM      1  C   UNL     1       5.720   4.838  18.877  0.00  0.00    +0.000 C 
ATOM      2  O   UNL     1       6.581   5.172  19.699  0.00  0.00    +0.000 OA
ENDROOT
BRANCH   1   3
ATOM      3  C   UNL     1       4.300   5.078  19.129  0.00  0.00    +0.000 A 
ATOM      4  C   UNL     1       3.587   6.212  18.778  0.00  0.00    +0.000 A 
ATOM      5  N   UNL     1       2.298   6.068  19.215  0.00  0.00    +0.000 N 
ATOM      6  C   UNL     1       2.145   4.862  19.854  0.00  0.00    +0.000 A 
ATOM      7  C   UNL     1       1.011   4.311  20.464  0.00  0.00    +0.000 A 
ATOM      8  C   UNL     1       1.143   3.057  21.064  0.00  0.00    +0.000 A 
ATOM      9  C   UNL     1       2.362   2.384  21.055  0.00  0.00    +0.000 A 
ATOM     10  C   UNL     1       3.483   2.948  20.437  0.00  0.00    +0.000 A 
ATOM     11  C   UNL     1       3.380   4.216  19.821  0.00  0.00    +0.000 A 
ATOM     12  H   UNL     1       1.563   6.754  19.103  0.00  0.00    +0.000 HD
ENDBRANCH   1   3
BRANCH   1  13
ATOM     13  C   UNL     1       6.172   4.285  17.540  0.00  0.00    +0.000 C 
BRANCH  13  14
ATOM     14  S   UNL     1       7.023   5.560  16.578  0.00  0.00    +0.000 S 
BRANCH  14  19
ATOM     15  C   UNL     1       5.762   3.143  12.213  0.00  0.00    +0.000 C 
ATOM     16  C   UNL     1       6.471   4.032  13.153  0.00  0.00    +0.000 A 
ATOM     17  N   UNL     1       7.452   4.856  12.768  0.00  0.00    +0.000 NA
ATOM     18  N   UNL     1       7.768   5.456  13.930  0.00  0.00    +0.000 N 
ATOM     19  C   UNL     1       6.998   4.981  14.952  0.00  0.00    +0.000 A 
ATOM     20  N   UNL     1       6.164   4.082  14.488  0.00  0.00    +0.000 NA
ATOM     21  H   UNL     1       8.500   6.161  13.942  0.00  0.00    +0.000 HD
ENDBRANCH  14  19
ENDBRANCH  13  14
ENDBRANCH   1  13
TORSDOF 4
ENDMDL
MODEL 5
REMARK VINA RESULT:      -7.3      1.628      2.251
REMARK  Name = 
REMARK  5 active torsions:
REMARK  status: ('A' for Active; 'I' for Inactive)
REMARK    1  A    between atoms: C_1  and  C_2
REMARK    2  A    between atoms: C_5  and  S_6
REMARK    3  A    between atoms: S_6  and  C_7
REMARK    4  A    between atoms: C_7  and  C_8
REMARK    5  A    between atoms: C_8  and  C_10
REMARK                            x       y       z     vdW  Elec       q    Type
REMARK                         _______ _______ _______ _____ _____    ______ ____
ROOT
ATOM      1  C   UNL     1       3.737   6.198  17.899  0.00  0.00    +0.000 C 
ATOM      2  O   UNL     1       3.034   7.197  17.712  0.00  0.00    +0.000 OA
ENDROOT
BRANCH   1   3
ATOM      3  C   UNL     1       3.140   4.871  18.052  0.00  0.00    +0.000 A 
ATOM      4  C   UNL     1       2.891   3.965  17.035  0.00  0.00    +0.000 A 
ATOM      5  N   UNL     1       2.298   2.857  17.576  0.00  0.00    +0.000 N 
ATOM      6  C   UNL     1       2.143   3.014  18.931  0.00  0.00    +0.000 A 
ATOM      7  C   UNL     1       1.578   2.147  19.873  0.00  0.00    +0.000 A 
ATOM      8  C   UNL     1       1.533   2.574  21.203  0.00  0.00    +0.000 A 
ATOM      9  C   UNL     1       2.033   3.819  21.571  0.00  0.00    +0.000 A 
ATOM     10  C   UNL     1       2.600   4.671  20.616  0.00  0.00    +0.000 A 
ATOM     11  C   UNL     1       2.659   4.267  19.264  0.00  0.00    +0.000 A 
ATOM     12  H   UNL     1       1.997   2.043  17.056  0.00  0.00    +0.000 HD
ENDBRANCH   1   3
BRANCH   1  13
ATOM     13  C   UNL     1       5.244   6.352  17.844  0.00  0.00    +0.000 C 
BRANCH  13  14
ATOM     14  S   UNL     1       6.043   4.738  17.663  0.00  0.00    +0.000 S 
BRANCH  14  19
ATOM     15  C   UNL     1       6.317   3.645  12.643  0.00  0.00    +0.000 C 
ATOM     16  C   UNL     1       6.624   4.258  13.949  0.00  0.00    +0.000 A 
ATOM     17  N   UNL     1       7.548   5.215  14.099  0.00  0.00    +0.000 NA
ATOM     18  N   UNL     1       7.462   5.462  15.418  0.00  0.00    +0.000 N 
ATOM     19  C   UNL     1       6.525   4.663  16.007  0.00  0.00    +0.000 A 
ATOM     20  N   UNL     1       5.975   3.894  15.099  0.00  0.00    +0.000 NA
ATOM     21  H   UNL     1       8.059   6.174  15.830  0.00  0.00    +0.000 HD
ENDBRANCH  14  19
ENDBRANCH  13  14
ENDBRANCH   1  13
TORSDOF 4
ENDMDL
MODEL 6
REMARK VINA RESULT:      -7.2      1.686      3.131
REMARK  Name = 
REMARK  5 active torsions:
REMARK  status: ('A' for Active; 'I' for Inactive)
REMARK    1  A    between atoms: C_1  and  C_2
REMARK    2  A    between atoms: C_5  and  S_6
REMARK    3  A    between atoms: S_6  and  C_7
REMARK    4  A    between atoms: C_7  and  C_8
REMARK    5  A    between atoms: C_8  and  C_10
REMARK                            x       y       z     vdW  Elec       q    Type
REMARK                         _______ _______ _______ _____ _____    ______ ____
ROOT
ATOM      1  C   UNL     1       4.167   5.627  17.539  0.00  0.00    +0.000 C 
ATOM      2  O   UNL     1       3.845   4.573  16.980  0.00  0.00    +0.000 OA
ENDROOT
BRANCH   1   3
ATOM      3  C   UNL     1       3.359   6.187  18.622  0.00  0.00    +0.000 A 
ATOM      4  C   UNL     1       3.094   5.585  19.840  0.00  0.00    +0.000 A 
ATOM      5  N   UNL     1       2.278   6.410  20.564  0.00  0.00    +0.000 N 
ATOM      6  C   UNL     1       1.991   7.545  19.847  0.00  0.00    +0.000 A 
ATOM      7  C   UNL     1       1.192   8.642  20.190  0.00  0.00    +0.000 A 
ATOM      8  C   UNL     1       1.058   9.666  19.249  0.00  0.00    +0.000 A 
ATOM      9  C   UNL     1       1.698   9.592  18.016  0.00  0.00    +0.000 A 
ATOM     10  C   UNL     1       2.497   8.489  17.691  0.00  0.00    +0.000 A 
ATOM     11  C   UNL     1       2.652   7.438  18.623  0.00  0.00    +0.000 A 
ATOM     12  H   UNL     1       1.918   6.211  21.489  0.00  0.00    +0.000 HD
ENDBRANCH   1   3
BRANCH   1  13
ATOM     13  C   UNL     1       5.488   6.270  17.165  0.00  0.00    +0.000 C 
BRANCH  13  14
ATOM     14  S   UNL     1       6.783   5.015  17.001  0.00  0.00    +0.000 S 
BRANCH  14  19
ATOM     15  C   UNL     1       6.164   3.404  12.154  0.00  0.00    +0.000 C 
ATOM     16  C   UNL     1       6.686   4.155  13.311  0.00  0.00    +0.000 A 
ATOM     17  N   UNL     1       7.590   5.134  13.189  0.00  0.00    +0.000 NA
ATOM     18  N   UNL     1       7.740   5.518  14.469  0.00  0.00    +0.000 N 
ATOM     19  C   UNL     1       6.954   4.773  15.301  0.00  0.00    +0.000 A 
ATOM     20  N   UNL     1       6.272   3.906  14.593  0.00  0.00    +0.000 NA
ATOM     21  H   UNL     1       8.380   6.277  14.689  0.00  0.00    +0.000 HD
ENDBRANCH  14  19
ENDBRANCH  13  14
ENDBRANCH   1  13
TORSDOF 4
ENDMDL
MODEL 7
REMARK VINA RESULT:      -7.2      2.387      3.800
REMARK  Name = 
REMARK  5 active torsions:
REMARK  status: ('A' for Active; 'I' for Inactive)
REMARK    1  A    between atoms: C_1  and  C_2
REMARK    2  A    between atoms: C_5  and  S_6
REMARK    3  A    between atoms: S_6  and  C_7
REMARK    4  A    between atoms: C_7  and  C_8
REMARK    5  A    between atoms: C_8  and  C_10
REMARK                            x       y       z     vdW  Elec       q    Type
REMARK                         _______ _______ _______ _____ _____    ______ ____
ROOT
ATOM      1  C   UNL     1       4.144   4.852  17.014  0.00  0.00    +0.000 C 
ATOM      2  O   UNL     1       4.082   6.023  17.403  0.00  0.00    +0.000 OA
ENDROOT
BRANCH   1   3
ATOM      3  C   UNL     1       3.438   3.782  17.719  0.00  0.00    +0.000 A 
ATOM      4  C   UNL     1       3.159   2.521  17.222  0.00  0.00    +0.000 A 
ATOM      5  N   UNL     1       2.458   1.825  18.169  0.00  0.00    +0.000 N 
ATOM      6  C   UNL     1       2.262   2.604  19.283  0.00  0.00    +0.000 A 
ATOM      7  C   UNL     1       1.592   2.307  20.476  0.00  0.00    +0.000 A 
ATOM      8  C   UNL     1       1.528   3.307  21.450  0.00  0.00    +0.000 A 
ATOM      9  C   UNL     1       2.111   4.552  21.235  0.00  0.00    +0.000 A 
ATOM     10  C   UNL     1       2.781   4.830  20.038  0.00  0.00    +0.000 A 
ATOM     11  C   UNL     1       2.862   3.839  19.035  0.00  0.00    +0.000 A 
ATOM     12  H   UNL     1       2.114   0.879  18.065  0.00  0.00    +0.000 HD
ENDBRANCH   1   3
BRANCH   1  13
ATOM     13  C   UNL     1       4.867   4.557  15.714  0.00  0.00    +0.000 C 
BRANCH  13  14
ATOM     14  S   UNL     1       6.577   4.059  16.036  0.00  0.00    +0.000 S 
BRANCH  14  19
ATOM     15  C   UNL     1       8.123   8.577  17.951  0.00  0.00    +0.000 C 
ATOM     16  C   UNL     1       7.812   7.138  17.869  0.00  0.00    +0.000 A 
ATOM     17  N   UNL     1       7.921   6.313  18.918  0.00  0.00    +0.000 NA
ATOM     18  N   UNL     1       7.528   5.145  18.380  0.00  0.00    +0.000 N 
ATOM     19  C   UNL     1       7.215   5.294  17.059  0.00  0.00    +0.000 A 
ATOM     20  N   UNL     1       7.381   6.547  16.711  0.00  0.00    +0.000 NA
ATOM     21  H   UNL     1       7.500   4.314  18.964  0.00  0.00    +0.000 HD
ENDBRANCH  14  19
ENDBRANCH  13  14
ENDBRANCH   1  13
TORSDOF 4
ENDMDL
MODEL 8
REMARK VINA RESULT:      -7.1      0.647      1.038
REMARK  Name = 
REMARK  5 active torsions:
REMARK  status: ('A' for Active; 'I' for Inactive)
REMARK    1  A    between atoms: C_1  and  C_2
REMARK    2  A    between atoms: C_5  and  S_6
REMARK    3  A    between atoms: S_6  and  C_7
REMARK    4  A    between atoms: C_7  and  C_8
REMARK    5  A    between atoms: C_8  and  C_10
REMARK                            x       y       z     vdW  Elec       q    Type
REMARK                         _______ _______ _______ _____ _____    ______ ____
ROOT
ATOM      1  C   UNL     1       5.095   6.513  16.921  0.00  0.00    +0.000 C 
ATOM      2  O   UNL     1       5.040   6.849  15.733  0.00  0.00    +0.000 OA
ENDROOT
BRANCH   1   3
ATOM      3  C   UNL     1       3.887   6.149  17.661  0.00  0.00    +0.000 A 
ATOM      4  C   UNL     1       3.120   6.997  18.441  0.00  0.00    +0.000 A 
ATOM      5  N   UNL     1       2.096   6.275  18.991  0.00  0.00    +0.000 N 
ATOM      6  C   UNL     1       2.173   4.963  18.595  0.00  0.00    +0.000 A 
ATOM      7  C   UNL     1       1.350   3.879  18.923  0.00  0.00    +0.000 A 
ATOM      8  C   UNL     1       1.674   2.632  18.385  0.00  0.00    +0.000 A 
ATOM      9  C   UNL     1       2.779   2.477  17.553  0.00  0.00    +0.000 A 
ATOM     10  C   UNL     1       3.589   3.573  17.232  0.00  0.00    +0.000 A 
ATOM     11  C   UNL     1       3.285   4.848  17.761  0.00  0.00    +0.000 A 
ATOM     12  H   UNL     1       1.390   6.644  19.616  0.00  0.00    +0.000 HD
ENDBRANCH   1   3
BRANCH   1  13
ATOM     13  C   UNL     1       6.457   6.363  17.569  0.00  0.00    +0.000 C 
BRANCH  13  14
ATOM     14  S   UNL     1       7.185   4.758  17.156  0.00  0.00    +0.000 S 
BRANCH  14  19
ATOM     15  C   UNL     1       7.670   5.177  12.050  0.00  0.00    +0.000 C 
ATOM     16  C   UNL     1       7.179   4.725  13.366  0.00  0.00    +0.000 A 
ATOM     17  N   UNL     1       6.268   3.754  13.502  0.00  0.00    +0.000 NA
ATOM     18  N   UNL     1       6.154   3.683  14.841  0.00  0.00    +0.000 N 
ATOM     19  C   UNL     1       6.966   4.595  15.451  0.00  0.00    +0.000 A 
ATOM     20  N   UNL     1       7.630   5.265  14.542  0.00  0.00    +0.000 NA
ATOM     21  H   UNL     1       5.518   3.004  15.250  0.00  0.00    +0.000 HD
ENDBRANCH  14  19
ENDBRANCH  13  14
ENDBRANCH   1  13
TORSDOF 4
ENDMDL
MODEL 9
REMARK VINA RESULT:      -7.0      1.880      2.518
REMARK  Name = 
REMARK  5 active torsions:
REMARK  status: ('A' for Active; 'I' for Inactive)
REMARK    1  A    between atoms: C_1  and  C_2
REMARK    2  A    between atoms: C_5  and  S_6
REMARK    3  A    between atoms: S_6  and  C_7
REMARK    4  A    between atoms: C_7  and  C_8
REMARK    5  A    between atoms: C_8  and  C_10
REMARK                            x       y       z     vdW  Elec       q    Type
REMARK                         _______ _______ _______ _____ _____    ______ ____
ROOT
ATOM      1  C   UNL     1       5.016   5.494  18.899  0.00  0.00    +0.000 C 
ATOM      2  O   UNL     1       4.587   6.641  18.731  0.00  0.00    +0.000 OA
ENDROOT
BRANCH   1   3
ATOM      3  C   UNL     1       4.191   4.325  18.595  0.00  0.00    +0.000 A 
ATOM      4  C   UNL     1       4.473   3.347  17.657  0.00  0.00    +0.000 A 
ATOM      5  N   UNL     1       3.445   2.444  17.648  0.00  0.00    +0.000 N 
ATOM      6  C   UNL     1       2.484   2.808  18.558  0.00  0.00    +0.000 A 
ATOM      7  C   UNL     1       1.268   2.190  18.871  0.00  0.00    +0.000 A 
ATOM      8  C   UNL     1       0.463   2.795  19.840  0.00  0.00    +0.000 A 
ATOM      9  C   UNL     1       0.861   3.972  20.467  0.00  0.00    +0.000 A 
ATOM     10  C   UNL     1       2.082   4.574  20.145  0.00  0.00    +0.000 A 
ATOM     11  C   UNL     1       2.918   3.984  19.169  0.00  0.00    +0.000 A 
ATOM     12  H   UNL     1       3.386   1.631  17.047  0.00  0.00    +0.000 HD
ENDBRANCH   1   3
BRANCH   1  13
ATOM     13  C   UNL     1       6.464   5.315  19.309  0.00  0.00    +0.000 C 
BRANCH  13  14
ATOM     14  S   UNL     1       7.563   6.191  18.167  0.00  0.00    +0.000 S 
BRANCH  14  19
ATOM     15  C   UNL     1       6.433   3.945  13.677  0.00  0.00    +0.000 C 
ATOM     16  C   UNL     1       6.431   4.928  14.777  0.00  0.00    +0.000 A 
ATOM     17  N   UNL     1       5.632   6.002  14.786  0.00  0.00    +0.000 NA
ATOM     18  N   UNL     1       5.964   6.572  15.958  0.00  0.00    +0.000 N 
ATOM     19  C   UNL     1       6.933   5.851  16.596  0.00  0.00    +0.000 A 
ATOM     20  N   UNL     1       7.243   4.803  15.873  0.00  0.00    +0.000 NA
ATOM     21  H   UNL     1       5.496   7.427  16.246  0.00  0.00    +0.000 HD
ENDBRANCH  14  19
ENDBRANCH  13  14
ENDBRANCH   1  13
TORSDOF 4
ENDMDL
