MODEL 1
REMARK VINA RESULT:      -8.8      0.000      0.000
REMARK  Name = 
REMARK  6 active torsions:
REMARK  status: ('A' for Active; 'I' for Inactive)
REMARK    1  A    between atoms: C_2  and  C_3
REMARK    2  A    between atoms: C_3  and  N_4
REMARK    3  A    between atoms: C_12  and  S_13
REMARK    4  A    between atoms: S_13  and  N_16
REMARK    5  A    between atoms: N_16  and  C_17
REMARK    6  A    between atoms: N_24  and  C_25
REMARK                            x       y       z     vdW  Elec       q    Type
REMARK                         _______ _______ _______ _____ _____    ______ ____
ROOT
ATOM      1  N   UNL     1       2.482   4.622  19.630  0.00  0.00    +0.000 N 
ATOM      2  C   UNL     1       1.235   4.034  19.761  0.00  0.00    +0.000 C 
ATOM      3  O   UNL     1       0.381   4.455  20.544  0.00  0.00    +0.000 OA
ATOM      4  C   UNL     1       0.932   2.900  18.791  0.00  0.00    +0.000 C 
ATOM      5  O   UNL     1       2.001   2.211  18.177  0.00  0.00    +0.000 OA
ATOM      6  C   UNL     1       3.084   3.002  17.909  0.00  0.00    +0.000 A 
ATOM      7  C   UNL     1       3.934   2.522  16.909  0.00  0.00    +0.000 A 
ATOM      8  C   UNL     1       5.084   3.227  16.568  0.00  0.00    +0.000 A 
ATOM      9  C   UNL     1       5.389   4.402  17.256  0.00  0.00    +0.000 A 
ATOM     10  C   UNL     1       4.551   4.880  18.277  0.00  0.00    +0.000 A 
ATOM     11  C   UNL     1       3.379   4.182  18.613  0.00  0.00    +0.000 A 
ENDROOT
BRANCH   9  12
ATOM     12  S   UNL     1       6.820   5.333  16.755  0.00  0.00    +0.000 S 
ATOM     13  O   UNL     1       6.729   6.618  17.413  0.00  0.00    +0.000 OA
ATOM     14  O   UNL     1       7.992   4.498  16.871  0.00  0.00    +0.000 OA
BRANCH  12  15
ATOM     15  N   UNL     1       6.541   5.635  15.117  0.00  0.00    +0.000 NA
ATOM     16  H   UNL     1       6.859   6.579  14.888  0.00  0.00    +0.000 HD
BRANCH  15  17
ATOM     17  C   UNL     1       6.866   4.594  14.135  0.00  0.00    +0.000 C 
ATOM     18  C   UNL     1       5.638   3.973  13.490  0.00  0.00    +0.000 C 
ATOM     19  C   UNL     1       6.189   3.334  12.225  0.00  0.00    +0.000 C 
ATOM     20  C   UNL     1       7.337   4.238  11.779  0.00  0.00    +0.000 C 
ATOM     21  C   UNL     1       7.590   5.204  12.934  0.00  0.00    +0.000 C 
ENDBRANCH  15  17
ENDBRANCH  12  15
ENDBRANCH   9  12
BRANCH   1  22
ATOM     22  C   UNL     1       2.811   5.727  20.525  0.00  0.00    +0.000 C 
BRANCH  22  24
ATOM     23  O   UNL     1       2.293   7.386  18.890  0.00  0.00    +0.000 OA
ATOM     24  C   UNL     1       2.200   7.051  20.072  0.00  0.00    +0.000 C 
ATOM     25  N   UNL     1       1.642   7.824  21.076  0.00  0.00    +0.000 N 
ATOM     26  H   UNL     1       1.899   7.604  22.039  0.00  0.00    +0.000 HD
BRANCH  25  27
ATOM     27  C   UNL     1       0.841   8.972  20.876  0.00  0.00    +0.000 A 
ATOM     28  C   UNL     1       0.420   9.391  19.609  0.00  0.00    +0.000 A 
ATOM     29  C   UNL     1      -0.414  10.505  19.466  0.00  0.00    +0.000 A 
ATOM     30  C   UNL     1      -0.835  11.209  20.591  0.00  0.00    +0.000 A 
ATOM     31 CL   UNL     1      -1.878  12.564  20.402  0.00  0.00    +0.000 Cl
ATOM     32  C   UNL     1      -0.425  10.815  21.860  0.00  0.00    +0.000 A 
ATOM     33  C   UNL     1       0.402   9.699  21.992  0.00  0.00    +0.000 A 
ATOM     34  F   UNL     1       0.784   9.324  23.223  0.00  0.00    +0.000 F 
ENDBRANCH  25  27
ENDBRANCH  22  24
ENDBRANCH   1  22
TORSDOF 6
ENDMDL
MODEL 2
REMARK VINA RESULT:      -8.4      7.023     10.982
REMARK  Name = 
REMARK  6 active torsions:
REMARK  status: ('A' for Active; 'I' for Inactive)
REMARK    1  A    between atoms: C_2  and  C_3
REMARK    2  A    between atoms: C_3  and  N_4
REMARK    3  A    between atoms: C_12  and  S_13
REMARK    4  A    between atoms: S_13  and  N_16
REMARK    5  A    between atoms: N_16  and  C_17
REMARK    6  A    between atoms: N_24  and  C_25
REMARK                            x       y       z     vdW  Elec       q    Type
REMARK                         _______ _______ _______ _____ _____    ______ ____
ROOT
ATOM      1  N   UNL     1      -2.318  13.515  22.531  0.00  0.00    +0.000 N 
ATOM      2  C   UNL     1      -2.021  14.082  23.760  0.00  0.00    +0.000 C 
ATOM      3  O   UNL     1      -0.889  14.467  24.057  0.00  0.00    +0.000 OA
ATOM      4  C   UNL     1      -3.208  14.314  24.686  0.00  0.00    +0.000 C 
ATOM      5  O   UNL     1      -4.390  13.565  24.497  0.00  0.00    +0.000 OA
ATOM      6  C   UNL     1      -4.655  13.279  23.186  0.00  0.00    +0.000 A 
ATOM      7  C   UNL     1      -5.993  12.987  22.904  0.00  0.00    +0.000 A 
ATOM      8  C   UNL     1      -6.380  12.652  21.610  0.00  0.00    +0.000 A 
ATOM      9  C   UNL     1      -5.412  12.588  20.606  0.00  0.00    +0.000 A 
ATOM     10  C   UNL     1      -4.062  12.860  20.886  0.00  0.00    +0.000 A 
ATOM     11  C   UNL     1      -3.668  13.216  22.187  0.00  0.00    +0.000 A 
ENDROOT
BRANCH   9  12
ATOM     12  S   UNL     1      -5.934  12.238  18.942  0.00  0.00    +0.000 S 
ATOM     13  O   UNL     1      -6.377  10.860  18.929  0.00  0.00    +0.000 OA
ATOM     14  O   UNL     1      -6.774  13.314  18.473  0.00  0.00    +0.000 OA
BRANCH  12  15
ATOM     15  N   UNL     1      -4.493  12.265  18.063  0.00  0.00    +0.000 NA
ATOM     16  H   UNL     1      -3.820  12.874  18.533  0.00  0.00    +0.000 HD
BRANCH  15  17
ATOM     17  C   UNL     1      -3.955  11.005  17.536  0.00  0.00    +0.000 C 
ATOM     18  C   UNL     1      -3.745  11.026  16.030  0.00  0.00    +0.000 C 
ATOM     19  C   UNL     1      -2.767   9.885  15.795  0.00  0.00    +0.000 C 
ATOM     20  C   UNL     1      -1.879   9.847  17.037  0.00  0.00    +0.000 C 
ATOM     21  C   UNL     1      -2.537  10.773  18.058  0.00  0.00    +0.000 C 
ENDBRANCH  15  17
ENDBRANCH  12  15
ENDBRANCH   9  12
BRANCH   1  22
ATOM     22  C   UNL     1      -1.216  13.292  21.600  0.00  0.00    +0.000 C 
BRANCH  22  24
ATOM     23  O   UNL     1      -1.205  11.051  22.423  0.00  0.00    +0.000 OA
ATOM     24  C   UNL     1      -0.699  11.856  21.638  0.00  0.00    +0.000 C 
ATOM     25  N   UNL     1       0.384  11.591  20.817  0.00  0.00    +0.000 N 
ATOM     26  H   UNL     1       0.912  12.388  20.460  0.00  0.00    +0.000 HD
BRANCH  25  27
ATOM     27  C   UNL     1       0.895  10.305  20.525  0.00  0.00    +0.000 A 
ATOM     28  C   UNL     1       1.079   9.323  21.504  0.00  0.00    +0.000 A 
ATOM     29  C   UNL     1       1.541   8.048  21.160  0.00  0.00    +0.000 A 
ATOM     30  C   UNL     1       1.822   7.745  19.830  0.00  0.00    +0.000 A 
ATOM     31 CL   UNL     1       2.368   6.166  19.418  0.00  0.00    +0.000 Cl
ATOM     32  C   UNL     1       1.651   8.706  18.840  0.00  0.00    +0.000 A 
ATOM     33  C   UNL     1       1.184   9.972  19.194  0.00  0.00    +0.000 A 
ATOM     34  F   UNL     1       1.017  10.889  18.228  0.00  0.00    +0.000 F 
ENDBRANCH  25  27
ENDBRANCH  22  24
ENDBRANCH   1  22
TORSDOF 6
ENDMDL
MODEL 3
REMARK VINA RESULT:      -8.3      1.105      1.348
REMARK  Name = 
REMARK  6 active torsions:
REMARK  status: ('A' for Active; 'I' for Inactive)
REMARK    1  A    between atoms: C_2  and  C_3
REMARK    2  A    between atoms: C_3  and  N_4
REMARK    3  A    between atoms: C_12  and  S_13
REMARK    4  A    between atoms: S_13  and  N_16
REMARK    5  A    between atoms: N_16  and  C_17
REMARK    6  A    between atoms: N_24  and  C_25
REMARK                            x       y       z     vdW  Elec       q    Type
REMARK                         _______ _______ _______ _____ _____    ______ ____
ROOT
ATOM      1  N   UNL     1       2.525   4.594  19.598  0.00  0.00    +0.000 N 
ATOM      2  C   UNL     1       1.337   3.911  19.808  0.00  0.00    +0.000 C 
ATOM      3  O   UNL     1       0.438   4.350  20.526  0.00  0.00    +0.000 OA
ATOM      4  C   UNL     1       1.157   2.633  19.000  0.00  0.00    +0.000 C 
ATOM      5  O   UNL     1       2.295   1.973  18.486  0.00  0.00    +0.000 OA
ATOM      6  C   UNL     1       3.301   2.821  18.114  0.00  0.00    +0.000 A 
ATOM      7  C   UNL     1       4.206   2.295  17.188  0.00  0.00    +0.000 A 
ATOM      8  C   UNL     1       5.288   3.055  16.755  0.00  0.00    +0.000 A 
ATOM      9  C   UNL     1       5.471   4.336  17.276  0.00  0.00    +0.000 A 
ATOM     10  C   UNL     1       4.577   4.865  18.223  0.00  0.00    +0.000 A 
ATOM     11  C   UNL     1       3.472   4.109  18.651  0.00  0.00    +0.000 A 
ENDROOT
BRANCH   9  12
ATOM     12  S   UNL     1       6.813   5.324  16.654  0.00  0.00    +0.000 S 
ATOM     13  O   UNL     1       6.691   6.626  17.274  0.00  0.00    +0.000 OA
ATOM     14  O   UNL     1       8.035   4.559  16.721  0.00  0.00    +0.000 OA
BRANCH  12  15
ATOM     15  N   UNL     1       6.415   5.551  15.029  0.00  0.00    +0.000 NA
ATOM     16  H   UNL     1       6.692   6.491  14.740  0.00  0.00    +0.000 HD
BRANCH  15  17
ATOM     17  C   UNL     1       6.699   4.477  14.069  0.00  0.00    +0.000 C 
ATOM     18  C   UNL     1       5.453   3.939  13.385  0.00  0.00    +0.000 C 
ATOM     19  C   UNL     1       6.002   3.247  12.146  0.00  0.00    +0.000 C 
ATOM     20  C   UNL     1       7.228   4.060  11.735  0.00  0.00    +0.000 C 
ATOM     21  C   UNL     1       7.508   5.020  12.890  0.00  0.00    +0.000 C 
ENDBRANCH  15  17
ENDBRANCH  12  15
ENDBRANCH   9  12
BRANCH   1  22
ATOM     22  C   UNL     1       2.735   5.836  20.335  0.00  0.00    +0.000 C 
BRANCH  22  24
ATOM     23  O   UNL     1       1.860   7.007  18.448  0.00  0.00    +0.000 OA
ATOM     24  C   UNL     1       2.072   7.036  19.662  0.00  0.00    +0.000 C 
ATOM     25  N   UNL     1       1.828   8.121  20.486  0.00  0.00    +0.000 N 
ATOM     26  H   UNL     1       2.324   8.158  21.378  0.00  0.00    +0.000 HD
BRANCH  25  27
ATOM     27  C   UNL     1       1.044   9.248  20.146  0.00  0.00    +0.000 A 
ATOM     28  C   UNL     1      -0.101   9.617  20.859  0.00  0.00    +0.000 A 
ATOM     29  C   UNL     1      -0.816  10.769  20.516  0.00  0.00    +0.000 A 
ATOM     30  C   UNL     1      -0.390  11.563  19.454  0.00  0.00    +0.000 A 
ATOM     31 CL   UNL     1      -1.267  12.989  19.056  0.00  0.00    +0.000 Cl
ATOM     32  C   UNL     1       0.742  11.214  18.727  0.00  0.00    +0.000 A 
ATOM     33  C   UNL     1       1.451  10.066  19.082  0.00  0.00    +0.000 A 
ATOM     34  F   UNL     1       2.547   9.744  18.377  0.00  0.00    +0.000 F 
ENDBRANCH  25  27
ENDBRANCH  22  24
ENDBRANCH   1  22
TORSDOF 6
ENDMDL
MODEL 4
REMARK VINA RESULT:      -8.1      7.364     10.973
REMARK  Name = 
REMARK  6 active torsions:
REMARK  status: ('A' for Active; 'I' for Inactive)
REMARK    1  A    between atoms: C_2  and  C_3
REMARK    2  A    between atoms: C_3  and  N_4
REMARK    3  A    between atoms: C_12  and  S_13
REMARK    4  A    between atoms: S_13  and  N_16
REMARK    5  A    between atoms: N_16  and  C_17
REMARK    6  A    between atoms: N_24  and  C_25
REMARK                            x       y       z     vdW  Elec       q    Type
REMARK                         _______ _______ _______ _____ _____    ______ ____
ROOT
ATOM      1  N   UNL     1      -1.399  14.566  22.379  0.00  0.00    +0.000 N 
ATOM      2  C   UNL     1      -0.980  15.126  23.575  0.00  0.00    +0.000 C 
ATOM      3  O   UNL     1       0.086  15.735  23.686  0.00  0.00    +0.000 OA
ATOM      4  C   UNL     1      -1.973  15.047  24.727  0.00  0.00    +0.000 C 
ATOM      5  O   UNL     1      -2.990  14.067  24.698  0.00  0.00    +0.000 OA
ATOM      6  C   UNL     1      -3.453  13.792  23.441  0.00  0.00    +0.000 A 
ATOM      7  C   UNL     1      -4.731  13.227  23.393  0.00  0.00    +0.000 A 
ATOM      8  C   UNL     1      -5.298  12.878  22.171  0.00  0.00    +0.000 A 
ATOM      9  C   UNL     1      -4.564  13.076  21.000  0.00  0.00    +0.000 A 
ATOM     10  C   UNL     1      -3.271  13.624  21.042  0.00  0.00    +0.000 A 
ATOM     11  C   UNL     1      -2.700  13.995  22.272  0.00  0.00    +0.000 A 
ENDROOT
BRANCH   9  12
ATOM     12  S   UNL     1      -5.332  12.699  19.441  0.00  0.00    +0.000 S 
ATOM     13  O   UNL     1      -6.001  11.427  19.606  0.00  0.00    +0.000 OA
ATOM     14  O   UNL     1      -6.027  13.870  18.961  0.00  0.00    +0.000 OA
BRANCH  12  15
ATOM     15  N   UNL     1      -4.023  12.400  18.418  0.00  0.00    +0.000 NA
ATOM     16  H   UNL     1      -3.166  12.747  18.854  0.00  0.00    +0.000 HD
BRANCH  15  17
ATOM     17  C   UNL     1      -3.920  11.095  17.754  0.00  0.00    +0.000 C 
ATOM     18  C   UNL     1      -4.157  11.165  16.254  0.00  0.00    +0.000 C 
ATOM     19  C   UNL     1      -3.533   9.877  15.739  0.00  0.00    +0.000 C 
ATOM     20  C   UNL     1      -2.347   9.601  16.661  0.00  0.00    +0.000 C 
ATOM     21  C   UNL     1      -2.485  10.572  17.832  0.00  0.00    +0.000 C 
ENDBRANCH  15  17
ENDBRANCH  12  15
ENDBRANCH   9  12
BRANCH   1  22
ATOM     22  C   UNL     1      -0.490  14.635  21.239  0.00  0.00    +0.000 C 
BRANCH  22  24
ATOM     23  O   UNL     1       1.503  13.356  21.540  0.00  0.00    +0.000 OA
ATOM     24  C   UNL     1       0.356  13.373  21.088  0.00  0.00    +0.000 C 
ATOM     25  N   UNL     1      -0.227  12.348  20.362  0.00  0.00    +0.000 N 
ATOM     26  H   UNL     1      -1.029  12.583  19.775  0.00  0.00    +0.000 HD
BRANCH  25  27
ATOM     27  C   UNL     1       0.267  11.027  20.268  0.00  0.00    +0.000 A 
ATOM     28  C   UNL     1       0.930  10.544  19.135  0.00  0.00    +0.000 A 
ATOM     29  C   UNL     1       1.446   9.244  19.109  0.00  0.00    +0.000 A 
ATOM     30  C   UNL     1       1.304   8.415  20.219  0.00  0.00    +0.000 A 
ATOM     31 CL   UNL     1       1.962   6.826  20.181  0.00  0.00    +0.000 Cl
ATOM     32  C   UNL     1       0.644   8.872  21.356  0.00  0.00    +0.000 A 
ATOM     33  C   UNL     1       0.139  10.172  21.373  0.00  0.00    +0.000 A 
ATOM     34  F   UNL     1      -0.488  10.603  22.479  0.00  0.00    +0.000 F 
ENDBRANCH  25  27
ENDBRANCH  22  24
ENDBRANCH   1  22
TORSDOF 6
ENDMDL
MODEL 5
REMARK VINA RESULT:      -8.0      2.287      3.049
REMARK  Name = 
REMARK  6 active torsions:
REMARK  status: ('A' for Active; 'I' for Inactive)
REMARK    1  A    between atoms: C_2  and  C_3
REMARK    2  A    between atoms: C_3  and  N_4
REMARK    3  A    between atoms: C_12  and  S_13
REMARK    4  A    between atoms: S_13  and  N_16
REMARK    5  A    between atoms: N_16  and  C_17
REMARK    6  A    between atoms: N_24  and  C_25
REMARK                            x       y       z     vdW  Elec       q    Type
REMARK                         _______ _______ _______ _____ _____    ______ ____
ROOT
ATOM      1  N   UNL     1       2.510   4.628  19.518  0.00  0.00    +0.000 N 
ATOM      2  C   UNL     1       1.285   3.997  19.663  0.00  0.00    +0.000 C 
ATOM      3  O   UNL     1       0.437   4.373  20.474  0.00  0.00    +0.000 OA
ATOM      4  C   UNL     1       0.996   2.876  18.673  0.00  0.00    +0.000 C 
ATOM      5  O   UNL     1       2.072   2.235  18.020  0.00  0.00    +0.000 OA
ATOM      6  C   UNL     1       3.123   3.067  17.748  0.00  0.00    +0.000 A 
ATOM      7  C   UNL     1       3.965   2.637  16.717  0.00  0.00    +0.000 A 
ATOM      8  C   UNL     1       5.085   3.386  16.368  0.00  0.00    +0.000 A 
ATOM      9  C   UNL     1       5.368   4.555  17.076  0.00  0.00    +0.000 A 
ATOM     10  C   UNL     1       4.538   4.983  18.127  0.00  0.00    +0.000 A 
ATOM     11  C   UNL     1       3.396   4.240  18.472  0.00  0.00    +0.000 A 
ENDROOT
BRANCH   9  12
ATOM     12  S   UNL     1       6.757   5.542  16.566  0.00  0.00    +0.000 S 
ATOM     13  O   UNL     1       7.946   4.828  16.979  0.00  0.00    +0.000 OA
ATOM     14  O   UNL     1       6.559   5.969  15.202  0.00  0.00    +0.000 OA
BRANCH  12  15
ATOM     15  N   UNL     1       6.665   6.899  17.567  0.00  0.00    +0.000 NA
ATOM     16  H   UNL     1       6.345   6.614  18.495  0.00  0.00    +0.000 HD
BRANCH  15  17
ATOM     17  C   UNL     1       7.756   7.880  17.540  0.00  0.00    +0.000 C 
ATOM     18  C   UNL     1       7.270   9.315  17.415  0.00  0.00    +0.000 C 
ATOM     19  C   UNL     1       8.459  10.134  17.895  0.00  0.00    +0.000 C 
ATOM     20  C   UNL     1       9.132   9.282  18.970  0.00  0.00    +0.000 C 
ATOM     21  C   UNL     1       8.485   7.901  18.885  0.00  0.00    +0.000 C 
ENDBRANCH  15  17
ENDBRANCH  12  15
ENDBRANCH   9  12
BRANCH   1  22
ATOM     22  C   UNL     1       2.824   5.722  20.431  0.00  0.00    +0.000 C 
BRANCH  22  24
ATOM     23  O   UNL     1       2.213   7.357  18.803  0.00  0.00    +0.000 OA
ATOM     24  C   UNL     1       2.201   7.046  19.996  0.00  0.00    +0.000 C 
ATOM     25  N   UNL     1       1.730   7.848  21.021  0.00  0.00    +0.000 N 
ATOM     26  H   UNL     1       2.053   7.643  21.968  0.00  0.00    +0.000 HD
BRANCH  25  27
ATOM     27  C   UNL     1       0.933   9.005  20.855  0.00  0.00    +0.000 A 
ATOM     28  C   UNL     1       0.674   9.574  19.604  0.00  0.00    +0.000 A 
ATOM     29  C   UNL     1      -0.162  10.690  19.486  0.00  0.00    +0.000 A 
ATOM     30  C   UNL     1      -0.747  11.245  20.621  0.00  0.00    +0.000 A 
ATOM     31 CL   UNL     1      -1.790  12.604  20.459  0.00  0.00    +0.000 Cl
ATOM     32  C   UNL     1      -0.500  10.700  21.876  0.00  0.00    +0.000 A 
ATOM     33  C   UNL     1       0.330   9.584  21.982  0.00  0.00    +0.000 A 
ATOM     34  F   UNL     1       0.554   9.063  23.198  0.00  0.00    +0.000 F 
ENDBRANCH  25  27
ENDBRANCH  22  24
ENDBRANCH   1  22
TORSDOF 6
ENDMDL
MODEL 6
REMARK VINA RESULT:      -7.8      2.300      3.029
REMARK  Name = 
REMARK  6 active torsions:
REMARK  status: ('A' for Active; 'I' for Inactive)
REMARK    1  A    between atoms: C_2  and  C_3
REMARK    2  A    between atoms: C_3  and  N_4
REMARK    3  A    between atoms: C_12  and  S_13
REMARK    4  A    between atoms: S_13  and  N_16
REMARK    5  A    between atoms: N_16  and  C_17
REMARK    6  A    between atoms: N_24  and  C_25
REMARK                            x       y       z     vdW  Elec       q    Type
REMARK                         _______ _______ _______ _____ _____    ______ ____
ROOT
ATOM      1  N   UNL     1       2.621   6.111  19.435  0.00  0.00    +0.000 N 
ATOM      2  C   UNL     1       1.650   5.688  20.328  0.00  0.00    +0.000 C 
ATOM      3  O   UNL     1       1.006   6.471  21.029  0.00  0.00    +0.000 OA
ATOM      4  C   UNL     1       1.338   4.198  20.310  0.00  0.00    +0.000 C 
ATOM      5  O   UNL     1       2.296   3.296  19.795  0.00  0.00    +0.000 OA
ATOM      6  C   UNL     1       3.026   3.804  18.756  0.00  0.00    +0.000 A 
ATOM      7  C   UNL     1       3.613   2.847  17.923  0.00  0.00    +0.000 A 
ATOM      8  C   UNL     1       4.403   3.244  16.848  0.00  0.00    +0.000 A 
ATOM      9  C   UNL     1       4.620   4.605  16.630  0.00  0.00    +0.000 A 
ATOM     10  C   UNL     1       4.050   5.572  17.474  0.00  0.00    +0.000 A 
ATOM     11  C   UNL     1       3.237   5.179  18.551  0.00  0.00    +0.000 A 
ENDROOT
BRANCH   9  12
ATOM     12  S   UNL     1       5.566   5.097  15.206  0.00  0.00    +0.000 S 
ATOM     13  O   UNL     1       5.173   4.220  14.124  0.00  0.00    +0.000 OA
ATOM     14  O   UNL     1       5.517   6.535  15.079  0.00  0.00    +0.000 OA
BRANCH  12  15
ATOM     15  N   UNL     1       7.145   4.652  15.608  0.00  0.00    +0.000 NA
ATOM     16  H   UNL     1       7.689   4.525  14.752  0.00  0.00    +0.000 HD
BRANCH  15  17
ATOM     17  C   UNL     1       7.827   5.354  16.701  0.00  0.00    +0.000 C 
ATOM     18  C   UNL     1       7.289   6.755  16.943  0.00  0.00    +0.000 C 
ATOM     19  C   UNL     1       7.757   7.075  18.354  0.00  0.00    +0.000 C 
ATOM     20  C   UNL     1       7.747   5.741  19.098  0.00  0.00    +0.000 C 
ATOM     21  C   UNL     1       7.542   4.663  18.035  0.00  0.00    +0.000 C 
ENDBRANCH  15  17
ENDBRANCH  12  15
ENDBRANCH   9  12
BRANCH   1  22
ATOM     22  C   UNL     1       2.941   7.535  19.401  0.00  0.00    +0.000 C 
BRANCH  22  24
ATOM     23  O   UNL     1       1.716   8.274  17.492  0.00  0.00    +0.000 OA
ATOM     24  C   UNL     1       1.859   8.363  18.713  0.00  0.00    +0.000 C 
ATOM     25  N   UNL     1       1.159   9.230  19.534  0.00  0.00    +0.000 N 
ATOM     26  H   UNL     1       1.567   9.451  20.444  0.00  0.00    +0.000 HD
BRANCH  25  27
ATOM     27  C   UNL     1      -0.013   9.934  19.172  0.00  0.00    +0.000 A 
ATOM     28  C   UNL     1      -0.593   9.838  17.903  0.00  0.00    +0.000 A 
ATOM     29  C   UNL     1      -1.782  10.514  17.608  0.00  0.00    +0.000 A 
ATOM     30  C   UNL     1      -2.401  11.292  18.583  0.00  0.00    +0.000 A 
ATOM     31 CL   UNL     1      -3.874  12.101  18.213  0.00  0.00    +0.000 Cl
ATOM     32  C   UNL     1      -1.841  11.406  19.851  0.00  0.00    +0.000 A 
ATOM     33  C   UNL     1      -0.658  10.723  20.135  0.00  0.00    +0.000 A 
ATOM     34  F   UNL     1      -0.132  10.835  21.365  0.00  0.00    +0.000 F 
ENDBRANCH  25  27
ENDBRANCH  22  24
ENDBRANCH   1  22
TORSDOF 6
ENDMDL
MODEL 7
REMARK VINA RESULT:      -7.8      1.594      1.918
REMARK  Name = 
REMARK  6 active torsions:
REMARK  status: ('A' for Active; 'I' for Inactive)
REMARK    1  A    between atoms: C_2  and  C_3
REMARK    2  A    between atoms: C_3  and  N_4
REMARK    3  A    between atoms: C_12  and  S_13
REMARK    4  A    between atoms: S_13  and  N_16
REMARK    5  A    between atoms: N_16  and  C_17
REMARK    6  A    between atoms: N_24  and  C_25
REMARK                            x       y       z     vdW  Elec       q    Type
REMARK                         _______ _______ _______ _____ _____    ______ ____
ROOT
ATOM      1  N   UNL     1       2.502   4.029  19.741  0.00  0.00    +0.000 N 
ATOM      2  C   UNL     1       1.352   3.266  19.865  0.00  0.00    +0.000 C 
ATOM      3  O   UNL     1       0.504   3.479  20.733  0.00  0.00    +0.000 OA
ATOM      4  C   UNL     1       1.136   2.215  18.784  0.00  0.00    +0.000 C 
ATOM      5  O   UNL     1       2.242   1.749  18.041  0.00  0.00    +0.000 OA
ATOM      6  C   UNL     1       3.194   2.704  17.815  0.00  0.00    +0.000 A 
ATOM      7  C   UNL     1       4.032   2.457  16.723  0.00  0.00    +0.000 A 
ATOM      8  C   UNL     1       5.057   3.345  16.411  0.00  0.00    +0.000 A 
ATOM      9  C   UNL     1       5.252   4.468  17.215  0.00  0.00    +0.000 A 
ATOM     10  C   UNL     1       4.427   4.713  18.326  0.00  0.00    +0.000 A 
ATOM     11  C   UNL     1       3.379   3.830  18.636  0.00  0.00    +0.000 A 
ENDROOT
BRANCH   9  12
ATOM     12  S   UNL     1       6.515   5.634  16.756  0.00  0.00    +0.000 S 
ATOM     13  O   UNL     1       6.137   6.903  17.339  0.00  0.00    +0.000 OA
ATOM     14  O   UNL     1       7.811   5.043  16.989  0.00  0.00    +0.000 OA
BRANCH  12  15
ATOM     15  N   UNL     1       6.301   5.811  15.091  0.00  0.00    +0.000 NA
ATOM     16  H   UNL     1       6.593   6.749  14.809  0.00  0.00    +0.000 HD
BRANCH  15  17
ATOM     17  C   UNL     1       6.712   4.719  14.199  0.00  0.00    +0.000 C 
ATOM     18  C   UNL     1       5.551   4.086  13.451  0.00  0.00    +0.000 C 
ATOM     19  C   UNL     1       6.226   3.380  12.285  0.00  0.00    +0.000 C 
ATOM     20  C   UNL     1       7.433   4.245  11.928  0.00  0.00    +0.000 C 
ATOM     21  C   UNL     1       7.576   5.262  13.059  0.00  0.00    +0.000 C 
ENDBRANCH  15  17
ENDBRANCH  12  15
ENDBRANCH   9  12
BRANCH   1  22
ATOM     22  C   UNL     1       2.743   5.064  20.742  0.00  0.00    +0.000 C 
BRANCH  22  24
ATOM     23  O   UNL     1       0.807   6.403  21.135  0.00  0.00    +0.000 OA
ATOM     24  C   UNL     1       1.874   6.301  20.527  0.00  0.00    +0.000 C 
ATOM     25  N   UNL     1       2.336   7.196  19.577  0.00  0.00    +0.000 N 
ATOM     26  H   UNL     1       3.044   6.864  18.920  0.00  0.00    +0.000 HD
BRANCH  25  27
ATOM     27  C   UNL     1       1.823   8.496  19.358  0.00  0.00    +0.000 A 
ATOM     28  C   UNL     1       1.166   9.228  20.352  0.00  0.00    +0.000 A 
ATOM     29  C   UNL     1       0.720  10.530  20.103  0.00  0.00    +0.000 A 
ATOM     30  C   UNL     1       0.930  11.112  18.856  0.00  0.00    +0.000 A 
ATOM     31 CL   UNL     1       0.397  12.723  18.570  0.00  0.00    +0.000 Cl
ATOM     32  C   UNL     1       1.577  10.402  17.850  0.00  0.00    +0.000 A 
ATOM     33  C   UNL     1       2.023   9.106  18.111  0.00  0.00    +0.000 A 
ATOM     34  F   UNL     1       2.652   8.434  17.135  0.00  0.00    +0.000 F 
ENDBRANCH  25  27
ENDBRANCH  22  24
ENDBRANCH   1  22
TORSDOF 6
ENDMDL
MODEL 8
REMARK VINA RESULT:      -7.7      6.425     11.548
REMARK  Name = 
REMARK  6 active torsions:
REMARK  status: ('A' for Active; 'I' for Inactive)
REMARK    1  A    between atoms: C_2  and  C_3
REMARK    2  A    between atoms: C_3  and  N_4
REMARK    3  A    between atoms: C_12  and  S_13
REMARK    4  A    between atoms: S_13  and  N_16
REMARK    5  A    between atoms: N_16  and  C_17
REMARK    6  A    between atoms: N_24  and  C_25
REMARK                            x       y       z     vdW  Elec       q    Type
REMARK                         _______ _______ _______ _____ _____    ______ ____
ROOT
ATOM      1  N   UNL     1      -0.282  13.462  19.898  0.00  0.00    +0.000 N 
ATOM      2  C   UNL     1       0.990  13.975  19.707  0.00  0.00    +0.000 C 
ATOM      3  O   UNL     1       1.607  13.842  18.649  0.00  0.00    +0.000 OA
ATOM      4  C   UNL     1       1.540  14.821  20.847  0.00  0.00    +0.000 C 
ATOM      5  O   UNL     1       1.006  14.666  22.145  0.00  0.00    +0.000 OA
ATOM      6  C   UNL     1      -0.331  14.378  22.157  0.00  0.00    +0.000 A 
ATOM      7  C   UNL     1      -0.991  14.686  23.351  0.00  0.00    +0.000 A 
ATOM      8  C   UNL     1      -2.348  14.412  23.493  0.00  0.00    +0.000 A 
ATOM      9  C   UNL     1      -3.032  13.803  22.440  0.00  0.00    +0.000 A 
ATOM     10  C   UNL     1      -2.371  13.471  21.245  0.00  0.00    +0.000 A 
ATOM     11  C   UNL     1      -1.005  13.762  21.089  0.00  0.00    +0.000 A 
ENDROOT
BRANCH   9  12
ATOM     12  S   UNL     1      -4.782  13.532  22.607  0.00  0.00    +0.000 S 
ATOM     13  O   UNL     1      -5.005  13.088  23.966  0.00  0.00    +0.000 OA
ATOM     14  O   UNL     1      -5.491  14.657  22.046  0.00  0.00    +0.000 OA
BRANCH  12  15
ATOM     15  N   UNL     1      -5.067  12.183  21.631  0.00  0.00    +0.000 NA
ATOM     16  H   UNL     1      -5.377  11.403  22.214  0.00  0.00    +0.000 HD
BRANCH  15  17
ATOM     17  C   UNL     1      -5.785  12.360  20.363  0.00  0.00    +0.000 C 
ATOM     18  C   UNL     1      -4.884  12.251  19.143  0.00  0.00    +0.000 C 
ATOM     19  C   UNL     1      -5.859  11.969  18.010  0.00  0.00    +0.000 C 
ATOM     20  C   UNL     1      -6.982  11.144  18.633  0.00  0.00    +0.000 C 
ATOM     21  C   UNL     1      -6.767  11.208  20.145  0.00  0.00    +0.000 C 
ENDBRANCH  15  17
ENDBRANCH  12  15
ENDBRANCH   9  12
BRANCH   1  22
ATOM     22  C   UNL     1      -0.862  12.660  18.824  0.00  0.00    +0.000 C 
BRANCH  22  24
ATOM     23  O   UNL     1      -1.473  10.357  18.704  0.00  0.00    +0.000 OA
ATOM     24  C   UNL     1      -0.592  11.167  18.996  0.00  0.00    +0.000 C 
ATOM     25  N   UNL     1       0.630  10.843  19.559  0.00  0.00    +0.000 N 
ATOM     26  H   UNL     1       1.136  11.584  20.048  0.00  0.00    +0.000 HD
BRANCH  25  27
ATOM     27  C   UNL     1       1.184   9.543  19.621  0.00  0.00    +0.000 A 
ATOM     28  C   UNL     1       1.077   8.728  20.753  0.00  0.00    +0.000 A 
ATOM     29  C   UNL     1       1.598   7.429  20.749  0.00  0.00    +0.000 A 
ATOM     30  C   UNL     1       2.231   6.936  19.610  0.00  0.00    +0.000 A 
ATOM     31 CL   UNL     1       2.848   5.330  19.612  0.00  0.00    +0.000 Cl
ATOM     32  C   UNL     1       2.353   7.730  18.475  0.00  0.00    +0.000 A 
ATOM     33  C   UNL     1       1.825   9.021  18.489  0.00  0.00    +0.000 A 
ATOM     34  F   UNL     1       1.943   9.775  17.384  0.00  0.00    +0.000 F 
ENDBRANCH  25  27
ENDBRANCH  22  24
ENDBRANCH   1  22
TORSDOF 6
ENDMDL
MODEL 9
REMARK VINA RESULT:      -7.7      4.386      7.472
REMARK  Name = 
REMARK  6 active torsions:
REMARK  status: ('A' for Active; 'I' for Inactive)
REMARK    1  A    between atoms: C_2  and  C_3
REMARK    2  A    between atoms: C_3  and  N_4
REMARK    3  A    between atoms: C_12  and  S_13
REMARK    4  A    between atoms: S_13  and  N_16
REMARK    5  A    between atoms: N_16  and  C_17
REMARK    6  A    between atoms: N_24  and  C_25
REMARK                            x       y       z     vdW  Elec       q    Type
REMARK                         _______ _______ _______ _____ _____    ______ ____
ROOT
ATOM      1  N   UNL     1      -0.435  11.552  20.157  0.00  0.00    +0.000 N 
ATOM      2  C   UNL     1      -1.203  12.112  21.164  0.00  0.00    +0.000 C 
ATOM      3  O   UNL     1      -1.971  13.056  20.967  0.00  0.00    +0.000 OA
ATOM      4  C   UNL     1      -1.134  11.414  22.516  0.00  0.00    +0.000 C 
ATOM      5  O   UNL     1      -0.020  10.599  22.817  0.00  0.00    +0.000 OA
ATOM      6  C   UNL     1       0.484   9.935  21.734  0.00  0.00    +0.000 A 
ATOM      7  C   UNL     1       1.231   8.792  22.036  0.00  0.00    +0.000 A 
ATOM      8  C   UNL     1       1.818   8.049  21.017  0.00  0.00    +0.000 A 
ATOM      9  C   UNL     1       1.672   8.473  19.695  0.00  0.00    +0.000 A 
ATOM     10  C   UNL     1       0.940   9.631  19.385  0.00  0.00    +0.000 A 
ATOM     11  C   UNL     1       0.330  10.376  20.408  0.00  0.00    +0.000 A 
ENDROOT
BRANCH   9  12
ATOM     12  S   UNL     1       2.361   7.468  18.399  0.00  0.00    +0.000 S 
ATOM     13  O   UNL     1       1.279   7.171  17.486  0.00  0.00    +0.000 OA
ATOM     14  O   UNL     1       3.599   8.060  17.949  0.00  0.00    +0.000 OA
BRANCH  12  15
ATOM     15  N   UNL     1       2.719   6.012  19.177  0.00  0.00    +0.000 NA
ATOM     16  H   UNL     1       3.257   6.204  20.024  0.00  0.00    +0.000 HD
BRANCH  15  17
ATOM     17  C   UNL     1       1.670   4.994  19.302  0.00  0.00    +0.000 C 
ATOM     18  C   UNL     1       1.860   3.818  18.357  0.00  0.00    +0.000 C 
ATOM     19  C   UNL     1       1.007   2.723  18.981  0.00  0.00    +0.000 C 
ATOM     20  C   UNL     1       1.083   2.957  20.489  0.00  0.00    +0.000 C 
ATOM     21  C   UNL     1       1.742   4.323  20.674  0.00  0.00    +0.000 C 
ENDBRANCH  15  17
ENDBRANCH  12  15
ENDBRANCH   9  12
BRANCH   1  22
ATOM     22  C   UNL     1      -0.484  12.174  18.837  0.00  0.00    +0.000 C 
BRANCH  22  24
ATOM     23  O   UNL     1      -0.117  14.525  18.661  0.00  0.00    +0.000 OA
ATOM     24  C   UNL     1       0.405  13.412  18.739  0.00  0.00    +0.000 C 
ATOM     25  N   UNL     1       1.764  13.164  18.663  0.00  0.00    +0.000 N 
ATOM     26  H   UNL     1       2.059  12.217  18.418  0.00  0.00    +0.000 HD
BRANCH  25  27
ATOM     27  C   UNL     1       2.782  14.139  18.778  0.00  0.00    +0.000 A 
ATOM     28  C   UNL     1       3.183  14.945  17.707  0.00  0.00    +0.000 A 
ATOM     29  C   UNL     1       4.159  15.932  17.882  0.00  0.00    +0.000 A 
ATOM     30  C   UNL     1       4.743  16.121  19.132  0.00  0.00    +0.000 A 
ATOM     31 CL   UNL     1       5.927  17.352  19.338  0.00  0.00    +0.000 Cl
ATOM     32  C   UNL     1       4.364  15.328  20.210  0.00  0.00    +0.000 A 
ATOM     33  C   UNL     1       3.385  14.352  20.026  0.00  0.00    +0.000 A 
ATOM     34  F   UNL     1       3.023  13.599  21.077  0.00  0.00    +0.000 F 
ENDBRANCH  25  27
ENDBRANCH  22  24
ENDBRANCH   1  22
TORSDOF 6
ENDMDL
