MODEL 1
REMARK VINA RESULT:      -8.5      0.000      0.000
REMARK  Name = 
REMARK  9 active torsions:
REMARK  status: ('A' for Active; 'I' for Inactive)
REMARK    1  A    between atoms: C_1  and  C_2
REMARK    2  A    between atoms: C_2  and  C_3
REMARK    3  A    between atoms: C_6  and  C_8
REMARK    4  A    between atoms: C_8  and  C_9
REMARK    5  A    between atoms: C_14  and  N_15
REMARK    6  A    between atoms: N_15  and  C_16
REMARK    7  A    between atoms: C_17  and  C_18
REMARK    8  A    between atoms: C_25  and  C_26
REMARK    9  A    between atoms: N_30  and  C_31
REMARK                            x       y       z     vdW  Elec       q    Type
REMARK                         _______ _______ _______ _____ _____    ______ ____
ROOT
ATOM      1  C   UNL     1       3.932   4.101  18.493  0.00  0.00    +0.000 A 
ATOM      2  C   UNL     1       3.849   3.044  19.368  0.00  0.00    +0.000 A 
ATOM      3  C   UNL     1       2.856   3.184  20.518  0.00  0.00    +0.000 A 
ATOM      4  N   UNL     1       2.176   4.213  20.884  0.00  0.00    +0.000 NA
ATOM      5  N   UNL     1       2.406   5.251  20.082  0.00  0.00    +0.000 N 
ATOM      6  C   UNL     1       1.863   6.474  20.296  0.00  0.00    +0.000 A 
ATOM      7  C   UNL     1       2.261   7.226  19.213  0.00  0.00    +0.000 A 
ATOM      8  N   UNL     1       3.070   6.488  18.367  0.00  0.00    +0.000 NA
ATOM      9  C   UNL     1       3.159   5.283  18.925  0.00  0.00    +0.000 A 
ENDROOT
BRANCH   7  10
ATOM     10  C   UNL     1       1.851   8.630  19.002  0.00  0.00    +0.000 A 
ATOM     11  C   UNL     1       1.963   9.387  17.854  0.00  0.00    +0.000 A 
ATOM     12  C   UNL     1       1.436  10.647  18.210  0.00  0.00    +0.000 A 
ATOM     13  N   UNL     1       1.025  10.693  19.477  0.00  0.00    +0.000 NA
ATOM     14  N   UNL     1       1.292   9.453  19.938  0.00  0.00    +0.000 N 
ATOM     15  C   UNL     1       1.023   9.124  21.315  0.00  0.00    +0.000 C 
ENDBRANCH   7  10
BRANCH   2  16
ATOM     16  C   UNL     1       4.559   1.729  19.567  0.00  0.00    +0.000 C 
ATOM     17  N   UNL     1       4.358   0.673  18.760  0.00  0.00    +0.000 N 
ATOM     18  O   UNL     1       5.246   1.544  20.573  0.00  0.00    +0.000 OA
ATOM     19  H   UNL     1       3.682   0.633  18.021  0.00  0.00    +0.000 HD
ATOM     20  H   UNL     1       4.716  -0.196  19.146  0.00  0.00    +0.000 HD
ENDBRANCH   2  16
BRANCH   1  21
ATOM     21  N   UNL     1       4.662   4.392  17.292  0.00  0.00    +0.000 N 
ATOM     22  H   UNL     1       4.327   5.292  16.922  0.00  0.00    +0.000 HD
BRANCH  21  29
ATOM     23  C   UNL     1       6.942   4.690  16.221  0.00  0.00    +0.000 C 
ATOM     24  C   UNL     1       6.910   5.089  14.747  0.00  0.00    +0.000 C 
ATOM     25  N   UNL     1       6.283   4.001  14.062  0.00  0.00    +0.000 N 
ATOM     26  C   UNL     1       6.570   3.876  12.701  0.00  0.00    +0.000 C 
ATOM     27  O   UNL     1       7.390   4.621  12.146  0.00  0.00    +0.000 OA
ATOM     28  C   UNL     1       5.257   3.424  14.949  0.00  0.00    +0.000 C 
ATOM     29  C   UNL     1       5.708   3.780  16.454  0.00  0.00    +0.000 C 
BRANCH  26  30
ATOM     30  C   UNL     1       5.924   2.833  11.861  0.00  0.00    +0.000 C 
ATOM     31  C   UNL     1       6.265   1.368  12.033  0.00  0.00    +0.000 C 
ATOM     32  C   UNL     1       6.848   2.097  10.866  0.00  0.00    +0.000 C 
BRANCH  30  33
ATOM     33  C   UNL     1       4.636   3.205  11.339  0.00  0.00    +0.000 C 
ATOM     34  N   UNL     1       3.594   3.482  10.908  0.00  0.00    +0.000 NA
ENDBRANCH  30  33
ENDBRANCH  26  30
BRANCH  23  36
ATOM     35  C   UNL     1       7.693   5.666  18.431  0.00  0.00    +0.000 C 
ATOM     36  C   UNL     1       7.062   5.948  17.072  0.00  0.00    +0.000 C 
ENDBRANCH  23  36
ENDBRANCH  21  29
ENDBRANCH   1  21
TORSDOF 7
ENDMDL
MODEL 2
REMARK VINA RESULT:      -8.1      0.769      1.132
REMARK  Name = 
REMARK  9 active torsions:
REMARK  status: ('A' for Active; 'I' for Inactive)
REMARK    1  A    between atoms: C_1  and  C_2
REMARK    2  A    between atoms: C_2  and  C_3
REMARK    3  A    between atoms: C_6  and  C_8
REMARK    4  A    between atoms: C_8  and  C_9
REMARK    5  A    between atoms: C_14  and  N_15
REMARK    6  A    between atoms: N_15  and  C_16
REMARK    7  A    between atoms: C_17  and  C_18
REMARK    8  A    between atoms: C_25  and  C_26
REMARK    9  A    between atoms: N_30  and  C_31
REMARK                            x       y       z     vdW  Elec       q    Type
REMARK                         _______ _______ _______ _____ _____    ______ ____
ROOT
ATOM      1  C   UNL     1       3.903   4.130  18.523  0.00  0.00    +0.000 A 
ATOM      2  C   UNL     1       3.825   3.091  19.420  0.00  0.00    +0.000 A 
ATOM      3  C   UNL     1       2.851   3.261  20.582  0.00  0.00    +0.000 A 
ATOM      4  N   UNL     1       2.184   4.301  20.937  0.00  0.00    +0.000 NA
ATOM      5  N   UNL     1       2.409   5.322  20.112  0.00  0.00    +0.000 N 
ATOM      6  C   UNL     1       1.877   6.553  20.310  0.00  0.00    +0.000 A 
ATOM      7  C   UNL     1       2.264   7.281  19.207  0.00  0.00    +0.000 A 
ATOM      8  N   UNL     1       3.056   6.520  18.364  0.00  0.00    +0.000 NA
ATOM      9  C   UNL     1       3.144   5.326  18.944  0.00  0.00    +0.000 A 
ENDROOT
BRANCH   7  10
ATOM     10  C   UNL     1       1.861   8.684  18.974  0.00  0.00    +0.000 A 
ATOM     11  C   UNL     1       2.042   9.445  17.838  0.00  0.00    +0.000 A 
ATOM     12  C   UNL     1       1.487  10.701  18.164  0.00  0.00    +0.000 A 
ATOM     13  N   UNL     1       0.995  10.740  19.403  0.00  0.00    +0.000 NA
ATOM     14  N   UNL     1       1.239   9.500  19.875  0.00  0.00    +0.000 N 
ATOM     15  C   UNL     1       0.884   9.164  21.231  0.00  0.00    +0.000 C 
ENDBRANCH   7  10
BRANCH   2  16
ATOM     16  C   UNL     1       4.529   1.776  19.634  0.00  0.00    +0.000 C 
ATOM     17  N   UNL     1       4.369   0.730  18.805  0.00  0.00    +0.000 N 
ATOM     18  O   UNL     1       5.170   1.578  20.667  0.00  0.00    +0.000 OA
ATOM     19  H   UNL     1       3.727   0.698  18.035  0.00  0.00    +0.000 HD
ATOM     20  H   UNL     1       4.710  -0.144  19.196  0.00  0.00    +0.000 HD
ENDBRANCH   2  16
BRANCH   1  21
ATOM     21  N   UNL     1       4.617   4.393  17.306  0.00  0.00    +0.000 N 
ATOM     22  H   UNL     1       4.404   5.355  17.009  0.00  0.00    +0.000 HD
BRANCH  21  29
ATOM     23  C   UNL     1       6.885   4.408  16.170  0.00  0.00    +0.000 C 
ATOM     24  C   UNL     1       6.879   4.931  14.735  0.00  0.00    +0.000 C 
ATOM     25  N   UNL     1       6.063   4.023  13.992  0.00  0.00    +0.000 N 
ATOM     26  C   UNL     1       6.288   3.971  12.614  0.00  0.00    +0.000 C 
ATOM     27  O   UNL     1       7.204   4.617  12.088  0.00  0.00    +0.000 OA
ATOM     28  C   UNL     1       4.980   3.546  14.871  0.00  0.00    +0.000 C 
ATOM     29  C   UNL     1       5.524   3.694  16.380  0.00  0.00    +0.000 C 
BRANCH  26  30
ATOM     30  C   UNL     1       5.456   3.122  11.720  0.00  0.00    +0.000 C 
ATOM     31  C   UNL     1       4.493   3.741  10.729  0.00  0.00    +0.000 C 
ATOM     32  C   UNL     1       3.934   3.153  11.984  0.00  0.00    +0.000 C 
BRANCH  30  33
ATOM     33  C   UNL     1       6.005   1.819  11.457  0.00  0.00    +0.000 C 
ATOM     34  N   UNL     1       6.458   0.776  11.223  0.00  0.00    +0.000 NA
ENDBRANCH  30  33
ENDBRANCH  26  30
BRANCH  23  36
ATOM     35  C   UNL     1       7.822   5.054  18.430  0.00  0.00    +0.000 C 
ATOM     36  C   UNL     1       7.234   5.552  17.113  0.00  0.00    +0.000 C 
ENDBRANCH  23  36
ENDBRANCH  21  29
ENDBRANCH   1  21
TORSDOF 7
ENDMDL
MODEL 3
REMARK VINA RESULT:      -7.9      1.204      1.735
REMARK  Name = 
REMARK  9 active torsions:
REMARK  status: ('A' for Active; 'I' for Inactive)
REMARK    1  A    between atoms: C_1  and  C_2
REMARK    2  A    between atoms: C_2  and  C_3
REMARK    3  A    between atoms: C_6  and  C_8
REMARK    4  A    between atoms: C_8  and  C_9
REMARK    5  A    between atoms: C_14  and  N_15
REMARK    6  A    between atoms: N_15  and  C_16
REMARK    7  A    between atoms: C_17  and  C_18
REMARK    8  A    between atoms: C_25  and  C_26
REMARK    9  A    between atoms: N_30  and  C_31
REMARK                            x       y       z     vdW  Elec       q    Type
REMARK                         _______ _______ _______ _____ _____    ______ ____
ROOT
ATOM      1  C   UNL     1       4.052   4.007  19.216  0.00  0.00    +0.000 A 
ATOM      2  C   UNL     1       3.940   2.848  19.947  0.00  0.00    +0.000 A 
ATOM      3  C   UNL     1       2.805   2.788  20.965  0.00  0.00    +0.000 A 
ATOM      4  N   UNL     1       2.010   3.722  21.352  0.00  0.00    +0.000 NA
ATOM      5  N   UNL     1       2.259   4.861  20.710  0.00  0.00    +0.000 N 
ATOM      6  C   UNL     1       1.603   6.014  20.987  0.00  0.00    +0.000 A 
ATOM      7  C   UNL     1       2.074   6.915  20.058  0.00  0.00    +0.000 A 
ATOM      8  N   UNL     1       3.035   6.335  19.248  0.00  0.00    +0.000 NA
ATOM      9  C   UNL     1       3.144   5.079  19.673  0.00  0.00    +0.000 A 
ENDROOT
BRANCH   7  10
ATOM     10  C   UNL     1       1.589   8.308  19.955  0.00  0.00    +0.000 A 
ATOM     11  C   UNL     1       0.979   9.071  20.929  0.00  0.00    +0.000 A 
ATOM     12  C   UNL     1       0.713  10.304  20.295  0.00  0.00    +0.000 A 
ATOM     13  N   UNL     1       1.114  10.325  19.024  0.00  0.00    +0.000 NA
ATOM     14  N   UNL     1       1.641   9.096  18.841  0.00  0.00    +0.000 N 
ATOM     15  C   UNL     1       2.151   8.717  17.547  0.00  0.00    +0.000 C 
ENDBRANCH   7  10
BRANCH   2  16
ATOM     16  C   UNL     1       4.717   1.564  20.088  0.00  0.00    +0.000 C 
ATOM     17  N   UNL     1       4.608   0.556  19.205  0.00  0.00    +0.000 N 
ATOM     18  O   UNL     1       5.376   1.349  21.106  0.00  0.00    +0.000 OA
ATOM     19  H   UNL     1       3.963   0.530  18.438  0.00  0.00    +0.000 HD
ATOM     20  H   UNL     1       5.000  -0.316  19.548  0.00  0.00    +0.000 HD
ENDBRANCH   2  16
BRANCH   1  21
ATOM     21  N   UNL     1       4.901   4.486  18.162  0.00  0.00    +0.000 N 
ATOM     22  H   UNL     1       4.714   5.489  18.029  0.00  0.00    +0.000 HD
BRANCH  21  29
ATOM     23  C   UNL     1       7.194   4.838  17.139  0.00  0.00    +0.000 C 
ATOM     24  C   UNL     1       7.184   5.462  15.744  0.00  0.00    +0.000 C 
ATOM     25  N   UNL     1       6.508   4.526  14.902  0.00  0.00    +0.000 N 
ATOM     26  C   UNL     1       6.792   4.601  13.536  0.00  0.00    +0.000 C 
ATOM     27  O   UNL     1       7.647   5.383  13.100  0.00  0.00    +0.000 OA
ATOM     28  C   UNL     1       5.453   3.867  15.694  0.00  0.00    +0.000 C 
ATOM     29  C   UNL     1       5.918   3.963  17.234  0.00  0.00    +0.000 C 
BRANCH  26  30
ATOM     30  C   UNL     1       6.098   3.734  12.547  0.00  0.00    +0.000 C 
ATOM     31  C   UNL     1       4.805   4.173  11.893  0.00  0.00    +0.000 C 
ATOM     32  C   UNL     1       4.733   3.161  12.991  0.00  0.00    +0.000 C 
BRANCH  30  33
ATOM     33  C   UNL     1       6.959   2.805  11.865  0.00  0.00    +0.000 C 
ATOM     34  N   UNL     1       7.649   2.067  11.293  0.00  0.00    +0.000 NA
ENDBRANCH  30  33
ENDBRANCH  26  30
BRANCH  23  36
ATOM     35  C   UNL     1       7.541   7.313  17.530  0.00  0.00    +0.000 C 
ATOM     36  C   UNL     1       7.373   5.941  18.174  0.00  0.00    +0.000 C 
ENDBRANCH  23  36
ENDBRANCH  21  29
ENDBRANCH   1  21
TORSDOF 7
ENDMDL
MODEL 4
REMARK VINA RESULT:      -7.7      0.666      1.101
REMARK  Name = 
REMARK  9 active torsions:
REMARK  status: ('A' for Active; 'I' for Inactive)
REMARK    1  A    between atoms: C_1  and  C_2
REMARK    2  A    between atoms: C_2  and  C_3
REMARK    3  A    between atoms: C_6  and  C_8
REMARK    4  A    between atoms: C_8  and  C_9
REMARK    5  A    between atoms: C_14  and  N_15
REMARK    6  A    between atoms: N_15  and  C_16
REMARK    7  A    between atoms: C_17  and  C_18
REMARK    8  A    between atoms: C_25  and  C_26
REMARK    9  A    between atoms: N_30  and  C_31
REMARK                            x       y       z     vdW  Elec       q    Type
REMARK                         _______ _______ _______ _____ _____    ______ ____
ROOT
ATOM      1  C   UNL     1       3.897   3.947  18.842  0.00  0.00    +0.000 A 
ATOM      2  C   UNL     1       3.849   2.815  19.619  0.00  0.00    +0.000 A 
ATOM      3  C   UNL     1       2.849   2.817  20.771  0.00  0.00    +0.000 A 
ATOM      4  N   UNL     1       2.132   3.784  21.223  0.00  0.00    +0.000 NA
ATOM      5  N   UNL     1       2.326   4.897  20.518  0.00  0.00    +0.000 N 
ATOM      6  C   UNL     1       1.739   6.076  20.836  0.00  0.00    +0.000 A 
ATOM      7  C   UNL     1       2.113   6.935  19.826  0.00  0.00    +0.000 A 
ATOM      8  N   UNL     1       2.951   6.304  18.924  0.00  0.00    +0.000 NA
ATOM      9  C   UNL     1       3.081   5.059  19.373  0.00  0.00    +0.000 A 
ENDROOT
BRANCH   7  10
ATOM     10  C   UNL     1       1.654   8.337  19.739  0.00  0.00    +0.000 A 
ATOM     11  C   UNL     1       0.986   9.076  20.693  0.00  0.00    +0.000 A 
ATOM     12  C   UNL     1       0.780  10.333  20.086  0.00  0.00    +0.000 A 
ATOM     13  N   UNL     1       1.271  10.392  18.848  0.00  0.00    +0.000 NA
ATOM     14  N   UNL     1       1.794   9.163  18.660  0.00  0.00    +0.000 N 
ATOM     15  C   UNL     1       2.389   8.820  17.393  0.00  0.00    +0.000 C 
ENDBRANCH   7  10
BRANCH   2  16
ATOM     16  C   UNL     1       4.605   1.513  19.705  0.00  0.00    +0.000 C 
ATOM     17  N   UNL     1       4.424   0.516  18.822  0.00  0.00    +0.000 N 
ATOM     18  O   UNL     1       5.317   1.275  20.682  0.00  0.00    +0.000 OA
ATOM     19  H   UNL     1       3.736   0.510  18.093  0.00  0.00    +0.000 HD
ATOM     20  H   UNL     1       4.817  -0.368  19.135  0.00  0.00    +0.000 HD
ENDBRANCH   2  16
BRANCH   1  21
ATOM     21  N   UNL     1       4.620   4.370  17.676  0.00  0.00    +0.000 N 
ATOM     22  H   UNL     1       4.229   5.269  17.363  0.00  0.00    +0.000 HD
BRANCH  21  29
ATOM     23  C   UNL     1       6.868   4.910  16.634  0.00  0.00    +0.000 C 
ATOM     24  C   UNL     1       6.805   5.376  15.180  0.00  0.00    +0.000 C 
ATOM     25  N   UNL     1       6.273   4.274  14.440  0.00  0.00    +0.000 N 
ATOM     26  C   UNL     1       6.572   4.241  13.076  0.00  0.00    +0.000 C 
ATOM     27  O   UNL     1       7.327   5.077  12.563  0.00  0.00    +0.000 OA
ATOM     28  C   UNL     1       5.298   3.570  15.292  0.00  0.00    +0.000 C 
ATOM     29  C   UNL     1       5.715   3.890  16.816  0.00  0.00    +0.000 C 
BRANCH  26  30
ATOM     30  C   UNL     1       6.017   3.189  12.183  0.00  0.00    +0.000 C 
ATOM     31  C   UNL     1       6.437   1.742  12.324  0.00  0.00    +0.000 C 
ATOM     32  C   UNL     1       7.016   2.539  11.200  0.00  0.00    +0.000 C 
BRANCH  30  33
ATOM     33  C   UNL     1       4.728   3.503  11.626  0.00  0.00    +0.000 C 
ATOM     34  N   UNL     1       3.698   3.755  11.154  0.00  0.00    +0.000 NA
ENDBRANCH  30  33
ENDBRANCH  26  30
BRANCH  23  36
ATOM     35  C   UNL     1       7.757   5.922  18.776  0.00  0.00    +0.000 C 
ATOM     36  C   UNL     1       6.881   6.131  17.545  0.00  0.00    +0.000 C 
ENDBRANCH  23  36
ENDBRANCH  21  29
ENDBRANCH   1  21
TORSDOF 7
ENDMDL
MODEL 5
REMARK VINA RESULT:      -7.4      3.955      8.964
REMARK  Name = 
REMARK  9 active torsions:
REMARK  status: ('A' for Active; 'I' for Inactive)
REMARK    1  A    between atoms: C_1  and  C_2
REMARK    2  A    between atoms: C_2  and  C_3
REMARK    3  A    between atoms: C_6  and  C_8
REMARK    4  A    between atoms: C_8  and  C_9
REMARK    5  A    between atoms: C_14  and  N_15
REMARK    6  A    between atoms: N_15  and  C_16
REMARK    7  A    between atoms: C_17  and  C_18
REMARK    8  A    between atoms: C_25  and  C_26
REMARK    9  A    between atoms: N_30  and  C_31
REMARK                            x       y       z     vdW  Elec       q    Type
REMARK                         _______ _______ _______ _____ _____    ______ ____
ROOT
ATOM      1  C   UNL     1       1.984   8.428  19.489  0.00  0.00    +0.000 A 
ATOM      2  C   UNL     1       1.235   8.010  20.563  0.00  0.00    +0.000 A 
ATOM      3  C   UNL     1       1.523   6.608  21.094  0.00  0.00    +0.000 A 
ATOM      4  N   UNL     1       2.269   5.688  20.596  0.00  0.00    +0.000 NA
ATOM      5  N   UNL     1       2.860   6.102  19.476  0.00  0.00    +0.000 N 
ATOM      6  C   UNL     1       3.644   5.294  18.722  0.00  0.00    +0.000 A 
ATOM      7  C   UNL     1       4.129   6.112  17.725  0.00  0.00    +0.000 A 
ATOM      8  N   UNL     1       3.618   7.392  17.842  0.00  0.00    +0.000 NA
ATOM      9  C   UNL     1       2.830   7.362  18.914  0.00  0.00    +0.000 A 
ENDROOT
BRANCH   7  10
ATOM     10  C   UNL     1       5.079   5.656  16.689  0.00  0.00    +0.000 A 
ATOM     11  C   UNL     1       4.874   4.719  15.698  0.00  0.00    +0.000 A 
ATOM     12  C   UNL     1       6.103   4.661  15.007  0.00  0.00    +0.000 A 
ATOM     13  N   UNL     1       7.017   5.488  15.515  0.00  0.00    +0.000 NA
ATOM     14  N   UNL     1       6.369   6.079  16.540  0.00  0.00    +0.000 N 
ATOM     15  C   UNL     1       7.061   7.026  17.378  0.00  0.00    +0.000 C 
ENDBRANCH   7  10
BRANCH   2  16
ATOM     16  C   UNL     1       0.086   8.553  21.374  0.00  0.00    +0.000 C 
ATOM     17  N   UNL     1       0.174   9.699  22.071  0.00  0.00    +0.000 N 
ATOM     18  O   UNL     1      -0.932   7.877  21.532  0.00  0.00    +0.000 OA
ATOM     19  H   UNL     1       1.008  10.244  22.180  0.00  0.00    +0.000 HD
ATOM     20  H   UNL     1      -0.579   9.815  22.743  0.00  0.00    +0.000 HD
ENDBRANCH   2  16
BRANCH   1  21
ATOM     21  N   UNL     1       2.090   9.628  18.709  0.00  0.00    +0.000 N 
ATOM     22  H   UNL     1       3.089   9.845  18.586  0.00  0.00    +0.000 HD
BRANCH  21  29
ATOM     23  C   UNL     1       1.041  11.930  18.878  0.00  0.00    +0.000 C 
ATOM     24  C   UNL     1      -0.399  11.943  19.391  0.00  0.00    +0.000 C 
ATOM     25  N   UNL     1      -1.164  11.223  18.421  0.00  0.00    +0.000 N 
ATOM     26  C   UNL     1      -2.531  11.505  18.376  0.00  0.00    +0.000 C 
ATOM     27  O   UNL     1      -3.028  12.392  19.082  0.00  0.00    +0.000 OA
ATOM     28  C   UNL     1      -0.322  10.144  17.873  0.00  0.00    +0.000 C 
ATOM     29  C   UNL     1       1.205  10.617  18.070  0.00  0.00    +0.000 C 
BRANCH  26  30
ATOM     30  C   UNL     1      -3.448  10.770  17.464  0.00  0.00    +0.000 C 
ATOM     31  C   UNL     1      -4.873  10.460  17.871  0.00  0.00    +0.000 C 
ATOM     32  C   UNL     1      -3.867   9.355  17.922  0.00  0.00    +0.000 C 
BRANCH  30  33
ATOM     33  C   UNL     1      -3.118  10.889  16.068  0.00  0.00    +0.000 C 
ATOM     34  N   UNL     1      -2.873  10.973  14.936  0.00  0.00    +0.000 NA
ENDBRANCH  30  33
ENDBRANCH  26  30
BRANCH  23  36
ATOM     35  C   UNL     1       2.370  13.629  20.202  0.00  0.00    +0.000 C 
ATOM     36  C   UNL     1       1.986  12.161  20.051  0.00  0.00    +0.000 C 
ENDBRANCH  23  36
ENDBRANCH  21  29
ENDBRANCH   1  21
TORSDOF 7
ENDMDL
MODEL 6
REMARK VINA RESULT:      -7.3      4.793      9.417
REMARK  Name = 
REMARK  9 active torsions:
REMARK  status: ('A' for Active; 'I' for Inactive)
REMARK    1  A    between atoms: C_1  and  C_2
REMARK    2  A    between atoms: C_2  and  C_3
REMARK    3  A    between atoms: C_6  and  C_8
REMARK    4  A    between atoms: C_8  and  C_9
REMARK    5  A    between atoms: C_14  and  N_15
REMARK    6  A    between atoms: N_15  and  C_16
REMARK    7  A    between atoms: C_17  and  C_18
REMARK    8  A    between atoms: C_25  and  C_26
REMARK    9  A    between atoms: N_30  and  C_31
REMARK                            x       y       z     vdW  Elec       q    Type
REMARK                         _______ _______ _______ _____ _____    ______ ____
ROOT
ATOM      1  C   UNL     1       0.623  12.462  20.032  0.00  0.00    +0.000 A 
ATOM      2  C   UNL     1       1.273  13.335  19.192  0.00  0.00    +0.000 A 
ATOM      3  C   UNL     1       0.680  14.736  19.070  0.00  0.00    +0.000 A 
ATOM      4  N   UNL     1      -0.432  15.190  19.527  0.00  0.00    +0.000 NA
ATOM      5  N   UNL     1      -1.087  14.256  20.214  0.00  0.00    +0.000 N 
ATOM      6  C   UNL     1      -2.318  14.464  20.740  0.00  0.00    +0.000 A 
ATOM      7  C   UNL     1      -2.598  13.310  21.440  0.00  0.00    +0.000 A 
ATOM      8  N   UNL     1      -1.570  12.392  21.312  0.00  0.00    +0.000 NA
ATOM      9  C   UNL     1      -0.660  12.985  20.544  0.00  0.00    +0.000 A 
ENDROOT
BRANCH   7  10
ATOM     10  C   UNL     1      -3.834  13.115  22.226  0.00  0.00    +0.000 A 
ATOM     11  C   UNL     1      -4.012  13.269  23.585  0.00  0.00    +0.000 A 
ATOM     12  C   UNL     1      -5.368  12.943  23.803  0.00  0.00    +0.000 A 
ATOM     13  N   UNL     1      -6.001  12.606  22.679  0.00  0.00    +0.000 NA
ATOM     14  N   UNL     1      -5.044  12.715  21.735  0.00  0.00    +0.000 N 
ATOM     15  C   UNL     1      -5.342  12.379  20.365  0.00  0.00    +0.000 C 
ENDBRANCH   7  10
BRANCH   2  16
ATOM     16  C   UNL     1       2.441  13.274  18.240  0.00  0.00    +0.000 C 
ATOM     17  N   UNL     1       2.997  14.377  17.711  0.00  0.00    +0.000 N 
ATOM     18  O   UNL     1       2.830  12.188  17.809  0.00  0.00    +0.000 OA
ATOM     19  H   UNL     1       2.652  15.311  17.832  0.00  0.00    +0.000 HD
ATOM     20  H   UNL     1       3.606  14.177  16.923  0.00  0.00    +0.000 HD
ENDBRANCH   2  16
BRANCH   1  21
ATOM     21  N   UNL     1       0.826  11.112  20.476  0.00  0.00    +0.000 N 
ATOM     22  H   UNL     1       1.427  11.135  21.311  0.00  0.00    +0.000 HD
BRANCH  21  29
ATOM     23  C   UNL     1      -0.156   8.897  21.226  0.00  0.00    +0.000 C 
ATOM     24  C   UNL     1       0.875   7.817  21.551  0.00  0.00    +0.000 C 
ATOM     25  N   UNL     1       1.565   7.556  20.327  0.00  0.00    +0.000 N 
ATOM     26  C   UNL     1       2.183   6.308  20.216  0.00  0.00    +0.000 C 
ATOM     27  O   UNL     1       2.060   5.450  21.101  0.00  0.00    +0.000 OA
ATOM     28  C   UNL     1       1.667   8.818  19.573  0.00  0.00    +0.000 C 
ATOM     29  C   UNL     1       0.449   9.745  20.077  0.00  0.00    +0.000 C 
BRANCH  26  30
ATOM     30  C   UNL     1       2.995   5.943  19.025  0.00  0.00    +0.000 C 
ATOM     31  C   UNL     1       2.664   6.495  17.655  0.00  0.00    +0.000 C 
ATOM     32  C   UNL     1       2.283   5.082  17.958  0.00  0.00    +0.000 C 
BRANCH  30  33
ATOM     33  C   UNL     1       4.347   5.551  19.325  0.00  0.00    +0.000 C 
ATOM     34  N   UNL     1       5.440   5.255  19.581  0.00  0.00    +0.000 NA
ENDBRANCH  30  33
ENDBRANCH  26  30
BRANCH  23  36
ATOM     35  C   UNL     1       0.452   9.348  23.640  0.00  0.00    +0.000 C 
ATOM     36  C   UNL     1      -0.537   9.620  22.512  0.00  0.00    +0.000 C 
ENDBRANCH  23  36
ENDBRANCH  21  29
ENDBRANCH   1  21
TORSDOF 7
ENDMDL
MODEL 7
REMARK VINA RESULT:      -7.3      4.610      9.064
REMARK  Name = 
REMARK  9 active torsions:
REMARK  status: ('A' for Active; 'I' for Inactive)
REMARK    1  A    between atoms: C_1  and  C_2
REMARK    2  A    between atoms: C_2  and  C_3
REMARK    3  A    between atoms: C_6  and  C_8
REMARK    4  A    between atoms: C_8  and  C_9
REMARK    5  A    between atoms: C_14  and  N_15
REMARK    6  A    between atoms: N_15  and  C_16
REMARK    7  A    between atoms: C_17  and  C_18
REMARK    8  A    between atoms: C_25  and  C_26
REMARK    9  A    between atoms: N_30  and  C_31
REMARK                            x       y       z     vdW  Elec       q    Type
REMARK                         _______ _______ _______ _____ _____    ______ ____
ROOT
ATOM      1  C   UNL     1       0.850  12.511  18.674  0.00  0.00    +0.000 A 
ATOM      2  C   UNL     1      -0.391  13.094  18.778  0.00  0.00    +0.000 A 
ATOM      3  C   UNL     1      -0.439  14.618  18.714  0.00  0.00    +0.000 A 
ATOM      4  N   UNL     1       0.530  15.462  18.722  0.00  0.00    +0.000 NA
ATOM      5  N   UNL     1       1.708  14.842  18.766  0.00  0.00    +0.000 N 
ATOM      6  C   UNL     1       2.883  15.511  18.853  0.00  0.00    +0.000 A 
ATOM      7  C   UNL     1       3.848  14.531  18.778  0.00  0.00    +0.000 A 
ATOM      8  N   UNL     1       3.273  13.275  18.688  0.00  0.00    +0.000 NA
ATOM      9  C   UNL     1       1.960  13.486  18.696  0.00  0.00    +0.000 A 
ENDROOT
BRANCH   7  10
ATOM     10  C   UNL     1       5.299  14.814  18.782  0.00  0.00    +0.000 A 
ATOM     11  C   UNL     1       6.162  14.854  17.706  0.00  0.00    +0.000 A 
ATOM     12  C   UNL     1       7.419  15.151  18.274  0.00  0.00    +0.000 A 
ATOM     13  N   UNL     1       7.365  15.287  19.599  0.00  0.00    +0.000 NA
ATOM     14  N   UNL     1       6.064  15.073  19.883  0.00  0.00    +0.000 N 
ATOM     15  C   UNL     1       5.614  15.091  21.252  0.00  0.00    +0.000 C 
ENDBRANCH   7  10
BRANCH   2  16
ATOM     16  C   UNL     1      -1.803  12.625  19.023  0.00  0.00    +0.000 C 
ATOM     17  N   UNL     1      -2.602  12.196  18.032  0.00  0.00    +0.000 N 
ATOM     18  O   UNL     1      -2.313  12.759  20.137  0.00  0.00    +0.000 OA
ATOM     19  H   UNL     1      -2.372  12.219  17.056  0.00  0.00    +0.000 HD
ATOM     20  H   UNL     1      -3.579  12.138  18.305  0.00  0.00    +0.000 HD
ENDBRANCH   2  16
BRANCH   1  21
ATOM     21  N   UNL     1       1.362  11.171  18.643  0.00  0.00    +0.000 N 
ATOM     22  H   UNL     1       2.376  11.217  18.471  0.00  0.00    +0.000 HD
BRANCH  21  29
ATOM     23  C   UNL     1       0.470   9.386  20.208  0.00  0.00    +0.000 C 
ATOM     24  C   UNL     1       1.505   8.358  20.664  0.00  0.00    +0.000 C 
ATOM     25  N   UNL     1       1.927   7.679  19.479  0.00  0.00    +0.000 N 
ATOM     26  C   UNL     1       2.465   6.401  19.655  0.00  0.00    +0.000 C 
ATOM     27  O   UNL     1       2.490   5.862  20.769  0.00  0.00    +0.000 OA
ATOM     28  C   UNL     1       1.922   8.643  18.364  0.00  0.00    +0.000 C 
ATOM     29  C   UNL     1       0.864   9.790  18.764  0.00  0.00    +0.000 C 
BRANCH  26  30
ATOM     30  C   UNL     1       3.010   5.622  18.511  0.00  0.00    +0.000 C 
ATOM     31  C   UNL     1       4.475   5.248  18.447  0.00  0.00    +0.000 C 
ATOM     32  C   UNL     1       3.996   6.373  17.589  0.00  0.00    +0.000 C 
BRANCH  30  33
ATOM     33  C   UNL     1       2.039   4.806  17.832  0.00  0.00    +0.000 C 
ATOM     34  N   UNL     1       1.249   4.136  17.306  0.00  0.00    +0.000 NA
ENDBRANCH  30  33
ENDBRANCH  26  30
BRANCH  23  36
ATOM     35  C   UNL     1      -0.190   9.991  22.574  0.00  0.00    +0.000 C 
ATOM     36  C   UNL     1       0.379  10.492  21.251  0.00  0.00    +0.000 C 
ENDBRANCH  23  36
ENDBRANCH  21  29
ENDBRANCH   1  21
TORSDOF 7
ENDMDL
MODEL 8
REMARK VINA RESULT:      -7.3      7.914     12.074
REMARK  Name = 
REMARK  9 active torsions:
REMARK  status: ('A' for Active; 'I' for Inactive)
REMARK    1  A    between atoms: C_1  and  C_2
REMARK    2  A    between atoms: C_2  and  C_3
REMARK    3  A    between atoms: C_6  and  C_8
REMARK    4  A    between atoms: C_8  and  C_9
REMARK    5  A    between atoms: C_14  and  N_15
REMARK    6  A    between atoms: N_15  and  C_16
REMARK    7  A    between atoms: C_17  and  C_18
REMARK    8  A    between atoms: C_25  and  C_26
REMARK    9  A    between atoms: N_30  and  C_31
REMARK                            x       y       z     vdW  Elec       q    Type
REMARK                         _______ _______ _______ _____ _____    ______ ____
ROOT
ATOM      1  C   UNL     1      -0.486  11.648  19.206  0.00  0.00    +0.000 A 
ATOM      2  C   UNL     1       0.391  10.902  19.956  0.00  0.00    +0.000 A 
ATOM      3  C   UNL     1       1.367  11.675  20.838  0.00  0.00    +0.000 A 
ATOM      4  N   UNL     1       1.596  12.940  20.882  0.00  0.00    +0.000 NA
ATOM      5  N   UNL     1       0.814  13.599  20.029  0.00  0.00    +0.000 N 
ATOM      6  C   UNL     1       0.910  14.937  19.836  0.00  0.00    +0.000 A 
ATOM      7  C   UNL     1      -0.116  15.238  18.966  0.00  0.00    +0.000 A 
ATOM      8  N   UNL     1      -0.805  14.095  18.600  0.00  0.00    +0.000 NA
ATOM      9  C   UNL     1      -0.210  13.099  19.251  0.00  0.00    +0.000 A 
ENDROOT
BRANCH   7  10
ATOM     10  C   UNL     1      -0.424  16.610  18.514  0.00  0.00    +0.000 A 
ATOM     11  C   UNL     1       0.268  17.382  17.603  0.00  0.00    +0.000 A 
ATOM     12  C   UNL     1      -0.446  18.599  17.558  0.00  0.00    +0.000 A 
ATOM     13  N   UNL     1      -1.501  18.606  18.373  0.00  0.00    +0.000 NA
ATOM     14  N   UNL     1      -1.463  17.385  18.946  0.00  0.00    +0.000 N 
ATOM     15  C   UNL     1      -2.439  17.027  19.943  0.00  0.00    +0.000 C 
ENDBRANCH   7  10
BRANCH   2  16
ATOM     16  C   UNL     1       0.732   9.441  20.110  0.00  0.00    +0.000 C 
ATOM     17  N   UNL     1       0.276   8.700  21.134  0.00  0.00    +0.000 N 
ATOM     18  O   UNL     1       1.563   8.919  19.365  0.00  0.00    +0.000 OA
ATOM     19  H   UNL     1      -0.252   9.052  21.910  0.00  0.00    +0.000 HD
ATOM     20  H   UNL     1       0.768   7.816  21.234  0.00  0.00    +0.000 HD
ENDBRANCH   2  16
BRANCH   1  21
ATOM     21  N   UNL     1      -1.564  11.372  18.299  0.00  0.00    +0.000 N 
ATOM     22  H   UNL     1      -1.273  11.660  17.355  0.00  0.00    +0.000 HD
BRANCH  21  29
ATOM     23  C   UNL     1      -3.557  10.595  16.937  0.00  0.00    +0.000 C 
ATOM     24  C   UNL     1      -4.672  11.629  16.785  0.00  0.00    +0.000 C 
ATOM     25  N   UNL     1      -5.159  11.873  18.106  0.00  0.00    +0.000 N 
ATOM     26  C   UNL     1      -6.462  12.369  18.205  0.00  0.00    +0.000 C 
ATOM     27  O   UNL     1      -7.176  12.504  17.203  0.00  0.00    +0.000 OA
ATOM     28  C   UNL     1      -4.026  11.777  19.044  0.00  0.00    +0.000 C 
ATOM     29  C   UNL     1      -2.933  10.829  18.336  0.00  0.00    +0.000 C 
BRANCH  26  30
ATOM     30  C   UNL     1      -7.058  12.734  19.518  0.00  0.00    +0.000 C 
ATOM     31  C   UNL     1      -7.894  13.986  19.676  0.00  0.00    +0.000 C 
ATOM     32  C   UNL     1      -6.490  14.005  20.189  0.00  0.00    +0.000 C 
BRANCH  30  33
ATOM     33  C   UNL     1      -7.274  11.620  20.403  0.00  0.00    +0.000 C 
ATOM     34  N   UNL     1      -7.468  10.714  21.102  0.00  0.00    +0.000 NA
ENDBRANCH  30  33
ENDBRANCH  26  30
BRANCH  23  36
ATOM     35  C   UNL     1      -3.323  10.237  14.443  0.00  0.00    +0.000 C 
ATOM     36  C   UNL     1      -2.633  10.682  15.728  0.00  0.00    +0.000 C 
ENDBRANCH  23  36
ENDBRANCH  21  29
ENDBRANCH   1  21
TORSDOF 7
ENDMDL
MODEL 9
REMARK VINA RESULT:      -7.3      1.235      1.478
REMARK  Name = 
REMARK  9 active torsions:
REMARK  status: ('A' for Active; 'I' for Inactive)
REMARK    1  A    between atoms: C_1  and  C_2
REMARK    2  A    between atoms: C_2  and  C_3
REMARK    3  A    between atoms: C_6  and  C_8
REMARK    4  A    between atoms: C_8  and  C_9
REMARK    5  A    between atoms: C_14  and  N_15
REMARK    6  A    between atoms: N_15  and  C_16
REMARK    7  A    between atoms: C_17  and  C_18
REMARK    8  A    between atoms: C_25  and  C_26
REMARK    9  A    between atoms: N_30  and  C_31
REMARK                            x       y       z     vdW  Elec       q    Type
REMARK                         _______ _______ _______ _____ _____    ______ ____
ROOT
ATOM      1  C   UNL     1       3.896   4.192  19.092  0.00  0.00    +0.000 A 
ATOM      2  C   UNL     1       3.797   3.090  19.907  0.00  0.00    +0.000 A 
ATOM      3  C   UNL     1       2.707   3.124  20.974  0.00  0.00    +0.000 A 
ATOM      4  N   UNL     1       1.946   4.098  21.328  0.00  0.00    +0.000 NA
ATOM      5  N   UNL     1       2.185   5.184  20.596  0.00  0.00    +0.000 N 
ATOM      6  C   UNL     1       1.562   6.367  20.819  0.00  0.00    +0.000 A 
ATOM      7  C   UNL     1       2.008   7.191  19.809  0.00  0.00    +0.000 A 
ATOM      8  N   UNL     1       2.922   6.537  19.002  0.00  0.00    +0.000 NA
ATOM      9  C   UNL     1       3.028   5.312  19.510  0.00  0.00    +0.000 A 
ENDROOT
BRANCH   7  10
ATOM     10  C   UNL     1       1.542   8.582  19.628  0.00  0.00    +0.000 A 
ATOM     11  C   UNL     1       1.412   9.291  18.452  0.00  0.00    +0.000 A 
ATOM     12  C   UNL     1       0.947  10.561  18.855  0.00  0.00    +0.000 A 
ATOM     13  N   UNL     1       0.796  10.657  20.176  0.00  0.00    +0.000 NA
ATOM     14  N   UNL     1       1.169   9.440  20.623  0.00  0.00    +0.000 N 
ATOM     15  C   UNL     1       1.185   9.167  22.038  0.00  0.00    +0.000 C 
ENDBRANCH   7  10
BRANCH   2  16
ATOM     16  C   UNL     1       4.558   1.803  20.106  0.00  0.00    +0.000 C 
ATOM     17  N   UNL     1       4.543   0.811  19.199  0.00  0.00    +0.000 N 
ATOM     18  O   UNL     1       5.106   1.569  21.184  0.00  0.00    +0.000 OA
ATOM     19  H   UNL     1       3.982   0.799  18.368  0.00  0.00    +0.000 HD
ATOM     20  H   UNL     1       4.899  -0.067  19.565  0.00  0.00    +0.000 HD
ENDBRANCH   2  16
BRANCH   1  21
ATOM     21  N   UNL     1       4.706   4.578  17.972  0.00  0.00    +0.000 N 
ATOM     22  H   UNL     1       4.427   5.526  17.684  0.00  0.00    +0.000 HD
BRANCH  21  29
ATOM     23  C   UNL     1       7.176   4.628  17.396  0.00  0.00    +0.000 C 
ATOM     24  C   UNL     1       7.528   5.449  16.156  0.00  0.00    +0.000 C 
ATOM     25  N   UNL     1       6.874   4.802  15.062  0.00  0.00    +0.000 N 
ATOM     26  C   UNL     1       7.414   5.029  13.794  0.00  0.00    +0.000 C 
ATOM     27  O   UNL     1       8.453   5.686  13.647  0.00  0.00    +0.000 OA
ATOM     28  C   UNL     1       5.596   4.249  15.547  0.00  0.00    +0.000 C 
ATOM     29  C   UNL     1       5.777   4.015  17.131  0.00  0.00    +0.000 C 
BRANCH  26  30
ATOM     30  C   UNL     1       6.781   4.475  12.567  0.00  0.00    +0.000 C 
ATOM     31  C   UNL     1       5.451   3.755  12.631  0.00  0.00    +0.000 C 
ATOM     32  C   UNL     1       6.693   2.935  12.488  0.00  0.00    +0.000 C 
BRANCH  30  33
ATOM     33  C   UNL     1       7.176   5.129  11.348  0.00  0.00    +0.000 C 
ATOM     34  N   UNL     1       7.519   5.653  10.370  0.00  0.00    +0.000 NA
ENDBRANCH  30  33
ENDBRANCH  26  30
BRANCH  23  36
ATOM     35  C   UNL     1       7.832   6.904  18.284  0.00  0.00    +0.000 C 
ATOM     36  C   UNL     1       7.340   5.503  18.632  0.00  0.00    +0.000 C 
ENDBRANCH  23  36
ENDBRANCH  21  29
ENDBRANCH   1  21
TORSDOF 7
ENDMDL
