MODEL 1
REMARK VINA RESULT:      -8.1      0.000      0.000
REMARK  Name = 
REMARK  5 active torsions:
REMARK  status: ('A' for Active; 'I' for Inactive)
REMARK    1  A    between atoms: N_1  and  C_2
REMARK    2  A    between atoms: N_12  and  S_13
REMARK    3  A    between atoms: S_13  and  C_16
REMARK    4  A    between atoms: C_19  and  C_20
REMARK    5  A    between atoms: C_23  and  C_24
REMARK                            x       y       z     vdW  Elec       q    Type
REMARK                         _______ _______ _______ _____ _____    ______ ____
ROOT
ATOM      1  S   UNL     1       0.813  11.195  19.891  0.00  0.00    +0.000 S 
ATOM      2  O   UNL     1       0.785  12.084  18.744  0.00  0.00    +0.000 OA
ATOM      3  O   UNL     1       1.563  11.557  21.076  0.00  0.00    +0.000 OA
ENDROOT
BRANCH   1  14
ATOM      4  C   UNL     1      -3.955  11.218  17.508  0.00  0.00    +0.000 A 
ATOM      5  C   UNL     1      -3.104  10.109  17.509  0.00  0.00    +0.000 A 
ATOM      6  C   UNL     1      -2.029  10.030  18.400  0.00  0.00    +0.000 A 
ATOM      7  C   UNL     1      -1.835  11.033  19.347  0.00  0.00    +0.000 A 
ATOM      8  C   UNL     1      -2.718  12.116  19.390  0.00  0.00    +0.000 A 
ATOM      9  C   UNL     1      -3.768  12.211  18.471  0.00  0.00    +0.000 A 
ATOM     10  O   UNL     1      -2.572  13.140  20.289  0.00  0.00    +0.000 OA
ATOM     11  C   UNL     1      -2.852  12.714  21.625  0.00  0.00    +0.000 C 
ATOM     12  C   UNL     1      -1.628  12.118  22.312  0.00  0.00    +0.000 C 
ATOM     13  C   UNL     1      -1.211  10.779  21.724  0.00  0.00    +0.000 C 
ATOM     14  N   UNL     1      -0.794  10.870  20.315  0.00  0.00    +0.000 N 
BRANCH   4  15
ATOM     15  N   UNL     1      -5.115  11.204  16.722  0.00  0.00    +0.000 N 
ATOM     16  H   UNL     1      -5.400  12.118  16.386  0.00  0.00    +0.000 HD
ATOM     17  H   UNL     1      -5.887  10.685  17.130  0.00  0.00    +0.000 HD
ENDBRANCH   4  15
ENDBRANCH   1  14
BRANCH   1  18
ATOM     18  C   UNL     1       1.493   9.645  19.322  0.00  0.00    +0.000 A 
ATOM     19  C   UNL     1       1.990   9.538  18.020  0.00  0.00    +0.000 A 
ATOM     20  C   UNL     1       2.516   8.320  17.575  0.00  0.00    +0.000 A 
ATOM     21  C   UNL     1       2.552   7.194  18.414  0.00  0.00    +0.000 A 
ATOM     22  C   UNL     1       2.124   7.346  19.742  0.00  0.00    +0.000 A 
ATOM     23  C   UNL     1       1.611   8.568  20.201  0.00  0.00    +0.000 A 
BRANCH  21  24
ATOM     24  C   UNL     1       2.981   5.902  17.889  0.00  0.00    +0.000 A 
ATOM     25  C   UNL     1       2.468   4.623  17.907  0.00  0.00    +0.000 A 
ATOM     26  N   UNL     1       3.330   3.750  17.295  0.00  0.00    +0.000 NA
ATOM     27  C   UNL     1       4.344   4.508  16.932  0.00  0.00    +0.000 A 
ATOM     28  O   UNL     1       4.199   5.833  17.261  0.00  0.00    +0.000 OA
BRANCH  27  29
ATOM     29  C   UNL     1       5.558   3.927  16.221  0.00  0.00    +0.000 C 
ATOM     30  C   UNL     1       5.733   4.195  14.741  0.00  0.00    +0.000 C 
ATOM     31  C   UNL     1       6.635   4.866  15.719  0.00  0.00    +0.000 C 
ENDBRANCH  27  29
ENDBRANCH  21  24
ENDBRANCH   1  18
TORSDOF 5
ENDMDL
MODEL 2
REMARK VINA RESULT:      -7.9      1.140      1.959
REMARK  Name = 
REMARK  5 active torsions:
REMARK  status: ('A' for Active; 'I' for Inactive)
REMARK    1  A    between atoms: N_1  and  C_2
REMARK    2  A    between atoms: N_12  and  S_13
REMARK    3  A    between atoms: S_13  and  C_16
REMARK    4  A    between atoms: C_19  and  C_20
REMARK    5  A    between atoms: C_23  and  C_24
REMARK                            x       y       z     vdW  Elec       q    Type
REMARK                         _______ _______ _______ _____ _____    ______ ____
ROOT
ATOM      1  S   UNL     1       0.738  11.401  20.017  0.00  0.00    +0.000 S 
ATOM      2  O   UNL     1       0.691  12.324  18.898  0.00  0.00    +0.000 OA
ATOM      3  O   UNL     1       1.505  11.731  21.202  0.00  0.00    +0.000 OA
ENDROOT
BRANCH   1  14
ATOM      4  C   UNL     1      -4.036  11.272  17.650  0.00  0.00    +0.000 A 
ATOM      5  C   UNL     1      -3.164  10.179  17.677  0.00  0.00    +0.000 A 
ATOM      6  C   UNL     1      -2.085  10.144  18.567  0.00  0.00    +0.000 A 
ATOM      7  C   UNL     1      -1.908  11.175  19.486  0.00  0.00    +0.000 A 
ATOM      8  C   UNL     1      -2.811  12.242  19.503  0.00  0.00    +0.000 A 
ATOM      9  C   UNL     1      -3.864  12.293  18.586  0.00  0.00    +0.000 A 
ATOM     10  O   UNL     1      -2.682  13.293  20.375  0.00  0.00    +0.000 OA
ATOM     11  C   UNL     1      -2.950  12.897  21.723  0.00  0.00    +0.000 C 
ATOM     12  C   UNL     1      -1.713  12.341  22.422  0.00  0.00    +0.000 C 
ATOM     13  C   UNL     1      -1.272  10.996  21.867  0.00  0.00    +0.000 C 
ATOM     14  N   UNL     1      -0.861  11.057  20.455  0.00  0.00    +0.000 N 
BRANCH   4  15
ATOM     15  N   UNL     1      -5.197  11.215  16.869  0.00  0.00    +0.000 N 
ATOM     16  H   UNL     1      -6.058  11.204  17.406  0.00  0.00    +0.000 HD
ATOM     17  H   UNL     1      -5.182  10.497  16.151  0.00  0.00    +0.000 HD
ENDBRANCH   4  15
ENDBRANCH   1  14
BRANCH   1  18
ATOM     18  C   UNL     1       1.416   9.872  19.393  0.00  0.00    +0.000 A 
ATOM     19  C   UNL     1       1.472   8.745  20.219  0.00  0.00    +0.000 A 
ATOM     20  C   UNL     1       2.010   7.550  19.729  0.00  0.00    +0.000 A 
ATOM     21  C   UNL     1       2.501   7.459  18.416  0.00  0.00    +0.000 A 
ATOM     22  C   UNL     1       2.359   8.577  17.579  0.00  0.00    +0.000 A 
ATOM     23  C   UNL     1       1.807   9.773  18.057  0.00  0.00    +0.000 A 
BRANCH  21  24
ATOM     24  C   UNL     1       3.177   6.246  17.968  0.00  0.00    +0.000 A 
ATOM     25  C   UNL     1       4.367   5.972  17.330  0.00  0.00    +0.000 A 
ATOM     26  N   UNL     1       4.488   4.627  17.092  0.00  0.00    +0.000 NA
ATOM     27  C   UNL     1       3.374   4.118  17.577  0.00  0.00    +0.000 A 
ATOM     28  O   UNL     1       2.527   5.049  18.129  0.00  0.00    +0.000 OA
BRANCH  27  29
ATOM     29  C   UNL     1       3.081   2.626  17.504  0.00  0.00    +0.000 C 
ATOM     30  C   UNL     1       3.404   1.761  18.703  0.00  0.00    +0.000 C 
ATOM     31  C   UNL     1       1.981   2.051  18.370  0.00  0.00    +0.000 C 
ENDBRANCH  27  29
ENDBRANCH  21  24
ENDBRANCH   1  18
TORSDOF 5
ENDMDL
MODEL 3
REMARK VINA RESULT:      -7.8      3.167      9.440
REMARK  Name = 
REMARK  5 active torsions:
REMARK  status: ('A' for Active; 'I' for Inactive)
REMARK    1  A    between atoms: N_1  and  C_2
REMARK    2  A    between atoms: N_12  and  S_13
REMARK    3  A    between atoms: S_13  and  C_16
REMARK    4  A    between atoms: C_19  and  C_20
REMARK    5  A    between atoms: C_23  and  C_24
REMARK                            x       y       z     vdW  Elec       q    Type
REMARK                         _______ _______ _______ _____ _____    ______ ____
ROOT
ATOM      1  S   UNL     1       4.254   3.660  18.195  0.00  0.00    +0.000 S 
ATOM      2  O   UNL     1       3.400   2.927  17.278  0.00  0.00    +0.000 OA
ATOM      3  O   UNL     1       4.642   3.069  19.460  0.00  0.00    +0.000 OA
ENDROOT
BRANCH   1  14
ATOM      4  C   UNL     1       7.937   7.506  18.452  0.00  0.00    +0.000 A 
ATOM      5  C   UNL     1       8.041   6.297  19.147  0.00  0.00    +0.000 A 
ATOM      6  C   UNL     1       7.237   5.203  18.808  0.00  0.00    +0.000 A 
ATOM      7  C   UNL     1       6.367   5.288  17.724  0.00  0.00    +0.000 A 
ATOM      8  C   UNL     1       6.301   6.475  16.989  0.00  0.00    +0.000 A 
ATOM      9  C   UNL     1       7.076   7.580  17.355  0.00  0.00    +0.000 A 
ATOM     10  O   UNL     1       5.454   6.625  15.921  0.00  0.00    +0.000 OA
ATOM     11  C   UNL     1       5.862   5.825  14.808  0.00  0.00    +0.000 C 
ATOM     12  C   UNL     1       5.305   4.407  14.877  0.00  0.00    +0.000 C 
ATOM     13  C   UNL     1       5.921   3.581  15.995  0.00  0.00    +0.000 C 
ATOM     14  N   UNL     1       5.640   4.118  17.335  0.00  0.00    +0.000 N 
BRANCH   4  15
ATOM     15  N   UNL     1       8.858   8.531  18.699  0.00  0.00    +0.000 N 
ATOM     16  H   UNL     1       8.672   9.063  19.543  0.00  0.00    +0.000 HD
ATOM     17  H   UNL     1       9.039   9.130  17.898  0.00  0.00    +0.000 HD
ENDBRANCH   4  15
ENDBRANCH   1  14
BRANCH   1  18
ATOM     18  C   UNL     1       3.399   5.176  18.592  0.00  0.00    +0.000 A 
ATOM     19  C   UNL     1       2.927   6.000  17.566  0.00  0.00    +0.000 A 
ATOM     20  C   UNL     1       2.264   7.191  17.880  0.00  0.00    +0.000 A 
ATOM     21  C   UNL     1       2.064   7.581  19.214  0.00  0.00    +0.000 A 
ATOM     22  C   UNL     1       2.472   6.700  20.228  0.00  0.00    +0.000 A 
ATOM     23  C   UNL     1       3.123   5.497  19.922  0.00  0.00    +0.000 A 
BRANCH  21  24
ATOM     24  C   UNL     1       1.489   8.887  19.519  0.00  0.00    +0.000 A 
ATOM     25  C   UNL     1       1.293  10.055  18.814  0.00  0.00    +0.000 A 
ATOM     26  N   UNL     1       0.746  11.018  19.620  0.00  0.00    +0.000 NA
ATOM     27  C   UNL     1       0.632  10.425  20.791  0.00  0.00    +0.000 A 
ATOM     28  O   UNL     1       1.065   9.122  20.802  0.00  0.00    +0.000 OA
BRANCH  27  29
ATOM     29  C   UNL     1       0.074  11.156  22.004  0.00  0.00    +0.000 C 
ATOM     30  C   UNL     1      -1.422  11.361  22.107  0.00  0.00    +0.000 C 
ATOM     31  C   UNL     1      -0.751  10.384  23.011  0.00  0.00    +0.000 C 
ENDBRANCH  27  29
ENDBRANCH  21  24
ENDBRANCH   1  18
TORSDOF 5
ENDMDL
MODEL 4
REMARK VINA RESULT:      -7.7      2.959      9.317
REMARK  Name = 
REMARK  5 active torsions:
REMARK  status: ('A' for Active; 'I' for Inactive)
REMARK    1  A    between atoms: N_1  and  C_2
REMARK    2  A    between atoms: N_12  and  S_13
REMARK    3  A    between atoms: S_13  and  C_16
REMARK    4  A    between atoms: C_19  and  C_20
REMARK    5  A    between atoms: C_23  and  C_24
REMARK                            x       y       z     vdW  Elec       q    Type
REMARK                         _______ _______ _______ _____ _____    ______ ____
ROOT
ATOM      1  S   UNL     1       4.390   3.591  18.243  0.00  0.00    +0.000 S 
ATOM      2  O   UNL     1       3.532   2.835  17.349  0.00  0.00    +0.000 OA
ATOM      3  O   UNL     1       4.857   2.997  19.479  0.00  0.00    +0.000 OA
ENDROOT
BRANCH   1  14
ATOM      4  C   UNL     1       7.938   7.565  18.450  0.00  0.00    +0.000 A 
ATOM      5  C   UNL     1       8.118   6.341  19.102  0.00  0.00    +0.000 A 
ATOM      6  C   UNL     1       7.340   5.228  18.767  0.00  0.00    +0.000 A 
ATOM      7  C   UNL     1       6.418   5.311  17.727  0.00  0.00    +0.000 A 
ATOM      8  C   UNL     1       6.274   6.516  17.032  0.00  0.00    +0.000 A 
ATOM      9  C   UNL     1       7.025   7.638  17.396  0.00  0.00    +0.000 A 
ATOM     10  O   UNL     1       5.374   6.664  16.008  0.00  0.00    +0.000 OA
ATOM     11  C   UNL     1       5.758   5.913  14.854  0.00  0.00    +0.000 C 
ATOM     12  C   UNL     1       5.257   4.473  14.905  0.00  0.00    +0.000 C 
ATOM     13  C   UNL     1       5.955   3.639  15.968  0.00  0.00    +0.000 C 
ATOM     14  N   UNL     1       5.717   4.126  17.336  0.00  0.00    +0.000 N 
BRANCH   4  15
ATOM     15  N   UNL     1       8.832   8.617  18.685  0.00  0.00    +0.000 N 
ATOM     16  H   UNL     1       9.755   8.318  18.983  0.00  0.00    +0.000 HD
ATOM     17  H   UNL     1       8.459   9.357  19.272  0.00  0.00    +0.000 HD
ENDBRANCH   4  15
ENDBRANCH   1  14
BRANCH   1  18
ATOM     18  C   UNL     1       3.486   5.060  18.703  0.00  0.00    +0.000 A 
ATOM     19  C   UNL     1       3.043   5.944  17.715  0.00  0.00    +0.000 A 
ATOM     20  C   UNL     1       2.340   7.098  18.079  0.00  0.00    +0.000 A 
ATOM     21  C   UNL     1       2.072   7.390  19.426  0.00  0.00    +0.000 A 
ATOM     22  C   UNL     1       2.454   6.449  20.395  0.00  0.00    +0.000 A 
ATOM     23  C   UNL     1       3.143   5.282  20.037  0.00  0.00    +0.000 A 
BRANCH  21  24
ATOM     24  C   UNL     1       1.456   8.662  19.793  0.00  0.00    +0.000 A 
ATOM     25  C   UNL     1       1.152   9.291  20.980  0.00  0.00    +0.000 A 
ATOM     26  N   UNL     1       0.510  10.479  20.744  0.00  0.00    +0.000 NA
ATOM     27  C   UNL     1       0.428  10.540  19.431  0.00  0.00    +0.000 A 
ATOM     28  O   UNL     1       0.987   9.465  18.784  0.00  0.00    +0.000 OA
BRANCH  27  29
ATOM     29  C   UNL     1      -0.244  11.711  18.728  0.00  0.00    +0.000 C 
ATOM     30  C   UNL     1      -1.592  11.493  18.075  0.00  0.00    +0.000 C 
ATOM     31  C   UNL     1      -1.505  12.301  19.324  0.00  0.00    +0.000 C 
ENDBRANCH  27  29
ENDBRANCH  21  24
ENDBRANCH   1  18
TORSDOF 5
ENDMDL
MODEL 5
REMARK VINA RESULT:      -7.7      2.360      3.312
REMARK  Name = 
REMARK  5 active torsions:
REMARK  status: ('A' for Active; 'I' for Inactive)
REMARK    1  A    between atoms: N_1  and  C_2
REMARK    2  A    between atoms: N_12  and  S_13
REMARK    3  A    between atoms: S_13  and  C_16
REMARK    4  A    between atoms: C_19  and  C_20
REMARK    5  A    between atoms: C_23  and  C_24
REMARK                            x       y       z     vdW  Elec       q    Type
REMARK                         _______ _______ _______ _____ _____    ______ ____
ROOT
ATOM      1  S   UNL     1       0.577  10.106  20.814  0.00  0.00    +0.000 S 
ATOM      2  O   UNL     1       1.609  10.763  21.596  0.00  0.00    +0.000 OA
ATOM      3  O   UNL     1      -0.602   9.573  21.466  0.00  0.00    +0.000 OA
ENDROOT
BRANCH   1  14
ATOM      4  C   UNL     1       2.450  14.578  18.596  0.00  0.00    +0.000 A 
ATOM      5  C   UNL     1       2.805  13.298  18.159  0.00  0.00    +0.000 A 
ATOM      6  C   UNL     1       2.060  12.177  18.540  0.00  0.00    +0.000 A 
ATOM      7  C   UNL     1       0.910  12.335  19.311  0.00  0.00    +0.000 A 
ATOM      8  C   UNL     1       0.518  13.618  19.702  0.00  0.00    +0.000 A 
ATOM      9  C   UNL     1       1.287  14.732  19.353  0.00  0.00    +0.000 A 
ATOM     10  O   UNL     1      -0.596  13.836  20.472  0.00  0.00    +0.000 OA
ATOM     11  C   UNL     1      -1.799  13.566  19.749  0.00  0.00    +0.000 C 
ATOM     12  C   UNL     1      -2.203  12.097  19.822  0.00  0.00    +0.000 C 
ATOM     13  C   UNL     1      -1.260  11.183  19.055  0.00  0.00    +0.000 C 
ATOM     14  N   UNL     1       0.110  11.182  19.592  0.00  0.00    +0.000 N 
BRANCH   4  15
ATOM     15  N   UNL     1       3.109  15.698  18.075  0.00  0.00    +0.000 N 
ATOM     16  H   UNL     1       3.483  16.325  18.780  0.00  0.00    +0.000 HD
ATOM     17  H   UNL     1       2.586  16.192  17.358  0.00  0.00    +0.000 HD
ENDBRANCH   4  15
ENDBRANCH   1  14
BRANCH   1  18
ATOM     18  C   UNL     1       1.357   8.731  19.985  0.00  0.00    +0.000 A 
ATOM     19  C   UNL     1       1.736   8.849  18.645  0.00  0.00    +0.000 A 
ATOM     20  C   UNL     1       2.341   7.766  17.996  0.00  0.00    +0.000 A 
ATOM     21  C   UNL     1       2.573   6.554  18.667  0.00  0.00    +0.000 A 
ATOM     22  C   UNL     1       2.260   6.486  20.034  0.00  0.00    +0.000 A 
ATOM     23  C   UNL     1       1.669   7.571  20.696  0.00  0.00    +0.000 A 
BRANCH  21  24
ATOM     24  C   UNL     1       3.082   5.397  17.938  0.00  0.00    +0.000 A 
ATOM     25  C   UNL     1       2.704   4.078  17.816  0.00  0.00    +0.000 A 
ATOM     26  N   UNL     1       3.591   3.394  17.026  0.00  0.00    +0.000 NA
ATOM     27  C   UNL     1       4.488   4.301  16.697  0.00  0.00    +0.000 A 
ATOM     28  O   UNL     1       4.240   5.548  17.217  0.00  0.00    +0.000 OA
BRANCH  27  29
ATOM     29  C   UNL     1       5.687   3.958  15.824  0.00  0.00    +0.000 C 
ATOM     30  C   UNL     1       5.650   4.331  14.357  0.00  0.00    +0.000 C 
ATOM     31  C   UNL     1       6.546   5.080  15.282  0.00  0.00    +0.000 C 
ENDBRANCH  27  29
ENDBRANCH  21  24
ENDBRANCH   1  18
TORSDOF 5
ENDMDL
MODEL 6
REMARK VINA RESULT:      -7.6      2.196      3.113
REMARK  Name = 
REMARK  5 active torsions:
REMARK  status: ('A' for Active; 'I' for Inactive)
REMARK    1  A    between atoms: N_1  and  C_2
REMARK    2  A    between atoms: N_12  and  S_13
REMARK    3  A    between atoms: S_13  and  C_16
REMARK    4  A    between atoms: C_19  and  C_20
REMARK    5  A    between atoms: C_23  and  C_24
REMARK                            x       y       z     vdW  Elec       q    Type
REMARK                         _______ _______ _______ _____ _____    ______ ____
ROOT
ATOM      1  S   UNL     1       0.601   9.806  20.380  0.00  0.00    +0.000 S 
ATOM      2  O   UNL     1       1.542  10.588  21.162  0.00  0.00    +0.000 OA
ATOM      3  O   UNL     1      -0.576   9.241  21.008  0.00  0.00    +0.000 OA
ENDROOT
BRANCH   1  14
ATOM      4  C   UNL     1       0.941  14.918  18.904  0.00  0.00    +0.000 A 
ATOM      5  C   UNL     1       1.939  13.975  18.638  0.00  0.00    +0.000 A 
ATOM      6  C   UNL     1       1.679  12.604  18.748  0.00  0.00    +0.000 A 
ATOM      7  C   UNL     1       0.396  12.163  19.060  0.00  0.00    +0.000 A 
ATOM      8  C   UNL     1      -0.621  13.099  19.268  0.00  0.00    +0.000 A 
ATOM      9  C   UNL     1      -0.348  14.469  19.198  0.00  0.00    +0.000 A 
ATOM     10  O   UNL     1      -1.900  12.727  19.592  0.00  0.00    +0.000 OA
ATOM     11  C   UNL     1      -2.558  12.089  18.494  0.00  0.00    +0.000 C 
ATOM     12  C   UNL     1      -2.280  10.591  18.441  0.00  0.00    +0.000 C 
ATOM     13  C   UNL     1      -0.841  10.267  18.070  0.00  0.00    +0.000 C 
ATOM     14  N   UNL     1       0.136  10.755  19.056  0.00  0.00    +0.000 N 
BRANCH   4  15
ATOM     15  N   UNL     1       1.174  16.272  18.633  0.00  0.00    +0.000 N 
ATOM     16  H   UNL     1       0.383  16.876  18.827  0.00  0.00    +0.000 HD
ATOM     17  H   UNL     1       1.579  16.450  17.718  0.00  0.00    +0.000 HD
ENDBRANCH   4  15
ENDBRANCH   1  14
BRANCH   1  18
ATOM     18  C   UNL     1       1.515   8.431  19.701  0.00  0.00    +0.000 A 
ATOM     19  C   UNL     1       2.156   8.563  18.466  0.00  0.00    +0.000 A 
ATOM     20  C   UNL     1       2.866   7.480  17.933  0.00  0.00    +0.000 A 
ATOM     21  C   UNL     1       2.945   6.256  18.616  0.00  0.00    +0.000 A 
ATOM     22  C   UNL     1       2.364   6.173  19.892  0.00  0.00    +0.000 A 
ATOM     23  C   UNL     1       1.665   7.257  20.440  0.00  0.00    +0.000 A 
BRANCH  21  24
ATOM     24  C   UNL     1       3.576   5.102  17.984  0.00  0.00    +0.000 A 
ATOM     25  C   UNL     1       3.505   3.737  18.155  0.00  0.00    +0.000 A 
ATOM     26  N   UNL     1       4.376   3.100  17.309  0.00  0.00    +0.000 NA
ATOM     27  C   UNL     1       4.960   4.083  16.656  0.00  0.00    +0.000 A 
ATOM     28  O   UNL     1       4.520   5.334  17.016  0.00  0.00    +0.000 OA
BRANCH  27  29
ATOM     29  C   UNL     1       6.033   3.819  15.609  0.00  0.00    +0.000 C 
ATOM     30  C   UNL     1       5.737   4.152  14.162  0.00  0.00    +0.000 C 
ATOM     31  C   UNL     1       6.699   4.995  14.926  0.00  0.00    +0.000 C 
ENDBRANCH  27  29
ENDBRANCH  21  24
ENDBRANCH   1  18
TORSDOF 5
ENDMDL
MODEL 7
REMARK VINA RESULT:      -7.6      3.396      9.236
REMARK  Name = 
REMARK  5 active torsions:
REMARK  status: ('A' for Active; 'I' for Inactive)
REMARK    1  A    between atoms: N_1  and  C_2
REMARK    2  A    between atoms: N_12  and  S_13
REMARK    3  A    between atoms: S_13  and  C_16
REMARK    4  A    between atoms: C_19  and  C_20
REMARK    5  A    between atoms: C_23  and  C_24
REMARK                            x       y       z     vdW  Elec       q    Type
REMARK                         _______ _______ _______ _____ _____    ______ ____
ROOT
ATOM      1  S   UNL     1       4.360   3.639  18.262  0.00  0.00    +0.000 S 
ATOM      2  O   UNL     1       3.502   2.881  17.370  0.00  0.00    +0.000 OA
ATOM      3  O   UNL     1       4.804   3.058  19.513  0.00  0.00    +0.000 OA
ENDROOT
BRANCH   1  14
ATOM      4  C   UNL     1       7.962   7.564  18.453  0.00  0.00    +0.000 A 
ATOM      5  C   UNL     1       8.118   6.347  19.125  0.00  0.00    +0.000 A 
ATOM      6  C   UNL     1       7.327   5.240  18.797  0.00  0.00    +0.000 A 
ATOM      7  C   UNL     1       6.418   5.322  17.745  0.00  0.00    +0.000 A 
ATOM      8  C   UNL     1       6.300   6.519  17.031  0.00  0.00    +0.000 A 
ATOM      9  C   UNL     1       7.063   7.635  17.388  0.00  0.00    +0.000 A 
ATOM     10  O   UNL     1       5.413   6.665  15.996  0.00  0.00    +0.000 OA
ATOM     11  C   UNL     1       5.800   5.892  14.857  0.00  0.00    +0.000 C 
ATOM     12  C   UNL     1       5.277   4.460  14.922  0.00  0.00    +0.000 C 
ATOM     13  C   UNL     1       5.951   3.632  16.005  0.00  0.00    +0.000 C 
ATOM     14  N   UNL     1       5.704   4.142  17.363  0.00  0.00    +0.000 N 
BRANCH   4  15
ATOM     15  N   UNL     1       8.869   8.606  18.684  0.00  0.00    +0.000 N 
ATOM     16  H   UNL     1       9.748   8.509  18.188  0.00  0.00    +0.000 HD
ATOM     17  H   UNL     1       9.003   8.831  19.666  0.00  0.00    +0.000 HD
ENDBRANCH   4  15
ENDBRANCH   1  14
BRANCH   1  18
ATOM     18  C   UNL     1       3.470   5.127  18.689  0.00  0.00    +0.000 A 
ATOM     19  C   UNL     1       3.038   5.994  17.681  0.00  0.00    +0.000 A 
ATOM     20  C   UNL     1       2.347   7.163  18.019  0.00  0.00    +0.000 A 
ATOM     21  C   UNL     1       2.081   7.487  19.359  0.00  0.00    +0.000 A 
ATOM     22  C   UNL     1       2.451   6.563  20.349  0.00  0.00    +0.000 A 
ATOM     23  C   UNL     1       3.129   5.381  20.018  0.00  0.00    +0.000 A 
BRANCH  21  24
ATOM     24  C   UNL     1       1.478   8.772  19.697  0.00  0.00    +0.000 A 
ATOM     25  C   UNL     1       0.637   9.224  20.692  0.00  0.00    +0.000 A 
ATOM     26  N   UNL     1       0.330  10.546  20.499  0.00  0.00    +0.000 NA
ATOM     27  C   UNL     1       0.975  10.864  19.396  0.00  0.00    +0.000 A 
ATOM     28  O   UNL     1       1.698   9.830  18.852  0.00  0.00    +0.000 OA
BRANCH  27  29
ATOM     29  C   UNL     1       0.893  12.262  18.799  0.00  0.00    +0.000 C 
ATOM     30  C   UNL     1       1.601  13.398  19.507  0.00  0.00    +0.000 C 
ATOM     31  C   UNL     1       2.143  12.886  18.217  0.00  0.00    +0.000 C 
ENDBRANCH  27  29
ENDBRANCH  21  24
ENDBRANCH   1  18
TORSDOF 5
ENDMDL
MODEL 8
REMARK VINA RESULT:      -7.4      2.273      3.314
REMARK  Name = 
REMARK  5 active torsions:
REMARK  status: ('A' for Active; 'I' for Inactive)
REMARK    1  A    between atoms: N_1  and  C_2
REMARK    2  A    between atoms: N_12  and  S_13
REMARK    3  A    between atoms: S_13  and  C_16
REMARK    4  A    between atoms: C_19  and  C_20
REMARK    5  A    between atoms: C_23  and  C_24
REMARK                            x       y       z     vdW  Elec       q    Type
REMARK                         _______ _______ _______ _____ _____    ______ ____
ROOT
ATOM      1  S   UNL     1       0.491   9.704  20.265  0.00  0.00    +0.000 S 
ATOM      2  O   UNL     1       1.253  10.541  21.175  0.00  0.00    +0.000 OA
ATOM      3  O   UNL     1      -0.662   8.969  20.744  0.00  0.00    +0.000 OA
ENDROOT
BRANCH   1  14
ATOM      4  C   UNL     1       0.799  14.844  18.884  0.00  0.00    +0.000 A 
ATOM      5  C   UNL     1       1.813  13.917  18.621  0.00  0.00    +0.000 A 
ATOM      6  C   UNL     1       1.567  12.542  18.702  0.00  0.00    +0.000 A 
ATOM      7  C   UNL     1       0.283  12.080  18.982  0.00  0.00    +0.000 A 
ATOM      8  C   UNL     1      -0.748  13.002  19.188  0.00  0.00    +0.000 A 
ATOM      9  C   UNL     1      -0.489  14.375  19.146  0.00  0.00    +0.000 A 
ATOM     10  O   UNL     1      -2.029  12.609  19.480  0.00  0.00    +0.000 OA
ATOM     11  C   UNL     1      -2.658  11.984  18.359  0.00  0.00    +0.000 C 
ATOM     12  C   UNL     1      -2.362  10.489  18.286  0.00  0.00    +0.000 C 
ATOM     13  C   UNL     1      -0.913  10.188  17.937  0.00  0.00    +0.000 C 
ATOM     14  N   UNL     1       0.040  10.670  18.949  0.00  0.00    +0.000 N 
BRANCH   4  15
ATOM     15  N   UNL     1       1.022  16.205  18.640  0.00  0.00    +0.000 N 
ATOM     16  H   UNL     1       1.753  16.615  19.212  0.00  0.00    +0.000 HD
ATOM     17  H   UNL     1       0.178  16.769  18.632  0.00  0.00    +0.000 HD
ENDBRANCH   4  15
ENDBRANCH   1  14
BRANCH   1  18
ATOM     18  C   UNL     1       1.625   8.488  19.615  0.00  0.00    +0.000 A 
ATOM     19  C   UNL     1       1.879   7.317  20.334  0.00  0.00    +0.000 A 
ATOM     20  C   UNL     1       2.774   6.368  19.825  0.00  0.00    +0.000 A 
ATOM     21  C   UNL     1       3.430   6.574  18.600  0.00  0.00    +0.000 A 
ATOM     22  C   UNL     1       3.099   7.717  17.856  0.00  0.00    +0.000 A 
ATOM     23  C   UNL     1       2.191   8.664  18.351  0.00  0.00    +0.000 A 
BRANCH  21  24
ATOM     24  C   UNL     1       4.457   5.638  18.152  0.00  0.00    +0.000 A 
ATOM     25  C   UNL     1       5.538   5.021  18.743  0.00  0.00    +0.000 A 
ATOM     26  N   UNL     1       6.219   4.262  17.827  0.00  0.00    +0.000 NA
ATOM     27  C   UNL     1       5.550   4.441  16.706  0.00  0.00    +0.000 A 
ATOM     28  O   UNL     1       4.460   5.268  16.831  0.00  0.00    +0.000 OA
BRANCH  27  29
ATOM     29  C   UNL     1       5.983   3.781  15.405  0.00  0.00    +0.000 C 
ATOM     30  C   UNL     1       5.464   4.341  14.097  0.00  0.00    +0.000 C 
ATOM     31  C   UNL     1       6.894   4.540  14.464  0.00  0.00    +0.000 C 
ENDBRANCH  27  29
ENDBRANCH  21  24
ENDBRANCH   1  18
TORSDOF 5
ENDMDL
MODEL 9
REMARK VINA RESULT:      -7.3      2.742      3.750
REMARK  Name = 
REMARK  5 active torsions:
REMARK  status: ('A' for Active; 'I' for Inactive)
REMARK    1  A    between atoms: N_1  and  C_2
REMARK    2  A    between atoms: N_12  and  S_13
REMARK    3  A    between atoms: S_13  and  C_16
REMARK    4  A    between atoms: C_19  and  C_20
REMARK    5  A    between atoms: C_23  and  C_24
REMARK                            x       y       z     vdW  Elec       q    Type
REMARK                         _______ _______ _______ _____ _____    ______ ____
ROOT
ATOM      1  S   UNL     1      -1.304  12.396  22.436  0.00  0.00    +0.000 S 
ATOM      2  O   UNL     1      -0.347  13.239  23.130  0.00  0.00    +0.000 OA
ATOM      3  O   UNL     1      -2.478  11.906  23.128  0.00  0.00    +0.000 OA
ENDROOT
BRANCH   1  14
ATOM      4  C   UNL     1      -4.616  11.583  18.339  0.00  0.00    +0.000 A 
ATOM      5  C   UNL     1      -5.013  12.179  19.539  0.00  0.00    +0.000 A 
ATOM      6  C   UNL     1      -4.066  12.664  20.449  0.00  0.00    +0.000 A 
ATOM      7  C   UNL     1      -2.711  12.616  20.132  0.00  0.00    +0.000 A 
ATOM      8  C   UNL     1      -2.310  12.075  18.907  0.00  0.00    +0.000 A 
ATOM      9  C   UNL     1      -3.257  11.555  18.019  0.00  0.00    +0.000 A 
ATOM     10  O   UNL     1      -0.991  11.988  18.545  0.00  0.00    +0.000 OA
ATOM     11  C   UNL     1      -0.427  13.277  18.289  0.00  0.00    +0.000 C 
ATOM     12  C   UNL     1       0.104  13.941  19.555  0.00  0.00    +0.000 C 
ATOM     13  C   UNL     1      -0.999  14.356  20.515  0.00  0.00    +0.000 C 
ATOM     14  N   UNL     1      -1.775  13.219  21.033  0.00  0.00    +0.000 N 
BRANCH   4  15
ATOM     15  N   UNL     1      -5.576  11.254  17.374  0.00  0.00    +0.000 N 
ATOM     16  H   UNL     1      -6.465  11.730  17.494  0.00  0.00    +0.000 HD
ATOM     17  H   UNL     1      -5.691  10.255  17.226  0.00  0.00    +0.000 HD
ENDBRANCH   4  15
ENDBRANCH   1  14
BRANCH   1  18
ATOM     18  C   UNL     1      -0.410  10.953  21.882  0.00  0.00    +0.000 A 
ATOM     19  C   UNL     1       0.703  11.100  21.049  0.00  0.00    +0.000 A 
ATOM     20  C   UNL     1       1.397   9.966  20.610  0.00  0.00    +0.000 A 
ATOM     21  C   UNL     1       0.993   8.676  20.990  0.00  0.00    +0.000 A 
ATOM     22  C   UNL     1      -0.075   8.556  21.892  0.00  0.00    +0.000 A 
ATOM     23  C   UNL     1      -0.766   9.687  22.349  0.00  0.00    +0.000 A 
BRANCH  21  24
ATOM     24  C   UNL     1       1.648   7.504  20.416  0.00  0.00    +0.000 A 
ATOM     25  C   UNL     1       2.435   7.271  19.309  0.00  0.00    +0.000 A 
ATOM     26  N   UNL     1       2.743   5.939  19.209  0.00  0.00    +0.000 NA
ATOM     27  C   UNL     1       2.132   5.394  20.241  0.00  0.00    +0.000 A 
ATOM     28  O   UNL     1       1.446   6.291  21.024  0.00  0.00    +0.000 OA
BRANCH  27  29
ATOM     29  C   UNL     1       2.196   3.896  20.506  0.00  0.00    +0.000 C 
ATOM     30  C   UNL     1       0.980   3.049  20.196  0.00  0.00    +0.000 C 
ATOM     31  C   UNL     1       2.189   2.942  19.331  0.00  0.00    +0.000 C 
ENDBRANCH  27  29
ENDBRANCH  21  24
ENDBRANCH   1  18
TORSDOF 5
ENDMDL
