MODEL 1
REMARK VINA RESULT:      -8.9      0.000      0.000
REMARK  Name = 
REMARK  3 active torsions:
REMARK  status: ('A' for Active; 'I' for Inactive)
REMARK    1  A    between atoms: C_9  and  O_10
REMARK    2  A    between atoms: C_13  and  C_14
REMARK    3  A    between atoms: C_14  and  C_15
REMARK                            x       y       z     vdW  Elec       q    Type
REMARK                         _______ _______ _______ _____ _____    ______ ____
ROOT
ATOM      1  N   UNL     1       6.927   5.524  15.204  0.00  0.00    +0.000 N 
ATOM      2  C   UNL     1       5.840   5.436  15.960  0.00  0.00    +0.000 A 
ATOM      3  N   UNL     1       5.412   4.199  16.341  0.00  0.00    +0.000 NA
ATOM      4  C   UNL     1       4.365   4.476  17.089  0.00  0.00    +0.000 A 
ATOM      5  C   UNL     1       3.461   3.638  17.849  0.00  0.00    +0.000 A 
ATOM      6  C   UNL     1       3.561   2.245  17.847  0.00  0.00    +0.000 A 
ATOM      7  C   UNL     1       2.676   1.491  18.616  0.00  0.00    +0.000 A 
ATOM      8  C   UNL     1       1.706   2.125  19.395  0.00  0.00    +0.000 A 
ATOM      9  C   UNL     1       1.607   3.519  19.391  0.00  0.00    +0.000 A 
ATOM     10  C   UNL     1       2.468   4.302  18.607  0.00  0.00    +0.000 A 
ATOM     11  N   UNL     1       2.344   5.724  18.602  0.00  0.00    +0.000 NA
ATOM     12  C   UNL     1       3.176   6.434  17.891  0.00  0.00    +0.000 A 
ATOM     13  N   UNL     1       4.185   5.830  17.136  0.00  0.00    +0.000 N 
ATOM     14  N   UNL     1       5.100   6.463  16.371  0.00  0.00    +0.000 NA
ATOM     15  H   UNL     1       7.254   4.689  14.737  0.00  0.00    +0.000 HD
ATOM     16  H   UNL     1       7.118   6.395  14.728  0.00  0.00    +0.000 HD
ENDROOT
BRANCH   9  17
ATOM     17  O   UNL     1       0.664   4.137  20.167  0.00  0.00    +0.000 OA
ATOM     18  H   UNL     1       0.279   3.492  20.778  0.00  0.00    +0.000 HD
ENDBRANCH   9  17
BRANCH  12  19
ATOM     19  C   UNL     1       3.166   7.946  17.901  0.00  0.00    +0.000 C 
BRANCH  19  20
ATOM     20  C   UNL     1       1.932   8.448  18.621  0.00  0.00    +0.000 A 
ATOM     21  C   UNL     1       1.782   8.208  20.009  0.00  0.00    +0.000 A 
ATOM     22  C   UNL     1       0.846   8.922  20.761  0.00  0.00    +0.000 A 
ATOM     23  C   UNL     1       0.103   9.875  20.100  0.00  0.00    +0.000 A 
ATOM     24  C   UNL     1       0.186  10.046  18.736  0.00  0.00    +0.000 A 
ATOM     25  C   UNL     1       1.060   9.324  17.960  0.00  0.00    +0.000 A 
ATOM     26  O   UNL     1      -0.583  11.083  18.301  0.00  0.00    +0.000 OA
ATOM     27  C   UNL     1      -0.863  11.711  19.566  0.00  0.00    +0.000 C 
ATOM     28  O   UNL     1      -0.707  10.805  20.679  0.00  0.00    +0.000 OA
ENDBRANCH  19  20
ENDBRANCH  12  19
TORSDOF 3
ENDMDL
MODEL 2
REMARK VINA RESULT:      -8.8      2.137      3.912
REMARK  Name = 
REMARK  3 active torsions:
REMARK  status: ('A' for Active; 'I' for Inactive)
REMARK    1  A    between atoms: C_9  and  O_10
REMARK    2  A    between atoms: C_13  and  C_14
REMARK    3  A    between atoms: C_14  and  C_15
REMARK                            x       y       z     vdW  Elec       q    Type
REMARK                         _______ _______ _______ _____ _____    ______ ____
ROOT
ATOM      1  N   UNL     1       0.961   1.610  18.505  0.00  0.00    +0.000 N 
ATOM      2  C   UNL     1       1.853   2.590  18.418  0.00  0.00    +0.000 A 
ATOM      3  N   UNL     1       2.822   2.503  17.463  0.00  0.00    +0.000 NA
ATOM      4  C   UNL     1       3.490   3.625  17.631  0.00  0.00    +0.000 A 
ATOM      5  C   UNL     1       4.616   4.203  16.927  0.00  0.00    +0.000 A 
ATOM      6  C   UNL     1       5.257   3.539  15.879  0.00  0.00    +0.000 A 
ATOM      7  C   UNL     1       6.323   4.155  15.224  0.00  0.00    +0.000 A 
ATOM      8  C   UNL     1       6.737   5.434  15.604  0.00  0.00    +0.000 A 
ATOM      9  C   UNL     1       6.094   6.092  16.657  0.00  0.00    +0.000 A 
ATOM     10  C   UNL     1       5.035   5.486  17.350  0.00  0.00    +0.000 A 
ATOM     11  N   UNL     1       4.400   6.166  18.432  0.00  0.00    +0.000 NA
ATOM     12  C   UNL     1       3.397   5.597  19.042  0.00  0.00    +0.000 A 
ATOM     13  N   UNL     1       2.932   4.338  18.655  0.00  0.00    +0.000 N 
ATOM     14  N   UNL     1       1.904   3.659  19.208  0.00  0.00    +0.000 NA
ATOM     15  H   UNL     1       1.166   0.735  18.043  0.00  0.00    +0.000 HD
ATOM     16  H   UNL     1       0.394   1.543  19.339  0.00  0.00    +0.000 HD
ENDROOT
BRANCH   9  17
ATOM     17  O   UNL     1       6.494   7.351  17.017  0.00  0.00    +0.000 OA
ATOM     18  H   UNL     1       7.454   7.359  17.141  0.00  0.00    +0.000 HD
ENDBRANCH   9  17
BRANCH  12  19
ATOM     19  C   UNL     1       2.617   6.287  20.138  0.00  0.00    +0.000 C 
BRANCH  19  20
ATOM     20  C   UNL     1       2.148   7.645  19.659  0.00  0.00    +0.000 A 
ATOM     21  C   UNL     1       2.231   7.973  18.283  0.00  0.00    +0.000 A 
ATOM     22  C   UNL     1       1.519   9.057  17.763  0.00  0.00    +0.000 A 
ATOM     23  C   UNL     1       0.727   9.767  18.635  0.00  0.00    +0.000 A 
ATOM     24  C   UNL     1       0.715   9.504  19.988  0.00  0.00    +0.000 A 
ATOM     25  C   UNL     1       1.443   8.478  20.539  0.00  0.00    +0.000 A 
ATOM     26  O   UNL     1      -0.186  10.280  20.654  0.00  0.00    +0.000 OA
ATOM     27  C   UNL     1      -0.934  10.782  19.531  0.00  0.00    +0.000 C 
ATOM     28  O   UNL     1      -0.187  10.719  18.296  0.00  0.00    +0.000 OA
ENDBRANCH  19  20
ENDBRANCH  12  19
TORSDOF 3
ENDMDL
MODEL 3
REMARK VINA RESULT:      -8.6      3.852      6.670
REMARK  Name = 
REMARK  3 active torsions:
REMARK  status: ('A' for Active; 'I' for Inactive)
REMARK    1  A    between atoms: C_9  and  O_10
REMARK    2  A    between atoms: C_13  and  C_14
REMARK    3  A    between atoms: C_14  and  C_15
REMARK                            x       y       z     vdW  Elec       q    Type
REMARK                         _______ _______ _______ _____ _____    ______ ____
ROOT
ATOM      1  N   UNL     1       1.662   9.183  17.796  0.00  0.00    +0.000 N 
ATOM      2  C   UNL     1       2.339   8.098  18.155  0.00  0.00    +0.000 A 
ATOM      3  N   UNL     1       1.724   7.186  18.961  0.00  0.00    +0.000 NA
ATOM      4  C   UNL     1       2.641   6.249  19.083  0.00  0.00    +0.000 A 
ATOM      5  C   UNL     1       2.642   4.971  19.764  0.00  0.00    +0.000 A 
ATOM      6  C   UNL     1       1.554   4.530  20.520  0.00  0.00    +0.000 A 
ATOM      7  C   UNL     1       1.605   3.281  21.136  0.00  0.00    +0.000 A 
ATOM      8  C   UNL     1       2.731   2.468  20.985  0.00  0.00    +0.000 A 
ATOM      9  C   UNL     1       3.819   2.916  20.230  0.00  0.00    +0.000 A 
ATOM     10  C   UNL     1       3.806   4.179  19.620  0.00  0.00    +0.000 A 
ATOM     11  N   UNL     1       4.932   4.627  18.866  0.00  0.00    +0.000 NA
ATOM     12  C   UNL     1       4.885   5.792  18.281  0.00  0.00    +0.000 A 
ATOM     13  N   UNL     1       3.755   6.608  18.378  0.00  0.00    +0.000 N 
ATOM     14  N   UNL     1       3.595   7.824  17.813  0.00  0.00    +0.000 NA
ATOM     15  H   UNL     1       0.827   9.419  18.315  0.00  0.00    +0.000 HD
ATOM     16  H   UNL     1       2.170   9.963  17.404  0.00  0.00    +0.000 HD
ENDROOT
BRANCH   9  17
ATOM     17  O   UNL     1       4.915   2.110  20.073  0.00  0.00    +0.000 OA
ATOM     18  H   UNL     1       4.883   1.394  20.724  0.00  0.00    +0.000 HD
ENDBRANCH   9  17
BRANCH  12  19
ATOM     19  C   UNL     1       6.000   6.300  17.394  0.00  0.00    +0.000 C 
BRANCH  19  20
ATOM     20  C   UNL     1       6.214   5.344  16.239  0.00  0.00    +0.000 A 
ATOM     21  C   UNL     1       5.230   4.369  15.941  0.00  0.00    +0.000 A 
ATOM     22  C   UNL     1       5.232   3.705  14.712  0.00  0.00    +0.000 A 
ATOM     23  C   UNL     1       6.208   4.056  13.808  0.00  0.00    +0.000 A 
ATOM     24  C   UNL     1       7.217   4.938  14.131  0.00  0.00    +0.000 A 
ATOM     25  C   UNL     1       7.273   5.569  15.349  0.00  0.00    +0.000 A 
ATOM     26  O   UNL     1       8.035   5.192  13.072  0.00  0.00    +0.000 OA
ATOM     27  C   UNL     1       7.225   4.642  12.016  0.00  0.00    +0.000 C 
ATOM     28  O   UNL     1       6.264   3.679  12.500  0.00  0.00    +0.000 OA
ENDBRANCH  19  20
ENDBRANCH  12  19
TORSDOF 3
ENDMDL
MODEL 4
REMARK VINA RESULT:      -8.5      1.550      1.561
REMARK  Name = 
REMARK  3 active torsions:
REMARK  status: ('A' for Active; 'I' for Inactive)
REMARK    1  A    between atoms: C_9  and  O_10
REMARK    2  A    between atoms: C_13  and  C_14
REMARK    3  A    between atoms: C_14  and  C_15
REMARK                            x       y       z     vdW  Elec       q    Type
REMARK                         _______ _______ _______ _____ _____    ______ ____
ROOT
ATOM      1  N   UNL     1       8.166   6.209  19.017  0.00  0.00    +0.000 N 
ATOM      2  C   UNL     1       6.916   5.872  18.723  0.00  0.00    +0.000 A 
ATOM      3  N   UNL     1       6.536   4.573  18.895  0.00  0.00    +0.000 NA
ATOM      4  C   UNL     1       5.265   4.600  18.555  0.00  0.00    +0.000 A 
ATOM      5  C   UNL     1       4.237   3.579  18.545  0.00  0.00    +0.000 A 
ATOM      6  C   UNL     1       4.505   2.252  18.887  0.00  0.00    +0.000 A 
ATOM      7  C   UNL     1       3.470   1.318  18.880  0.00  0.00    +0.000 A 
ATOM      8  C   UNL     1       2.172   1.710  18.547  0.00  0.00    +0.000 A 
ATOM      9  C   UNL     1       1.910   3.039  18.201  0.00  0.00    +0.000 A 
ATOM     10  C   UNL     1       2.936   3.995  18.175  0.00  0.00    +0.000 A 
ATOM     11  N   UNL     1       2.655   5.345  17.805  0.00  0.00    +0.000 NA
ATOM     12  C   UNL     1       3.618   6.224  17.819  0.00  0.00    +0.000 A 
ATOM     13  N   UNL     1       4.918   5.871  18.190  0.00  0.00    +0.000 N 
ATOM     14  N   UNL     1       5.987   6.695  18.245  0.00  0.00    +0.000 NA
ATOM     15  H   UNL     1       8.849   5.471  19.118  0.00  0.00    +0.000 HD
ATOM     16  H   UNL     1       8.522   7.093  18.680  0.00  0.00    +0.000 HD
ENDROOT
BRANCH   9  17
ATOM     17  O   UNL     1       0.633   3.422  17.889  0.00  0.00    +0.000 OA
ATOM     18  H   UNL     1       0.517   4.359  18.107  0.00  0.00    +0.000 HD
ENDBRANCH   9  17
BRANCH  12  19
ATOM     19  C   UNL     1       3.384   7.689  17.524  0.00  0.00    +0.000 C 
BRANCH  19  20
ATOM     20  C   UNL     1       2.251   8.211  18.382  0.00  0.00    +0.000 A 
ATOM     21  C   UNL     1       2.106   7.749  19.713  0.00  0.00    +0.000 A 
ATOM     22  C   UNL     1       1.299   8.435  20.624  0.00  0.00    +0.000 A 
ATOM     23  C   UNL     1       0.678   9.579  20.178  0.00  0.00    +0.000 A 
ATOM     24  C   UNL     1       0.747   9.979  18.861  0.00  0.00    +0.000 A 
ATOM     25  C   UNL     1       1.491   9.298  17.929  0.00  0.00    +0.000 A 
ATOM     26  O   UNL     1       0.118  11.169  18.652  0.00  0.00    +0.000 OA
ATOM     27  C   UNL     1      -0.038  11.592  20.020  0.00  0.00    +0.000 C 
ATOM     28  O   UNL     1       0.020  10.489  20.950  0.00  0.00    +0.000 OA
ENDBRANCH  19  20
ENDBRANCH  12  19
TORSDOF 3
ENDMDL
MODEL 5
REMARK VINA RESULT:      -8.3      2.326      3.935
REMARK  Name = 
REMARK  3 active torsions:
REMARK  status: ('A' for Active; 'I' for Inactive)
REMARK    1  A    between atoms: C_9  and  O_10
REMARK    2  A    between atoms: C_13  and  C_14
REMARK    3  A    between atoms: C_14  and  C_15
REMARK                            x       y       z     vdW  Elec       q    Type
REMARK                         _______ _______ _______ _____ _____    ______ ____
ROOT
ATOM      1  N   UNL     1       1.066   1.532  18.600  0.00  0.00    +0.000 N 
ATOM      2  C   UNL     1       1.973   2.495  18.483  0.00  0.00    +0.000 A 
ATOM      3  N   UNL     1       2.820   2.463  17.414  0.00  0.00    +0.000 NA
ATOM      4  C   UNL     1       3.539   3.551  17.586  0.00  0.00    +0.000 A 
ATOM      5  C   UNL     1       4.593   4.157  16.799  0.00  0.00    +0.000 A 
ATOM      6  C   UNL     1       5.084   3.566  15.634  0.00  0.00    +0.000 A 
ATOM      7  C   UNL     1       6.085   4.207  14.906  0.00  0.00    +0.000 A 
ATOM      8  C   UNL     1       6.582   5.441  15.331  0.00  0.00    +0.000 A 
ATOM      9  C   UNL     1       6.091   6.027  16.500  0.00  0.00    +0.000 A 
ATOM     10  C   UNL     1       5.101   5.393  17.267  0.00  0.00    +0.000 A 
ATOM     11  N   UNL     1       4.621   5.998  18.467  0.00  0.00    +0.000 NA
ATOM     12  C   UNL     1       3.678   5.405  19.147  0.00  0.00    +0.000 A 
ATOM     13  N   UNL     1       3.130   4.192  18.723  0.00  0.00    +0.000 N 
ATOM     14  N   UNL     1       2.152   3.495  19.340  0.00  0.00    +0.000 NA
ATOM     15  H   UNL     1       1.186   0.693  18.050  0.00  0.00    +0.000 HD
ATOM     16  H   UNL     1       0.599   1.412  19.488  0.00  0.00    +0.000 HD
ENDROOT
BRANCH   9  17
ATOM     17  O   UNL     1       6.571   7.244  16.906  0.00  0.00    +0.000 OA
ATOM     18  H   UNL     1       5.992   7.603  17.595  0.00  0.00    +0.000 HD
ENDBRANCH   9  17
BRANCH  12  19
ATOM     19  C   UNL     1       3.056   6.023  20.379  0.00  0.00    +0.000 C 
BRANCH  19  20
ATOM     20  C   UNL     1       2.156   7.174  19.979  0.00  0.00    +0.000 A 
ATOM     21  C   UNL     1       1.323   7.784  20.948  0.00  0.00    +0.000 A 
ATOM     22  C   UNL     1       0.742   9.032  20.707  0.00  0.00    +0.000 A 
ATOM     23  C   UNL     1       1.033   9.641  19.508  0.00  0.00    +0.000 A 
ATOM     24  C   UNL     1       1.771   9.009  18.530  0.00  0.00    +0.000 A 
ATOM     25  C   UNL     1       2.313   7.761  18.716  0.00  0.00    +0.000 A 
ATOM     26  O   UNL     1       1.995   9.815  17.454  0.00  0.00    +0.000 OA
ATOM     27  C   UNL     1       1.610  11.078  18.028  0.00  0.00    +0.000 C 
ATOM     28  O   UNL     1       0.736  10.926  19.166  0.00  0.00    +0.000 OA
ENDBRANCH  19  20
ENDBRANCH  12  19
TORSDOF 3
ENDMDL
MODEL 6
REMARK VINA RESULT:      -8.3      3.024      6.672
REMARK  Name = 
REMARK  3 active torsions:
REMARK  status: ('A' for Active; 'I' for Inactive)
REMARK    1  A    between atoms: C_9  and  O_10
REMARK    2  A    between atoms: C_13  and  C_14
REMARK    3  A    between atoms: C_14  and  C_15
REMARK                            x       y       z     vdW  Elec       q    Type
REMARK                         _______ _______ _______ _____ _____    ______ ____
ROOT
ATOM      1  N   UNL     1       2.089   2.241  22.070  0.00  0.00    +0.000 N 
ATOM      2  C   UNL     1       2.094   3.243  21.199  0.00  0.00    +0.000 A 
ATOM      3  N   UNL     1       1.634   4.461  21.607  0.00  0.00    +0.000 NA
ATOM      4  C   UNL     1       1.811   5.206  20.537  0.00  0.00    +0.000 A 
ATOM      5  C   UNL     1       1.581   6.613  20.281  0.00  0.00    +0.000 A 
ATOM      6  C   UNL     1       1.021   7.461  21.239  0.00  0.00    +0.000 A 
ATOM      7  C   UNL     1       0.843   8.811  20.942  0.00  0.00    +0.000 A 
ATOM      8  C   UNL     1       1.236   9.316  19.701  0.00  0.00    +0.000 A 
ATOM      9  C   UNL     1       1.793   8.463  18.744  0.00  0.00    +0.000 A 
ATOM     10  C   UNL     1       1.961   7.095  19.005  0.00  0.00    +0.000 A 
ATOM     11  N   UNL     1       2.516   6.234  18.011  0.00  0.00    +0.000 NA
ATOM     12  C   UNL     1       2.692   4.971  18.288  0.00  0.00    +0.000 A 
ATOM     13  N   UNL     1       2.349   4.446  19.536  0.00  0.00    +0.000 N 
ATOM     14  N   UNL     1       2.492   3.163  19.932  0.00  0.00    +0.000 NA
ATOM     15  H   UNL     1       1.532   2.338  22.907  0.00  0.00    +0.000 HD
ATOM     16  H   UNL     1       2.202   1.298  21.724  0.00  0.00    +0.000 HD
ENDROOT
BRANCH   9  17
ATOM     17  O   UNL     1       2.190   8.965  17.533  0.00  0.00    +0.000 OA
ATOM     18  H   UNL     1       2.262   8.240  16.895  0.00  0.00    +0.000 HD
ENDBRANCH   9  17
BRANCH  12  19
ATOM     19  C   UNL     1       3.354   4.014  17.322  0.00  0.00    +0.000 C 
BRANCH  19  20
ATOM     20  C   UNL     1       4.764   4.478  17.023  0.00  0.00    +0.000 A 
ATOM     21  C   UNL     1       5.176   4.657  15.679  0.00  0.00    +0.000 A 
ATOM     22  C   UNL     1       6.329   5.385  15.376  0.00  0.00    +0.000 A 
ATOM     23  C   UNL     1       7.024   5.932  16.431  0.00  0.00    +0.000 A 
ATOM     24  C   UNL     1       6.675   5.683  17.740  0.00  0.00    +0.000 A 
ATOM     25  C   UNL     1       5.575   4.929  18.073  0.00  0.00    +0.000 A 
ATOM     26  O   UNL     1       7.454   6.373  18.619  0.00  0.00    +0.000 OA
ATOM     27  C   UNL     1       8.069   7.300  17.705  0.00  0.00    +0.000 C 
ATOM     28  O   UNL     1       8.045   6.829  16.340  0.00  0.00    +0.000 OA
ENDBRANCH  19  20
ENDBRANCH  12  19
TORSDOF 3
ENDMDL
MODEL 7
REMARK VINA RESULT:      -8.3      1.278      1.296
REMARK  Name = 
REMARK  3 active torsions:
REMARK  status: ('A' for Active; 'I' for Inactive)
REMARK    1  A    between atoms: C_9  and  O_10
REMARK    2  A    between atoms: C_13  and  C_14
REMARK    3  A    between atoms: C_14  and  C_15
REMARK                            x       y       z     vdW  Elec       q    Type
REMARK                         _______ _______ _______ _____ _____    ______ ____
ROOT
ATOM      1  N   UNL     1       7.415   6.706  16.705  0.00  0.00    +0.000 N 
ATOM      2  C   UNL     1       6.230   6.386  17.212  0.00  0.00    +0.000 A 
ATOM      3  N   UNL     1       6.089   5.171  17.815  0.00  0.00    +0.000 NA
ATOM      4  C   UNL     1       4.838   5.199  18.225  0.00  0.00    +0.000 A 
ATOM      5  C   UNL     1       4.038   4.255  18.977  0.00  0.00    +0.000 A 
ATOM      6  C   UNL     1       4.533   3.011  19.373  0.00  0.00    +0.000 A 
ATOM      7  C   UNL     1       3.723   2.153  20.115  0.00  0.00    +0.000 A 
ATOM      8  C   UNL     1       2.430   2.541  20.473  0.00  0.00    +0.000 A 
ATOM      9  C   UNL     1       1.938   3.786  20.071  0.00  0.00    +0.000 A 
ATOM     10  C   UNL     1       2.722   4.659  19.302  0.00  0.00    +0.000 A 
ATOM     11  N   UNL     1       2.198   5.921  18.886  0.00  0.00    +0.000 NA
ATOM     12  C   UNL     1       2.956   6.731  18.200  0.00  0.00    +0.000 A 
ATOM     13  N   UNL     1       4.268   6.388  17.864  0.00  0.00    +0.000 N 
ATOM     14  N   UNL     1       5.140   7.146  17.165  0.00  0.00    +0.000 NA
ATOM     15  H   UNL     1       8.089   5.966  16.561  0.00  0.00    +0.000 HD
ATOM     16  H   UNL     1       7.473   7.483  16.062  0.00  0.00    +0.000 HD
ENDROOT
BRANCH   9  17
ATOM     17  O   UNL     1       0.675   4.168  20.435  0.00  0.00    +0.000 OA
ATOM     18  H   UNL     1       0.727   4.970  20.976  0.00  0.00    +0.000 HD
ENDBRANCH   9  17
BRANCH  12  19
ATOM     19  C   UNL     1       2.506   8.117  17.797  0.00  0.00    +0.000 C 
BRANCH  19  20
ATOM     20  C   UNL     1       1.665   8.725  18.900  0.00  0.00    +0.000 A 
ATOM     21  C   UNL     1       1.758   8.215  20.219  0.00  0.00    +0.000 A 
ATOM     22  C   UNL     1       1.265   8.943  21.304  0.00  0.00    +0.000 A 
ATOM     23  C   UNL     1       0.712  10.175  21.036  0.00  0.00    +0.000 A 
ATOM     24  C   UNL     1       0.541  10.632  19.748  0.00  0.00    +0.000 A 
ATOM     25  C   UNL     1       0.969   9.917  18.656  0.00  0.00    +0.000 A 
ATOM     26  O   UNL     1       0.037  11.897  19.714  0.00  0.00    +0.000 OA
ATOM     27  C   UNL     1       0.241  12.264  21.092  0.00  0.00    +0.000 C 
ATOM     28  O   UNL     1       0.361  11.115  21.958  0.00  0.00    +0.000 OA
ENDBRANCH  19  20
ENDBRANCH  12  19
TORSDOF 3
ENDMDL
MODEL 8
REMARK VINA RESULT:      -8.3      1.360      1.923
REMARK  Name = 
REMARK  3 active torsions:
REMARK  status: ('A' for Active; 'I' for Inactive)
REMARK    1  A    between atoms: C_9  and  O_10
REMARK    2  A    between atoms: C_13  and  C_14
REMARK    3  A    between atoms: C_14  and  C_15
REMARK                            x       y       z     vdW  Elec       q    Type
REMARK                         _______ _______ _______ _____ _____    ______ ____
ROOT
ATOM      1  N   UNL     1       7.438   6.571  16.751  0.00  0.00    +0.000 N 
ATOM      2  C   UNL     1       6.242   6.249  17.229  0.00  0.00    +0.000 A 
ATOM      3  N   UNL     1       6.120   5.099  17.953  0.00  0.00    +0.000 NA
ATOM      4  C   UNL     1       4.849   5.109  18.292  0.00  0.00    +0.000 A 
ATOM      5  C   UNL     1       4.050   4.211  19.101  0.00  0.00    +0.000 A 
ATOM      6  C   UNL     1       4.576   3.041  19.653  0.00  0.00    +0.000 A 
ATOM      7  C   UNL     1       3.763   2.227  20.441  0.00  0.00    +0.000 A 
ATOM      8  C   UNL     1       2.437   2.587  20.689  0.00  0.00    +0.000 A 
ATOM      9  C   UNL     1       1.914   3.757  20.130  0.00  0.00    +0.000 A 
ATOM     10  C   UNL     1       2.701   4.582  19.313  0.00  0.00    +0.000 A 
ATOM     11  N   UNL     1       2.147   5.766  18.737  0.00  0.00    +0.000 NA
ATOM     12  C   UNL     1       2.906   6.535  18.007  0.00  0.00    +0.000 A 
ATOM     13  N   UNL     1       4.249   6.224  17.777  0.00  0.00    +0.000 N 
ATOM     14  N   UNL     1       5.124   6.946  17.046  0.00  0.00    +0.000 NA
ATOM     15  H   UNL     1       8.151   5.855  16.723  0.00  0.00    +0.000 HD
ATOM     16  H   UNL     1       7.498   7.279  16.032  0.00  0.00    +0.000 HD
ENDROOT
BRANCH   9  17
ATOM     17  O   UNL     1       0.617   4.113  20.387  0.00  0.00    +0.000 OA
ATOM     18  H   UNL     1       0.592   4.692  21.163  0.00  0.00    +0.000 HD
ENDBRANCH   9  17
BRANCH  12  19
ATOM     19  C   UNL     1       2.419   7.847  17.435  0.00  0.00    +0.000 C 
BRANCH  19  20
ATOM     20  C   UNL     1       1.883   8.725  18.546  0.00  0.00    +0.000 A 
ATOM     21  C   UNL     1       1.155   9.898  18.227  0.00  0.00    +0.000 A 
ATOM     22  C   UNL     1       0.377  10.541  19.192  0.00  0.00    +0.000 A 
ATOM     23  C   UNL     1       0.333   9.973  20.446  0.00  0.00    +0.000 A 
ATOM     24  C   UNL     1       1.109   8.886  20.780  0.00  0.00    +0.000 A 
ATOM     25  C   UNL     1       1.925   8.261  19.868  0.00  0.00    +0.000 A 
ATOM     26  O   UNL     1       0.862   8.448  22.047  0.00  0.00    +0.000 OA
ATOM     27  C   UNL     1      -0.360   9.165  22.305  0.00  0.00    +0.000 C 
ATOM     28  O   UNL     1      -0.511  10.324  21.456  0.00  0.00    +0.000 OA
ENDBRANCH  19  20
ENDBRANCH  12  19
TORSDOF 3
ENDMDL
MODEL 9
REMARK VINA RESULT:      -8.2      3.380      7.123
REMARK  Name = 
REMARK  3 active torsions:
REMARK  status: ('A' for Active; 'I' for Inactive)
REMARK    1  A    between atoms: C_9  and  O_10
REMARK    2  A    between atoms: C_13  and  C_14
REMARK    3  A    between atoms: C_14  and  C_15
REMARK                            x       y       z     vdW  Elec       q    Type
REMARK                         _______ _______ _______ _____ _____    ______ ____
ROOT
ATOM      1  N   UNL     1       2.366   2.157  22.162  0.00  0.00    +0.000 N 
ATOM      2  C   UNL     1       2.424   3.108  21.237  0.00  0.00    +0.000 A 
ATOM      3  N   UNL     1       1.907   4.335  21.534  0.00  0.00    +0.000 NA
ATOM      4  C   UNL     1       2.160   5.023  20.441  0.00  0.00    +0.000 A 
ATOM      5  C   UNL     1       1.924   6.407  20.085  0.00  0.00    +0.000 A 
ATOM      6  C   UNL     1       1.268   7.293  20.941  0.00  0.00    +0.000 A 
ATOM      7  C   UNL     1       1.090   8.620  20.552  0.00  0.00    +0.000 A 
ATOM      8  C   UNL     1       1.577   9.063  19.321  0.00  0.00    +0.000 A 
ATOM      9  C   UNL     1       2.229   8.171  18.465  0.00  0.00    +0.000 A 
ATOM     10  C   UNL     1       2.401   6.824  18.819  0.00  0.00    +0.000 A 
ATOM     11  N   UNL     1       3.056   5.923  17.927  0.00  0.00    +0.000 NA
ATOM     12  C   UNL     1       3.233   4.682  18.291  0.00  0.00    +0.000 A 
ATOM     13  N   UNL     1       2.796   4.220  19.535  0.00  0.00    +0.000 N 
ATOM     14  N   UNL     1       2.929   2.966  20.015  0.00  0.00    +0.000 NA
ATOM     15  H   UNL     1       1.737   2.288  22.943  0.00  0.00    +0.000 HD
ATOM     16  H   UNL     1       2.526   1.199  21.883  0.00  0.00    +0.000 HD
ENDROOT
BRANCH   9  17
ATOM     17  O   UNL     1       2.718   8.613  17.265  0.00  0.00    +0.000 OA
ATOM     18  H   UNL     1       2.898   9.563  17.323  0.00  0.00    +0.000 HD
ENDBRANCH   9  17
BRANCH  12  19
ATOM     19  C   UNL     1       3.993   3.689  17.441  0.00  0.00    +0.000 C 
BRANCH  19  20
ATOM     20  C   UNL     1       4.930   4.423  16.505  0.00  0.00    +0.000 A 
ATOM     21  C   UNL     1       6.028   5.146  17.033  0.00  0.00    +0.000 A 
ATOM     22  C   UNL     1       7.081   5.549  16.209  0.00  0.00    +0.000 A 
ATOM     23  C   UNL     1       7.013   5.195  14.881  0.00  0.00    +0.000 A 
ATOM     24  C   UNL     1       5.905   4.571  14.350  0.00  0.00    +0.000 A 
ATOM     25  C   UNL     1       4.830   4.206  15.124  0.00  0.00    +0.000 A 
ATOM     26  O   UNL     1       6.074   4.254  13.036  0.00  0.00    +0.000 OA
ATOM     27  C   UNL     1       7.498   4.446  12.933  0.00  0.00    +0.000 C 
ATOM     28  O   UNL     1       8.014   5.314  13.965  0.00  0.00    +0.000 OA
ENDBRANCH  19  20
ENDBRANCH  12  19
TORSDOF 3
ENDMDL
