MODEL 1
REMARK VINA RESULT:      -7.8      0.000      0.000
REMARK  Name = 
REMARK  7 active torsions:
REMARK  status: ('A' for Active; 'I' for Inactive)
REMARK    1  A    between atoms: C_1  and  C_2
REMARK    2  A    between atoms: C_9  and  C_10
REMARK    3  A    between atoms: C_18  and  O_19
REMARK    4  A    between atoms: C_18  and  O_20
REMARK    5  A    between atoms: O_20  and  C_21
REMARK    6  A    between atoms: C_21  and  C_22
REMARK    7  A    between atoms: C_21  and  C_23
REMARK                            x       y       z     vdW  Elec       q    Type
REMARK                         _______ _______ _______ _____ _____    ______ ____
ROOT
ATOM      1  C   UNL     1       1.819   9.373  17.752  0.00  0.00    +0.000 C 
ATOM      2  C   UNL     1       2.654   8.125  17.996  0.00  0.00    +0.000 C 
ATOM      3  N   UNL     1       3.438   7.824  17.008  0.00  0.00    +0.000 NA
ATOM      4  C   UNL     1       4.263   6.763  17.115  0.00  0.00    +0.000 A 
ATOM      5  N   UNL     1       5.161   6.317  16.265  0.00  0.00    +0.000 NA
ATOM      6  C   UNL     1       5.713   5.245  16.904  0.00  0.00    +0.000 A 
ATOM      7  N   UNL     1       5.237   5.000  18.126  0.00  0.00    +0.000 NA
ATOM      8  N   UNL     1       4.280   5.953  18.210  0.00  0.00    +0.000 N 
ATOM      9  C   UNL     1       3.382   6.083  19.346  0.00  0.00    +0.000 C 
ATOM     10  C   UNL     1       2.542   7.353  19.304  0.00  0.00    +0.000 C 
ATOM     11  C   UNL     1       1.770   7.759  20.340  0.00  0.00    +0.000 C 
ENDROOT
BRANCH   9  12
ATOM     12  C   UNL     1       2.557   4.797  19.467  0.00  0.00    +0.000 A 
ATOM     13  C   UNL     1       1.783   4.359  18.373  0.00  0.00    +0.000 A 
ATOM     14  C   UNL     1       0.939   3.251  18.491  0.00  0.00    +0.000 A 
ATOM     15  C   UNL     1       0.856   2.565  19.700  0.00  0.00    +0.000 A 
ATOM     16  C   UNL     1       1.628   2.982  20.777  0.00  0.00    +0.000 A 
ATOM     17  F   UNL     1       1.547   2.323  21.940  0.00  0.00    +0.000 F 
ATOM     18  C   UNL     1       2.471   4.085  20.674  0.00  0.00    +0.000 A 
ENDBRANCH   9  12
BRANCH  11  19
ATOM     19  O   UNL     1       1.705   7.083  21.544  0.00  0.00    +0.000 OA
ATOM     20  H   UNL     1       2.328   6.341  21.588  0.00  0.00    +0.000 HD
ENDBRANCH  11  19
BRANCH  11  21
ATOM     21  O   UNL     1       0.962   8.866  20.214  0.00  0.00    +0.000 OA
BRANCH  21  22
ATOM     22  C   UNL     1       0.878   9.761  21.329  0.00  0.00    +0.000 C 
ATOM     23  C   UNL     1       0.842  11.197  20.817  0.00  0.00    +0.000 C 
ATOM     24  C   UNL     1      -0.416   9.424  22.062  0.00  0.00    +0.000 C 
ENDBRANCH  21  22
ENDBRANCH  11  21
TORSDOF 4
ENDMDL
MODEL 2
REMARK VINA RESULT:      -7.7      0.958      1.395
REMARK  Name = 
REMARK  7 active torsions:
REMARK  status: ('A' for Active; 'I' for Inactive)
REMARK    1  A    between atoms: C_1  and  C_2
REMARK    2  A    between atoms: C_9  and  C_10
REMARK    3  A    between atoms: C_18  and  O_19
REMARK    4  A    between atoms: C_18  and  O_20
REMARK    5  A    between atoms: O_20  and  C_21
REMARK    6  A    between atoms: C_21  and  C_22
REMARK    7  A    between atoms: C_21  and  C_23
REMARK                            x       y       z     vdW  Elec       q    Type
REMARK                         _______ _______ _______ _____ _____    ______ ____
ROOT
ATOM      1  C   UNL     1       1.809   9.117  17.629  0.00  0.00    +0.000 C 
ATOM      2  C   UNL     1       2.613   7.906  18.076  0.00  0.00    +0.000 C 
ATOM      3  N   UNL     1       3.395   7.434  17.155  0.00  0.00    +0.000 NA
ATOM      4  C   UNL     1       4.194   6.386  17.437  0.00  0.00    +0.000 A 
ATOM      5  N   UNL     1       5.087   5.790  16.678  0.00  0.00    +0.000 NA
ATOM      6  C   UNL     1       5.609   4.821  17.484  0.00  0.00    +0.000 A 
ATOM      7  N   UNL     1       5.121   4.785  18.726  0.00  0.00    +0.000 NA
ATOM      8  N   UNL     1       4.186   5.760  18.647  0.00  0.00    +0.000 N 
ATOM      9  C   UNL     1       3.285   6.089  19.740  0.00  0.00    +0.000 C 
ATOM     10  C   UNL     1       2.475   7.354  19.489  0.00  0.00    +0.000 C 
ATOM     11  C   UNL     1       1.706   7.937  20.440  0.00  0.00    +0.000 C 
ENDROOT
BRANCH   9  12
ATOM     12  C   UNL     1       2.429   4.858  20.056  0.00  0.00    +0.000 A 
ATOM     13  C   UNL     1       2.488   4.277  21.339  0.00  0.00    +0.000 A 
ATOM     14  C   UNL     1       1.802   3.092  21.622  0.00  0.00    +0.000 A 
ATOM     15  C   UNL     1       1.045   2.473  20.630  0.00  0.00    +0.000 A 
ATOM     16  C   UNL     1       0.969   3.050  19.369  0.00  0.00    +0.000 A 
ATOM     17  F   UNL     1       0.243   2.454  18.415  0.00  0.00    +0.000 F 
ATOM     18  C   UNL     1       1.649   4.228  19.073  0.00  0.00    +0.000 A 
ENDBRANCH   9  12
BRANCH  11  19
ATOM     19  O   UNL     1       1.620   7.464  21.735  0.00  0.00    +0.000 OA
ATOM     20  H   UNL     1       2.247   6.746  21.911  0.00  0.00    +0.000 HD
ENDBRANCH  11  19
BRANCH  11  21
ATOM     21  O   UNL     1       0.926   9.028  20.131  0.00  0.00    +0.000 OA
BRANCH  21  22
ATOM     22  C   UNL     1       0.892  10.111  21.068  0.00  0.00    +0.000 C 
ATOM     23  C   UNL     1       1.121  11.423  20.326  0.00  0.00    +0.000 C 
ATOM     24  C   UNL     1      -0.493  10.093  21.705  0.00  0.00    +0.000 C 
ENDBRANCH  21  22
ENDBRANCH  11  21
TORSDOF 4
ENDMDL
MODEL 3
REMARK VINA RESULT:      -7.6      2.652      4.416
REMARK  Name = 
REMARK  7 active torsions:
REMARK  status: ('A' for Active; 'I' for Inactive)
REMARK    1  A    between atoms: C_1  and  C_2
REMARK    2  A    between atoms: C_9  and  C_10
REMARK    3  A    between atoms: C_18  and  O_19
REMARK    4  A    between atoms: C_18  and  O_20
REMARK    5  A    between atoms: O_20  and  C_21
REMARK    6  A    between atoms: C_21  and  C_22
REMARK    7  A    between atoms: C_21  and  C_23
REMARK                            x       y       z     vdW  Elec       q    Type
REMARK                         _______ _______ _______ _____ _____    ______ ____
ROOT
ATOM      1  C   UNL     1       1.443   7.616  20.870  0.00  0.00    +0.000 C 
ATOM      2  C   UNL     1       1.932   6.399  20.100  0.00  0.00    +0.000 C 
ATOM      3  N   UNL     1       1.734   5.279  20.723  0.00  0.00    +0.000 NA
ATOM      4  C   UNL     1       2.084   4.119  20.129  0.00  0.00    +0.000 A 
ATOM      5  N   UNL     1       1.929   2.885  20.555  0.00  0.00    +0.000 NA
ATOM      6  C   UNL     1       2.434   2.123  19.542  0.00  0.00    +0.000 A 
ATOM      7  N   UNL     1       2.876   2.802  18.481  0.00  0.00    +0.000 NA
ATOM      8  N   UNL     1       2.686   4.071  18.908  0.00  0.00    +0.000 N 
ATOM      9  C   UNL     1       3.083   5.239  18.138  0.00  0.00    +0.000 C 
ATOM     10  C   UNL     1       2.574   6.548  18.727  0.00  0.00    +0.000 C 
ATOM     11  C   UNL     1       2.679   7.735  18.083  0.00  0.00    +0.000 C 
ENDROOT
BRANCH   9  12
ATOM     12  C   UNL     1       4.603   5.199  17.938  0.00  0.00    +0.000 A 
ATOM     13  C   UNL     1       5.134   4.773  16.704  0.00  0.00    +0.000 A 
ATOM     14  C   UNL     1       6.513   4.625  16.530  0.00  0.00    +0.000 A 
ATOM     15  C   UNL     1       7.380   4.901  17.584  0.00  0.00    +0.000 A 
ATOM     16  C   UNL     1       6.864   5.337  18.798  0.00  0.00    +0.000 A 
ATOM     17  F   UNL     1       7.699   5.600  19.811  0.00  0.00    +0.000 F 
ATOM     18  C   UNL     1       5.493   5.487  18.985  0.00  0.00    +0.000 A 
ENDBRANCH   9  12
BRANCH  11  19
ATOM     19  O   UNL     1       3.219   7.862  16.818  0.00  0.00    +0.000 OA
ATOM     20  H   UNL     1       2.580   8.204  16.174  0.00  0.00    +0.000 HD
ENDBRANCH  11  19
BRANCH  11  21
ATOM     21  O   UNL     1       2.283   8.899  18.702  0.00  0.00    +0.000 OA
BRANCH  21  22
ATOM     22  C   UNL     1       1.623   9.887  17.902  0.00  0.00    +0.000 C 
ATOM     23  C   UNL     1       0.130   9.865  18.209  0.00  0.00    +0.000 C 
ATOM     24  C   UNL     1       2.227  11.234  18.287  0.00  0.00    +0.000 C 
ENDBRANCH  21  22
ENDBRANCH  11  21
TORSDOF 4
ENDMDL
MODEL 4
REMARK VINA RESULT:      -7.6      2.864      4.649
REMARK  Name = 
REMARK  7 active torsions:
REMARK  status: ('A' for Active; 'I' for Inactive)
REMARK    1  A    between atoms: C_1  and  C_2
REMARK    2  A    between atoms: C_9  and  C_10
REMARK    3  A    between atoms: C_18  and  O_19
REMARK    4  A    between atoms: C_18  and  O_20
REMARK    5  A    between atoms: O_20  and  C_21
REMARK    6  A    between atoms: C_21  and  C_22
REMARK    7  A    between atoms: C_21  and  C_23
REMARK                            x       y       z     vdW  Elec       q    Type
REMARK                         _______ _______ _______ _____ _____    ______ ____
ROOT
ATOM      1  C   UNL     1       1.462   7.698  20.822  0.00  0.00    +0.000 C 
ATOM      2  C   UNL     1       1.890   6.436  20.090  0.00  0.00    +0.000 C 
ATOM      3  N   UNL     1       1.615   5.345  20.734  0.00  0.00    +0.000 NA
ATOM      4  C   UNL     1       1.905   4.153  20.174  0.00  0.00    +0.000 A 
ATOM      5  N   UNL     1       1.669   2.941  20.624  0.00  0.00    +0.000 NA
ATOM      6  C   UNL     1       2.145   2.126  19.639  0.00  0.00    +0.000 A 
ATOM      7  N   UNL     1       2.645   2.752  18.571  0.00  0.00    +0.000 NA
ATOM      8  N   UNL     1       2.523   4.040  18.966  0.00  0.00    +0.000 N 
ATOM      9  C   UNL     1       3.004   5.163  18.177  0.00  0.00    +0.000 C 
ATOM     10  C   UNL     1       2.564   6.513  18.726  0.00  0.00    +0.000 C 
ATOM     11  C   UNL     1       2.751   7.677  18.058  0.00  0.00    +0.000 C 
ENDROOT
BRANCH   9  12
ATOM     12  C   UNL     1       4.522   5.028  18.006  0.00  0.00    +0.000 A 
ATOM     13  C   UNL     1       5.376   5.362  19.076  0.00  0.00    +0.000 A 
ATOM     14  C   UNL     1       6.765   5.351  18.914  0.00  0.00    +0.000 A 
ATOM     15  C   UNL     1       7.319   5.005  17.684  0.00  0.00    +0.000 A 
ATOM     16  C   UNL     1       6.482   4.658  16.631  0.00  0.00    +0.000 A 
ATOM     17  F   UNL     1       7.015   4.327  15.448  0.00  0.00    +0.000 F 
ATOM     18  C   UNL     1       5.098   4.667  16.778  0.00  0.00    +0.000 A 
ENDBRANCH   9  12
BRANCH  11  19
ATOM     19  O   UNL     1       3.319   7.741  16.800  0.00  0.00    +0.000 OA
ATOM     20  H   UNL     1       2.929   8.438  16.251  0.00  0.00    +0.000 HD
ENDBRANCH  11  19
BRANCH  11  21
ATOM     21  O   UNL     1       2.415   8.876  18.642  0.00  0.00    +0.000 OA
BRANCH  21  22
ATOM     22  C   UNL     1       1.713   9.834  17.841  0.00  0.00    +0.000 C 
ATOM     23  C   UNL     1       0.222   9.750  18.151  0.00  0.00    +0.000 C 
ATOM     24  C   UNL     1       2.260  11.206  18.221  0.00  0.00    +0.000 C 
ENDBRANCH  21  22
ENDBRANCH  11  21
TORSDOF 4
ENDMDL
MODEL 5
REMARK VINA RESULT:      -7.4      2.453      4.990
REMARK  Name = 
REMARK  7 active torsions:
REMARK  status: ('A' for Active; 'I' for Inactive)
REMARK    1  A    between atoms: C_1  and  C_2
REMARK    2  A    between atoms: C_9  and  C_10
REMARK    3  A    between atoms: C_18  and  O_19
REMARK    4  A    between atoms: C_18  and  O_20
REMARK    5  A    between atoms: O_20  and  C_21
REMARK    6  A    between atoms: C_21  and  C_22
REMARK    7  A    between atoms: C_21  and  C_23
REMARK                            x       y       z     vdW  Elec       q    Type
REMARK                         _______ _______ _______ _____ _____    ______ ____
ROOT
ATOM      1  C   UNL     1       4.581   2.494  20.089  0.00  0.00    +0.000 C 
ATOM      2  C   UNL     1       4.707   3.747  19.236  0.00  0.00    +0.000 C 
ATOM      3  N   UNL     1       5.895   4.266  19.249  0.00  0.00    +0.000 NA
ATOM      4  C   UNL     1       6.151   5.357  18.499  0.00  0.00    +0.000 A 
ATOM      5  N   UNL     1       7.281   6.006  18.329  0.00  0.00    +0.000 NA
ATOM      6  C   UNL     1       6.961   6.998  17.450  0.00  0.00    +0.000 A 
ATOM      7  N   UNL     1       5.696   7.000  17.025  0.00  0.00    +0.000 NA
ATOM      8  N   UNL     1       5.194   5.975  17.751  0.00  0.00    +0.000 N 
ATOM      9  C   UNL     1       3.792   5.590  17.723  0.00  0.00    +0.000 C 
ATOM     10  C   UNL     1       3.515   4.282  18.453  0.00  0.00    +0.000 C 
ATOM     11  C   UNL     1       2.317   3.652  18.405  0.00  0.00    +0.000 C 
ENDROOT
BRANCH   9  12
ATOM     12  C   UNL     1       2.951   6.769  18.223  0.00  0.00    +0.000 A 
ATOM     13  C   UNL     1       2.633   7.823  17.342  0.00  0.00    +0.000 A 
ATOM     14  C   UNL     1       1.959   8.960  17.798  0.00  0.00    +0.000 A 
ATOM     15  C   UNL     1       1.593   9.060  19.138  0.00  0.00    +0.000 A 
ATOM     16  C   UNL     1       1.888   8.018  20.007  0.00  0.00    +0.000 A 
ATOM     17  F   UNL     1       1.537   8.115  21.295  0.00  0.00    +0.000 F 
ATOM     18  C   UNL     1       2.560   6.881  19.567  0.00  0.00    +0.000 A 
ENDBRANCH   9  12
BRANCH  11  19
ATOM     19  O   UNL     1       1.251   4.113  17.656  0.00  0.00    +0.000 OA
ATOM     20  H   UNL     1       0.479   4.327  18.201  0.00  0.00    +0.000 HD
ENDBRANCH  11  19
BRANCH  11  21
ATOM     21  O   UNL     1       2.095   2.521  19.156  0.00  0.00    +0.000 OA
BRANCH  21  22
ATOM     22  C   UNL     1       1.152   2.608  20.231  0.00  0.00    +0.000 C 
ATOM     23  C   UNL     1       1.826   2.168  21.526  0.00  0.00    +0.000 C 
ATOM     24  C   UNL     1       0.728   4.070  20.321  0.00  0.00    +0.000 C 
ENDBRANCH  21  22
ENDBRANCH  11  21
TORSDOF 4
ENDMDL
MODEL 6
REMARK VINA RESULT:      -7.3      2.793      5.240
REMARK  Name = 
REMARK  7 active torsions:
REMARK  status: ('A' for Active; 'I' for Inactive)
REMARK    1  A    between atoms: C_1  and  C_2
REMARK    2  A    between atoms: C_9  and  C_10
REMARK    3  A    between atoms: C_18  and  O_19
REMARK    4  A    between atoms: C_18  and  O_20
REMARK    5  A    between atoms: O_20  and  C_21
REMARK    6  A    between atoms: C_21  and  C_22
REMARK    7  A    between atoms: C_21  and  C_23
REMARK                            x       y       z     vdW  Elec       q    Type
REMARK                         _______ _______ _______ _____ _____    ______ ____
ROOT
ATOM      1  C   UNL     1       4.538   2.411  19.897  0.00  0.00    +0.000 C 
ATOM      2  C   UNL     1       4.711   3.710  19.125  0.00  0.00    +0.000 C 
ATOM      3  N   UNL     1       5.922   4.172  19.154  0.00  0.00    +0.000 NA
ATOM      4  C   UNL     1       6.219   5.297  18.472  0.00  0.00    +0.000 A 
ATOM      5  N   UNL     1       7.377   5.903  18.328  0.00  0.00    +0.000 NA
ATOM      6  C   UNL     1       7.092   6.965  17.520  0.00  0.00    +0.000 A 
ATOM      7  N   UNL     1       5.823   7.054  17.117  0.00  0.00    +0.000 NA
ATOM      8  N   UNL     1       5.283   6.006  17.782  0.00  0.00    +0.000 N 
ATOM      9  C   UNL     1       3.865   5.689  17.751  0.00  0.00    +0.000 C 
ATOM     10  C   UNL     1       3.536   4.350  18.398  0.00  0.00    +0.000 C 
ATOM     11  C   UNL     1       2.309   3.780  18.328  0.00  0.00    +0.000 C 
ENDROOT
BRANCH   9  12
ATOM     12  C   UNL     1       3.086   6.870  18.340  0.00  0.00    +0.000 A 
ATOM     13  C   UNL     1       2.708   6.850  19.698  0.00  0.00    +0.000 A 
ATOM     14  C   UNL     1       1.907   7.862  20.234  0.00  0.00    +0.000 A 
ATOM     15  C   UNL     1       1.472   8.908  19.424  0.00  0.00    +0.000 A 
ATOM     16  C   UNL     1       1.855   8.942  18.089  0.00  0.00    +0.000 A 
ATOM     17  F   UNL     1       1.436   9.948  17.310  0.00  0.00    +0.000 F 
ATOM     18  C   UNL     1       2.651   7.941  17.542  0.00  0.00    +0.000 A 
ENDBRANCH   9  12
BRANCH  11  19
ATOM     19  O   UNL     1       1.256   4.339  17.629  0.00  0.00    +0.000 OA
ATOM     20  H   UNL     1       1.142   5.282  17.819  0.00  0.00    +0.000 HD
ENDBRANCH  11  19
BRANCH  11  21
ATOM     21  O   UNL     1       2.044   2.613  19.008  0.00  0.00    +0.000 OA
BRANCH  21  22
ATOM     22  C   UNL     1       1.123   2.674  20.103  0.00  0.00    +0.000 C 
ATOM     23  C   UNL     1       1.825   2.209  21.375  0.00  0.00    +0.000 C 
ATOM     24  C   UNL     1       0.694   4.131  20.233  0.00  0.00    +0.000 C 
ENDBRANCH  21  22
ENDBRANCH  11  21
TORSDOF 4
ENDMDL
MODEL 7
REMARK VINA RESULT:      -7.3      2.599      4.353
REMARK  Name = 
REMARK  7 active torsions:
REMARK  status: ('A' for Active; 'I' for Inactive)
REMARK    1  A    between atoms: C_1  and  C_2
REMARK    2  A    between atoms: C_9  and  C_10
REMARK    3  A    between atoms: C_18  and  O_19
REMARK    4  A    between atoms: C_18  and  O_20
REMARK    5  A    between atoms: O_20  and  C_21
REMARK    6  A    between atoms: C_21  and  C_22
REMARK    7  A    between atoms: C_21  and  C_23
REMARK                            x       y       z     vdW  Elec       q    Type
REMARK                         _______ _______ _______ _____ _____    ______ ____
ROOT
ATOM      1  C   UNL     1       0.989   6.058  20.834  0.00  0.00    +0.000 C 
ATOM      2  C   UNL     1       1.894   5.370  19.823  0.00  0.00    +0.000 C 
ATOM      3  N   UNL     1       1.949   4.083  19.970  0.00  0.00    +0.000 NA
ATOM      4  C   UNL     1       2.684   3.348  19.109  0.00  0.00    +0.000 A 
ATOM      5  N   UNL     1       2.837   2.044  19.046  0.00  0.00    +0.000 NA
ATOM      6  C   UNL     1       3.656   1.862  17.971  0.00  0.00    +0.000 A 
ATOM      7  N   UNL     1       4.011   2.975  17.326  0.00  0.00    +0.000 NA
ATOM      8  N   UNL     1       3.417   3.907  18.106  0.00  0.00    +0.000 N 
ATOM      9  C   UNL     1       3.555   5.338  17.884  0.00  0.00    +0.000 C 
ATOM     10  C   UNL     1       2.627   6.172  18.756  0.00  0.00    +0.000 C 
ATOM     11  C   UNL     1       2.466   7.508  18.593  0.00  0.00    +0.000 C 
ENDROOT
BRANCH   9  12
ATOM     12  C   UNL     1       5.036   5.713  18.018  0.00  0.00    +0.000 A 
ATOM     13  C   UNL     1       5.728   6.230  16.905  0.00  0.00    +0.000 A 
ATOM     14  C   UNL     1       7.102   6.480  16.969  0.00  0.00    +0.000 A 
ATOM     15  C   UNL     1       7.803   6.217  18.143  0.00  0.00    +0.000 A 
ATOM     16  C   UNL     1       7.123   5.723  19.249  0.00  0.00    +0.000 A 
ATOM     17  F   UNL     1       7.797   5.469  20.377  0.00  0.00    +0.000 F 
ATOM     18  C   UNL     1       5.756   5.468  19.199  0.00  0.00    +0.000 A 
ENDBRANCH   9  12
BRANCH  11  19
ATOM     19  O   UNL     1       3.096   8.227  17.595  0.00  0.00    +0.000 OA
ATOM     20  H   UNL     1       3.022   7.801  16.727  0.00  0.00    +0.000 HD
ENDBRANCH  11  19
BRANCH  11  21
ATOM     21  O   UNL     1       1.684   8.226  19.467  0.00  0.00    +0.000 OA
BRANCH  21  22
ATOM     22  C   UNL     1       1.366   9.579  19.121  0.00  0.00    +0.000 C 
ATOM     23  C   UNL     1       0.293   9.580  18.037  0.00  0.00    +0.000 C 
ATOM     24  C   UNL     1       0.843  10.243  20.390  0.00  0.00    +0.000 C 
ENDBRANCH  21  22
ENDBRANCH  11  21
TORSDOF 4
ENDMDL
MODEL 8
REMARK VINA RESULT:      -7.2      1.530      1.636
REMARK  Name = 
REMARK  7 active torsions:
REMARK  status: ('A' for Active; 'I' for Inactive)
REMARK    1  A    between atoms: C_1  and  C_2
REMARK    2  A    between atoms: C_9  and  C_10
REMARK    3  A    between atoms: C_18  and  O_19
REMARK    4  A    between atoms: C_18  and  O_20
REMARK    5  A    between atoms: O_20  and  C_21
REMARK    6  A    between atoms: C_21  and  C_22
REMARK    7  A    between atoms: C_21  and  C_23
REMARK                            x       y       z     vdW  Elec       q    Type
REMARK                         _______ _______ _______ _____ _____    ______ ____
ROOT
ATOM      1  C   UNL     1       2.010   8.985  17.949  0.00  0.00    +0.000 C 
ATOM      2  C   UNL     1       2.951   7.793  17.855  0.00  0.00    +0.000 C 
ATOM      3  N   UNL     1       3.685   7.797  16.786  0.00  0.00    +0.000 NA
ATOM      4  C   UNL     1       4.593   6.816  16.603  0.00  0.00    +0.000 A 
ATOM      5  N   UNL     1       5.462   6.657  15.629  0.00  0.00    +0.000 NA
ATOM      6  C   UNL     1       6.136   5.521  15.973  0.00  0.00    +0.000 A 
ATOM      7  N   UNL     1       5.764   4.964  17.128  0.00  0.00    +0.000 NA
ATOM      8  N   UNL     1       4.747   5.784  17.477  0.00  0.00    +0.000 N 
ATOM      9  C   UNL     1       3.922   5.572  18.656  0.00  0.00    +0.000 C 
ATOM     10  C   UNL     1       2.988   6.737  18.952  0.00  0.00    +0.000 C 
ATOM     11  C   UNL     1       2.260   6.827  20.091  0.00  0.00    +0.000 C 
ENDROOT
BRANCH   9  12
ATOM     12  C   UNL     1       3.206   4.223  18.516  0.00  0.00    +0.000 A 
ATOM     13  C   UNL     1       1.801   4.187  18.407  0.00  0.00    +0.000 A 
ATOM     14  C   UNL     1       1.115   2.969  18.386  0.00  0.00    +0.000 A 
ATOM     15  C   UNL     1       1.821   1.772  18.472  0.00  0.00    +0.000 A 
ATOM     16  C   UNL     1       3.207   1.801  18.562  0.00  0.00    +0.000 A 
ATOM     17  F   UNL     1       3.885   0.649  18.646  0.00  0.00    +0.000 F 
ATOM     18  C   UNL     1       3.902   3.006  18.586  0.00  0.00    +0.000 A 
ENDBRANCH   9  12
BRANCH  11  19
ATOM     19  O   UNL     1       2.330   5.893  21.106  0.00  0.00    +0.000 OA
ATOM     20  H   UNL     1       1.777   6.128  21.867  0.00  0.00    +0.000 HD
ENDBRANCH  11  19
BRANCH  11  21
ATOM     21  O   UNL     1       1.365   7.857  20.265  0.00  0.00    +0.000 OA
BRANCH  21  22
ATOM     22  C   UNL     1       0.896   8.116  21.593  0.00  0.00    +0.000 C 
ATOM     23  C   UNL     1       1.698   9.265  22.194  0.00  0.00    +0.000 C 
ATOM     24  C   UNL     1      -0.575   8.500  21.470  0.00  0.00    +0.000 C 
ENDBRANCH  21  22
ENDBRANCH  11  21
TORSDOF 4
ENDMDL
MODEL 9
REMARK VINA RESULT:      -7.1      2.984      4.684
REMARK  Name = 
REMARK  7 active torsions:
REMARK  status: ('A' for Active; 'I' for Inactive)
REMARK    1  A    between atoms: C_1  and  C_2
REMARK    2  A    between atoms: C_9  and  C_10
REMARK    3  A    between atoms: C_18  and  O_19
REMARK    4  A    between atoms: C_18  and  O_20
REMARK    5  A    between atoms: O_20  and  C_21
REMARK    6  A    between atoms: C_21  and  C_22
REMARK    7  A    between atoms: C_21  and  C_23
REMARK                            x       y       z     vdW  Elec       q    Type
REMARK                         _______ _______ _______ _____ _____    ______ ____
ROOT
ATOM      1  C   UNL     1       1.052   6.111  20.813  0.00  0.00    +0.000 C 
ATOM      2  C   UNL     1       1.956   5.388  19.826  0.00  0.00    +0.000 C 
ATOM      3  N   UNL     1       1.950   4.099  19.966  0.00  0.00    +0.000 NA
ATOM      4  C   UNL     1       2.678   3.338  19.124  0.00  0.00    +0.000 A 
ATOM      5  N   UNL     1       2.775   2.028  19.057  0.00  0.00    +0.000 NA
ATOM      6  C   UNL     1       3.619   1.815  18.007  0.00  0.00    +0.000 A 
ATOM      7  N   UNL     1       4.042   2.915  17.381  0.00  0.00    +0.000 NA
ATOM      8  N   UNL     1       3.466   3.868  18.148  0.00  0.00    +0.000 N 
ATOM      9  C   UNL     1       3.675   5.292  17.940  0.00  0.00    +0.000 C 
ATOM     10  C   UNL     1       2.758   6.163  18.788  0.00  0.00    +0.000 C 
ATOM     11  C   UNL     1       2.662   7.505  18.629  0.00  0.00    +0.000 C 
ENDROOT
BRANCH   9  12
ATOM     12  C   UNL     1       5.166   5.600  18.122  0.00  0.00    +0.000 A 
ATOM     13  C   UNL     1       5.821   5.200  19.304  0.00  0.00    +0.000 A 
ATOM     14  C   UNL     1       7.150   5.561  19.544  0.00  0.00    +0.000 A 
ATOM     15  C   UNL     1       7.843   6.324  18.607  0.00  0.00    +0.000 A 
ATOM     16  C   UNL     1       7.208   6.707  17.433  0.00  0.00    +0.000 A 
ATOM     17  F   UNL     1       7.874   7.442  16.533  0.00  0.00    +0.000 F 
ATOM     18  C   UNL     1       5.884   6.356  17.182  0.00  0.00    +0.000 A 
ENDBRANCH   9  12
BRANCH  11  19
ATOM     19  O   UNL     1       3.354   8.201  17.656  0.00  0.00    +0.000 OA
ATOM     20  H   UNL     1       4.313   8.082  17.725  0.00  0.00    +0.000 HD
ENDBRANCH  11  19
BRANCH  11  21
ATOM     21  O   UNL     1       1.885   8.253  19.483  0.00  0.00    +0.000 OA
BRANCH  21  22
ATOM     22  C   UNL     1       1.457   9.545  19.037  0.00  0.00    +0.000 C 
ATOM     23  C   UNL     1       0.414   9.376  17.936  0.00  0.00    +0.000 C 
ATOM     24  C   UNL     1       0.847  10.245  20.246  0.00  0.00    +0.000 C 
ENDBRANCH  21  22
ENDBRANCH  11  21
TORSDOF 4
ENDMDL
