MODEL 1
REMARK VINA RESULT:      -7.9      0.000      0.000
REMARK  Name = 
REMARK  4 active torsions:
REMARK  status: ('A' for Active; 'I' for Inactive)
REMARK    1  A    between atoms: C_2  and  C_4
REMARK    2  A    between atoms: N_9  and  C_10
REMARK    3  A    between atoms: C_10  and  C_11
REMARK    4  A    between atoms: C_11  and  C_12
REMARK                            x       y       z     vdW  Elec       q    Type
REMARK                         _______ _______ _______ _____ _____    ______ ____
ROOT
ATOM      1  C   UNL     1      -0.437  10.503  21.171  0.00  0.00    +0.000 C 
ATOM      2  C   UNL     1       0.938   9.908  20.816  0.00  0.00    +0.000 C 
ATOM      3  N   UNL     1       1.257  10.205  19.410  0.00  0.00    +0.000 N 
ATOM      4  C   UNL     1       1.697   9.335  18.439  0.00  0.00    +0.000 C 
ATOM      5  O   UNL     1       1.922   9.701  17.285  0.00  0.00    +0.000 OA
ATOM      6  N   UNL     1       1.931   8.048  18.844  0.00  0.00    +0.000 N 
ATOM      7  C   UNL     1       1.154  11.630  19.088  0.00  0.00    +0.000 C 
ATOM      8  C   UNL     1      -0.221  12.163  19.493  0.00  0.00    +0.000 C 
ATOM      9  O   UNL     1      -0.478  11.918  20.888  0.00  0.00    +0.000 OA
ATOM     10  H   UNL     1       1.312   7.686  19.549  0.00  0.00    +0.000 HD
ENDROOT
BRANCH   1  12
ATOM     11  N   UNL     1      -0.636   8.911  23.016  0.00  0.00    +0.000 N 
ATOM     12  C   UNL     1      -0.742  10.221  22.645  0.00  0.00    +0.000 C 
ATOM     13  O   UNL     1      -1.021  11.094  23.460  0.00  0.00    +0.000 OA
ATOM     14  H   UNL     1      -0.839   8.643  23.968  0.00  0.00    +0.000 HD
ATOM     15  H   UNL     1      -0.466   8.203  22.309  0.00  0.00    +0.000 HD
ENDBRANCH   1  12
BRANCH   6  16
ATOM     16  C   UNL     1       2.464   7.056  17.918  0.00  0.00    +0.000 C 
BRANCH  16  17
ATOM     17  C   UNL     1       2.701   5.704  18.624  0.00  0.00    +0.000 C 
ATOM     18  C   UNL     1       2.261   5.566  20.140  0.00  0.00    +0.000 C 
ATOM     19  C   UNL     1       1.812   4.133  19.826  0.00  0.00    +0.000 C 
ATOM     20  C   UNL     1       1.625   4.575  18.361  0.00  0.00    +0.000 C 
BRANCH  17  21
ATOM     21  C   UNL     1       4.256   5.263  18.314  0.00  0.00    +0.000 A 
ATOM     22  C   UNL     1       4.625   4.668  17.086  0.00  0.00    +0.000 A 
ATOM     23  C   UNL     1       5.949   4.331  16.791  0.00  0.00    +0.000 A 
ATOM     24  C   UNL     1       6.939   4.567  17.732  0.00  0.00    +0.000 A 
ATOM     25  F   UNL     1       8.211   4.257  17.449  0.00  0.00    +0.000 F 
ATOM     26  C   UNL     1       6.624   5.116  18.965  0.00  0.00    +0.000 A 
ATOM     27  C   UNL     1       5.297   5.453  19.251  0.00  0.00    +0.000 A 
ENDBRANCH  17  21
ENDBRANCH  16  17
ENDBRANCH   6  16
TORSDOF 4
ENDMDL
MODEL 2
REMARK VINA RESULT:      -7.8      4.779      7.116
REMARK  Name = 
REMARK  4 active torsions:
REMARK  status: ('A' for Active; 'I' for Inactive)
REMARK    1  A    between atoms: C_2  and  C_4
REMARK    2  A    between atoms: N_9  and  C_10
REMARK    3  A    between atoms: C_10  and  C_11
REMARK    4  A    between atoms: C_11  and  C_12
REMARK                            x       y       z     vdW  Elec       q    Type
REMARK                         _______ _______ _______ _____ _____    ______ ____
ROOT
ATOM      1  C   UNL     1       6.915   6.660  17.174  0.00  0.00    +0.000 C 
ATOM      2  C   UNL     1       6.831   5.475  18.152  0.00  0.00    +0.000 C 
ATOM      3  N   UNL     1       6.087   4.370  17.527  0.00  0.00    +0.000 N 
ATOM      4  C   UNL     1       5.045   3.642  18.056  0.00  0.00    +0.000 C 
ATOM      5  O   UNL     1       4.491   2.740  17.428  0.00  0.00    +0.000 OA
ATOM      6  N   UNL     1       4.699   3.937  19.347  0.00  0.00    +0.000 N 
ATOM      7  C   UNL     1       6.621   3.988  16.218  0.00  0.00    +0.000 C 
ATOM      8  C   UNL     1       6.707   5.214  15.307  0.00  0.00    +0.000 C 
ATOM      9  O   UNL     1       7.496   6.254  15.916  0.00  0.00    +0.000 OA
ATOM     10  H   UNL     1       4.780   4.902  19.619  0.00  0.00    +0.000 HD
ENDROOT
BRANCH   1  12
ATOM     11  N   UNL     1       8.457   7.423  18.911  0.00  0.00    +0.000 N 
ATOM     12  C   UNL     1       7.722   7.790  17.820  0.00  0.00    +0.000 C 
ATOM     13  O   UNL     1       7.755   8.936  17.384  0.00  0.00    +0.000 OA
ATOM     14  H   UNL     1       9.002   8.116  19.403  0.00  0.00    +0.000 HD
ATOM     15  H   UNL     1       8.361   6.485  19.286  0.00  0.00    +0.000 HD
ENDBRANCH   1  12
BRANCH   6  16
ATOM     16  C   UNL     1       3.657   3.185  20.035  0.00  0.00    +0.000 C 
BRANCH  16  17
ATOM     17  C   UNL     1       2.255   3.563  19.511  0.00  0.00    +0.000 C 
ATOM     18  C   UNL     1       1.695   2.782  18.251  0.00  0.00    +0.000 C 
ATOM     19  C   UNL     1       0.309   2.819  18.910  0.00  0.00    +0.000 C 
ATOM     20  C   UNL     1       1.024   2.926  20.271  0.00  0.00    +0.000 C 
BRANCH  17  21
ATOM     21  C   UNL     1       2.214   5.203  19.381  0.00  0.00    +0.000 A 
ATOM     22  C   UNL     1       2.440   5.853  18.146  0.00  0.00    +0.000 A 
ATOM     23  C   UNL     1       2.363   7.242  18.011  0.00  0.00    +0.000 A 
ATOM     24  C   UNL     1       2.071   8.019  19.121  0.00  0.00    +0.000 A 
ATOM     25  F   UNL     1       1.984   9.350  18.993  0.00  0.00    +0.000 F 
ATOM     26  C   UNL     1       1.875   7.434  20.361  0.00  0.00    +0.000 A 
ATOM     27  C   UNL     1       1.952   6.043  20.487  0.00  0.00    +0.000 A 
ENDBRANCH  17  21
ENDBRANCH  16  17
ENDBRANCH   6  16
TORSDOF 4
ENDMDL
MODEL 3
REMARK VINA RESULT:      -7.7      4.227      7.809
REMARK  Name = 
REMARK  4 active torsions:
REMARK  status: ('A' for Active; 'I' for Inactive)
REMARK    1  A    between atoms: C_2  and  C_4
REMARK    2  A    between atoms: N_9  and  C_10
REMARK    3  A    between atoms: C_10  and  C_11
REMARK    4  A    between atoms: C_11  and  C_12
REMARK                            x       y       z     vdW  Elec       q    Type
REMARK                         _______ _______ _______ _____ _____    ______ ____
ROOT
ATOM      1  C   UNL     1       2.909   4.230  20.288  0.00  0.00    +0.000 C 
ATOM      2  C   UNL     1       1.979   5.144  19.470  0.00  0.00    +0.000 C 
ATOM      3  N   UNL     1       2.781   5.982  18.565  0.00  0.00    +0.000 N 
ATOM      4  C   UNL     1       2.705   7.344  18.379  0.00  0.00    +0.000 C 
ATOM      5  O   UNL     1       3.442   7.940  17.594  0.00  0.00    +0.000 OA
ATOM      6  N   UNL     1       1.718   7.991  19.072  0.00  0.00    +0.000 N 
ATOM      7  C   UNL     1       3.696   5.205  17.725  0.00  0.00    +0.000 C 
ATOM      8  C   UNL     1       4.567   4.299  18.596  0.00  0.00    +0.000 C 
ATOM      9  O   UNL     1       3.756   3.444  19.422  0.00  0.00    +0.000 OA
ATOM     10  H   UNL     1       1.511   7.633  19.988  0.00  0.00    +0.000 HD
ENDROOT
BRANCH   1  12
ATOM     11  N   UNL     1       0.786   3.117  20.768  0.00  0.00    +0.000 N 
ATOM     12  C   UNL     1       2.063   3.337  21.199  0.00  0.00    +0.000 C 
ATOM     13  O   UNL     1       2.490   2.812  22.223  0.00  0.00    +0.000 OA
ATOM     14  H   UNL     1       0.160   2.553  21.324  0.00  0.00    +0.000 HD
ATOM     15  H   UNL     1       0.441   3.614  19.953  0.00  0.00    +0.000 HD
ENDBRANCH   1  12
BRANCH   6  16
ATOM     16  C   UNL     1       1.497   9.422  18.902  0.00  0.00    +0.000 C 
BRANCH  16  17
ATOM     17  C   UNL     1       0.394   9.935  19.852  0.00  0.00    +0.000 C 
ATOM     18  C   UNL     1       0.009   9.038  21.101  0.00  0.00    +0.000 C 
ATOM     19  C   UNL     1      -0.149  10.330  21.914  0.00  0.00    +0.000 C 
ATOM     20  C   UNL     1       0.838  10.998  20.936  0.00  0.00    +0.000 C 
BRANCH  17  21
ATOM     21  C   UNL     1      -0.877  10.394  18.915  0.00  0.00    +0.000 A 
ATOM     22  C   UNL     1      -1.766  11.414  19.322  0.00  0.00    +0.000 A 
ATOM     23  C   UNL     1      -2.823  11.847  18.516  0.00  0.00    +0.000 A 
ATOM     24  C   UNL     1      -3.026  11.252  17.281  0.00  0.00    +0.000 A 
ATOM     25  F   UNL     1      -4.030  11.672  16.499  0.00  0.00    +0.000 F 
ATOM     26  C   UNL     1      -2.203  10.224  16.848  0.00  0.00    +0.000 A 
ATOM     27  C   UNL     1      -1.147   9.800  17.661  0.00  0.00    +0.000 A 
ENDBRANCH  17  21
ENDBRANCH  16  17
ENDBRANCH   6  16
TORSDOF 4
ENDMDL
MODEL 4
REMARK VINA RESULT:      -7.6      5.296      8.745
REMARK  Name = 
REMARK  4 active torsions:
REMARK  status: ('A' for Active; 'I' for Inactive)
REMARK    1  A    between atoms: C_2  and  C_4
REMARK    2  A    between atoms: N_9  and  C_10
REMARK    3  A    between atoms: C_10  and  C_11
REMARK    4  A    between atoms: C_11  and  C_12
REMARK                            x       y       z     vdW  Elec       q    Type
REMARK                         _______ _______ _______ _____ _____    ______ ____
ROOT
ATOM      1  C   UNL     1       6.277   3.343  12.880  0.00  0.00    +0.000 C 
ATOM      2  C   UNL     1       5.333   3.956  13.930  0.00  0.00    +0.000 C 
ATOM      3  N   UNL     1       6.123   4.657  14.955  0.00  0.00    +0.000 N 
ATOM      4  C   UNL     1       6.021   4.551  16.324  0.00  0.00    +0.000 C 
ATOM      5  O   UNL     1       6.750   5.186  17.086  0.00  0.00    +0.000 OA
ATOM      6  N   UNL     1       5.020   3.745  16.792  0.00  0.00    +0.000 N 
ATOM      7  C   UNL     1       7.055   5.635  14.390  0.00  0.00    +0.000 C 
ATOM      8  C   UNL     1       7.940   4.969  13.335  0.00  0.00    +0.000 C 
ATOM      9  O   UNL     1       7.142   4.349  12.310  0.00  0.00    +0.000 OA
ATOM     10  H   UNL     1       4.816   2.927  16.244  0.00  0.00    +0.000 HD
ENDROOT
BRANCH   1  12
ATOM     11  N   UNL     1       5.914   1.427  11.405  0.00  0.00    +0.000 N 
ATOM     12  C   UNL     1       5.444   2.648  11.800  0.00  0.00    +0.000 C 
ATOM     13  O   UNL     1       4.407   3.112  11.338  0.00  0.00    +0.000 OA
ATOM     14  H   UNL     1       5.429   0.915  10.683  0.00  0.00    +0.000 HD
ATOM     15  H   UNL     1       6.806   1.097  11.757  0.00  0.00    +0.000 HD
ENDBRANCH   1  12
BRANCH   6  16
ATOM     16  C   UNL     1       4.772   3.610  18.223  0.00  0.00    +0.000 C 
BRANCH  16  17
ATOM     17  C   UNL     1       3.261   3.513  18.523  0.00  0.00    +0.000 C 
ATOM     18  C   UNL     1       2.333   2.799  17.455  0.00  0.00    +0.000 C 
ATOM     19  C   UNL     1       1.538   2.201  18.624  0.00  0.00    +0.000 C 
ATOM     20  C   UNL     1       2.808   2.343  19.485  0.00  0.00    +0.000 C 
BRANCH  17  21
ATOM     21  C   UNL     1       2.762   5.013  18.977  0.00  0.00    +0.000 A 
ATOM     22  C   UNL     1       2.200   5.251  20.252  0.00  0.00    +0.000 A 
ATOM     23  C   UNL     1       1.814   6.529  20.668  0.00  0.00    +0.000 A 
ATOM     24  C   UNL     1       1.967   7.602  19.806  0.00  0.00    +0.000 A 
ATOM     25  F   UNL     1       1.610   8.830  20.205  0.00  0.00    +0.000 F 
ATOM     26  C   UNL     1       2.481   7.417  18.532  0.00  0.00    +0.000 A 
ATOM     27  C   UNL     1       2.867   6.136  18.125  0.00  0.00    +0.000 A 
ENDBRANCH  17  21
ENDBRANCH  16  17
ENDBRANCH   6  16
TORSDOF 4
ENDMDL
MODEL 5
REMARK VINA RESULT:      -7.5      4.289      7.779
REMARK  Name = 
REMARK  4 active torsions:
REMARK  status: ('A' for Active; 'I' for Inactive)
REMARK    1  A    between atoms: C_2  and  C_4
REMARK    2  A    between atoms: N_9  and  C_10
REMARK    3  A    between atoms: C_10  and  C_11
REMARK    4  A    between atoms: C_11  and  C_12
REMARK                            x       y       z     vdW  Elec       q    Type
REMARK                         _______ _______ _______ _____ _____    ______ ____
ROOT
ATOM      1  C   UNL     1       2.825   4.631  20.340  0.00  0.00    +0.000 C 
ATOM      2  C   UNL     1       2.023   5.363  19.249  0.00  0.00    +0.000 C 
ATOM      3  N   UNL     1       2.924   6.220  18.464  0.00  0.00    +0.000 N 
ATOM      4  C   UNL     1       2.757   7.545  18.130  0.00  0.00    +0.000 C 
ATOM      5  O   UNL     1       3.593   8.165  17.472  0.00  0.00    +0.000 OA
ATOM      6  N   UNL     1       1.577   8.120  18.519  0.00  0.00    +0.000 N 
ATOM      7  C   UNL     1       4.081   5.498  17.930  0.00  0.00    +0.000 C 
ATOM      8  C   UNL     1       4.814   4.771  19.059  0.00  0.00    +0.000 C 
ATOM      9  O   UNL     1       3.924   3.889  19.767  0.00  0.00    +0.000 OA
ATOM     10  H   UNL     1       1.201   7.809  19.398  0.00  0.00    +0.000 HD
ENDROOT
BRANCH   1  12
ATOM     11  N   UNL     1       0.692   3.450  20.517  0.00  0.00    +0.000 N 
ATOM     12  C   UNL     1       1.885   3.714  21.127  0.00  0.00    +0.000 C 
ATOM     13  O   UNL     1       2.176   3.208  22.206  0.00  0.00    +0.000 OA
ATOM     14  H   UNL     1       0.011   2.868  20.982  0.00  0.00    +0.000 HD
ATOM     15  H   UNL     1       0.453   3.932  19.657  0.00  0.00    +0.000 HD
ENDBRANCH   1  12
BRANCH   6  16
ATOM     16  C   UNL     1       1.260   9.497  18.161  0.00  0.00    +0.000 C 
BRANCH  16  17
ATOM     17  C   UNL     1       0.334  10.149  19.210  0.00  0.00    +0.000 C 
ATOM     18  C   UNL     1       0.205   9.451  20.627  0.00  0.00    +0.000 C 
ATOM     19  C   UNL     1       0.161  10.852  21.254  0.00  0.00    +0.000 C 
ATOM     20  C   UNL     1       0.937  11.363  20.024  0.00  0.00    +0.000 C 
BRANCH  17  21
ATOM     21  C   UNL     1      -1.098  10.461  18.462  0.00  0.00    +0.000 A 
ATOM     22  C   UNL     1      -1.489   9.768  17.294  0.00  0.00    +0.000 A 
ATOM     23  C   UNL     1      -2.723   9.989  16.675  0.00  0.00    +0.000 A 
ATOM     24  C   UNL     1      -3.593  10.929  17.205  0.00  0.00    +0.000 A 
ATOM     25  F   UNL     1      -4.781  11.136  16.623  0.00  0.00    +0.000 F 
ATOM     26  C   UNL     1      -3.243  11.660  18.330  0.00  0.00    +0.000 A 
ATOM     27  C   UNL     1      -2.008  11.430  18.944  0.00  0.00    +0.000 A 
ENDBRANCH  17  21
ENDBRANCH  16  17
ENDBRANCH   6  16
TORSDOF 4
ENDMDL
MODEL 6
REMARK VINA RESULT:      -7.4      5.454      8.810
REMARK  Name = 
REMARK  4 active torsions:
REMARK  status: ('A' for Active; 'I' for Inactive)
REMARK    1  A    between atoms: C_2  and  C_4
REMARK    2  A    between atoms: N_9  and  C_10
REMARK    3  A    between atoms: C_10  and  C_11
REMARK    4  A    between atoms: C_11  and  C_12
REMARK                            x       y       z     vdW  Elec       q    Type
REMARK                         _______ _______ _______ _____ _____    ______ ____
ROOT
ATOM      1  C   UNL     1       6.377   3.322  12.695  0.00  0.00    +0.000 C 
ATOM      2  C   UNL     1       5.563   4.004  13.810  0.00  0.00    +0.000 C 
ATOM      3  N   UNL     1       6.471   4.738  14.706  0.00  0.00    +0.000 N 
ATOM      4  C   UNL     1       6.519   4.700  16.081  0.00  0.00    +0.000 C 
ATOM      5  O   UNL     1       7.336   5.356  16.726  0.00  0.00    +0.000 OA
ATOM      6  N   UNL     1       5.563   3.937  16.696  0.00  0.00    +0.000 N 
ATOM      7  C   UNL     1       7.350   5.669  13.994  0.00  0.00    +0.000 C 
ATOM      8  C   UNL     1       8.104   4.935  12.884  0.00  0.00    +0.000 C 
ATOM      9  O   UNL     1       7.189   4.282  11.984  0.00  0.00    +0.000 OA
ATOM     10  H   UNL     1       5.289   3.098  16.215  0.00  0.00    +0.000 HD
ENDROOT
BRANCH   1  12
ATOM     11  N   UNL     1       4.292   3.288  11.419  0.00  0.00    +0.000 N 
ATOM     12  C   UNL     1       5.421   2.592  11.748  0.00  0.00    +0.000 C 
ATOM     13  O   UNL     1       5.648   1.484  11.274  0.00  0.00    +0.000 OA
ATOM     14  H   UNL     1       3.604   2.866  10.813  0.00  0.00    +0.000 HD
ATOM     15  H   UNL     1       4.100   4.173  11.875  0.00  0.00    +0.000 HD
ENDBRANCH   1  12
BRANCH   6  16
ATOM     16  C   UNL     1       5.473   3.876  18.150  0.00  0.00    +0.000 C 
BRANCH  16  17
ATOM     17  C   UNL     1       4.025   3.603  18.609  0.00  0.00    +0.000 C 
ATOM     18  C   UNL     1       3.135   2.630  17.730  0.00  0.00    +0.000 C 
ATOM     19  C   UNL     1       2.540   2.080  19.034  0.00  0.00    +0.000 C 
ATOM     20  C   UNL     1       3.840   2.513  19.740  0.00  0.00    +0.000 C 
BRANCH  17  21
ATOM     21  C   UNL     1       3.338   5.061  18.936  0.00  0.00    +0.000 A 
ATOM     22  C   UNL     1       3.411   6.135  18.020  0.00  0.00    +0.000 A 
ATOM     23  C   UNL     1       2.792   7.364  18.264  0.00  0.00    +0.000 A 
ATOM     24  C   UNL     1       2.095   7.554  19.446  0.00  0.00    +0.000 A 
ATOM     25  F   UNL     1       1.490   8.727  19.679  0.00  0.00    +0.000 F 
ATOM     26  C   UNL     1       2.022   6.545  20.393  0.00  0.00    +0.000 A 
ATOM     27  C   UNL     1       2.642   5.317  20.140  0.00  0.00    +0.000 A 
ENDBRANCH  17  21
ENDBRANCH  16  17
ENDBRANCH   6  16
TORSDOF 4
ENDMDL
MODEL 7
REMARK VINA RESULT:      -7.4      5.014      8.222
REMARK  Name = 
REMARK  4 active torsions:
REMARK  status: ('A' for Active; 'I' for Inactive)
REMARK    1  A    between atoms: C_2  and  C_4
REMARK    2  A    between atoms: N_9  and  C_10
REMARK    3  A    between atoms: C_10  and  C_11
REMARK    4  A    between atoms: C_11  and  C_12
REMARK                            x       y       z     vdW  Elec       q    Type
REMARK                         _______ _______ _______ _____ _____    ______ ____
ROOT
ATOM      1  C   UNL     1       6.356   3.839  13.937  0.00  0.00    +0.000 C 
ATOM      2  C   UNL     1       5.230   4.221  14.915  0.00  0.00    +0.000 C 
ATOM      3  N   UNL     1       5.813   4.757  16.155  0.00  0.00    +0.000 N 
ATOM      4  C   UNL     1       5.517   4.407  17.452  0.00  0.00    +0.000 C 
ATOM      5  O   UNL     1       6.084   4.922  18.416  0.00  0.00    +0.000 OA
ATOM      6  N   UNL     1       4.510   3.493  17.614  0.00  0.00    +0.000 N 
ATOM      7  C   UNL     1       6.756   5.854  15.918  0.00  0.00    +0.000 C 
ATOM      8  C   UNL     1       7.827   5.418  14.917  0.00  0.00    +0.000 C 
ATOM      9  O   UNL     1       7.231   4.961  13.689  0.00  0.00    +0.000 OA
ATOM     10  H   UNL     1       4.442   2.779  16.910  0.00  0.00    +0.000 HD
ENDROOT
BRANCH   1  12
ATOM     11  N   UNL     1       6.521   2.444  11.936  0.00  0.00    +0.000 N 
ATOM     12  C   UNL     1       5.738   3.317  12.637  0.00  0.00    +0.000 C 
ATOM     13  O   UNL     1       4.611   3.612  12.254  0.00  0.00    +0.000 OA
ATOM     14  H   UNL     1       6.190   2.070  11.058  0.00  0.00    +0.000 HD
ATOM     15  H   UNL     1       7.471   2.268  12.242  0.00  0.00    +0.000 HD
ENDBRANCH   1  12
BRANCH   6  16
ATOM     16  C   UNL     1       4.063   3.098  18.944  0.00  0.00    +0.000 C 
BRANCH  16  17
ATOM     17  C   UNL     1       2.550   3.347  19.123  0.00  0.00    +0.000 C 
ATOM     18  C   UNL     1       1.555   2.660  18.099  0.00  0.00    +0.000 C 
ATOM     19  C   UNL     1       0.591   2.429  19.271  0.00  0.00    +0.000 C 
ATOM     20  C   UNL     1       1.815   2.462  20.207  0.00  0.00    +0.000 C 
BRANCH  17  21
ATOM     21  C   UNL     1       2.345   4.969  19.300  0.00  0.00    +0.000 A 
ATOM     22  C   UNL     1       2.486   5.856  18.209  0.00  0.00    +0.000 A 
ATOM     23  C   UNL     1       2.269   7.232  18.334  0.00  0.00    +0.000 A 
ATOM     24  C   UNL     1       1.921   7.757  19.569  0.00  0.00    +0.000 A 
ATOM     25  F   UNL     1       1.700   9.073  19.691  0.00  0.00    +0.000 F 
ATOM     26  C   UNL     1       1.804   6.935  20.678  0.00  0.00    +0.000 A 
ATOM     27  C   UNL     1       2.020   5.560  20.543  0.00  0.00    +0.000 A 
ENDBRANCH  17  21
ENDBRANCH  16  17
ENDBRANCH   6  16
TORSDOF 4
ENDMDL
MODEL 8
REMARK VINA RESULT:      -7.3      4.638      7.648
REMARK  Name = 
REMARK  4 active torsions:
REMARK  status: ('A' for Active; 'I' for Inactive)
REMARK    1  A    between atoms: C_2  and  C_4
REMARK    2  A    between atoms: N_9  and  C_10
REMARK    3  A    between atoms: C_10  and  C_11
REMARK    4  A    between atoms: C_11  and  C_12
REMARK                            x       y       z     vdW  Elec       q    Type
REMARK                         _______ _______ _______ _____ _____    ______ ____
ROOT
ATOM      1  C   UNL     1       7.157   5.115  15.609  0.00  0.00    +0.000 C 
ATOM      2  C   UNL     1       5.744   5.075  16.219  0.00  0.00    +0.000 C 
ATOM      3  N   UNL     1       5.802   5.494  17.628  0.00  0.00    +0.000 N 
ATOM      4  C   UNL     1       5.254   4.866  18.723  0.00  0.00    +0.000 C 
ATOM      5  O   UNL     1       5.378   5.310  19.864  0.00  0.00    +0.000 OA
ATOM      6  N   UNL     1       4.507   3.748  18.465  0.00  0.00    +0.000 N 
ATOM      7  C   UNL     1       6.464   6.787  17.815  0.00  0.00    +0.000 C 
ATOM      8  C   UNL     1       7.846   6.769  17.160  0.00  0.00    +0.000 C 
ATOM      9  O   UNL     1       7.752   6.421  15.767  0.00  0.00    +0.000 OA
ATOM     10  H   UNL     1       4.821   3.171  17.704  0.00  0.00    +0.000 HD
ENDROOT
BRANCH   1  12
ATOM     11  N   UNL     1       6.295   3.627  13.872  0.00  0.00    +0.000 N 
ATOM     12  C   UNL     1       7.080   4.713  14.134  0.00  0.00    +0.000 C 
ATOM     13  O   UNL     1       7.637   5.330  13.232  0.00  0.00    +0.000 OA
ATOM     14  H   UNL     1       6.208   3.289  12.924  0.00  0.00    +0.000 HD
ATOM     15  H   UNL     1       5.898   3.099  14.642  0.00  0.00    +0.000 HD
ENDBRANCH   1  12
BRANCH   6  16
ATOM     16  C   UNL     1       3.820   3.039  19.538  0.00  0.00    +0.000 C 
BRANCH  16  17
ATOM     17  C   UNL     1       2.303   3.324  19.516  0.00  0.00    +0.000 C 
ATOM     18  C   UNL     1       1.405   2.503  18.501  0.00  0.00    +0.000 C 
ATOM     19  C   UNL     1       0.319   2.452  19.584  0.00  0.00    +0.000 C 
ATOM     20  C   UNL     1       1.438   2.611  20.632  0.00  0.00    +0.000 C 
BRANCH  17  21
ATOM     21  C   UNL     1       2.119   4.956  19.436  0.00  0.00    +0.000 A 
ATOM     22  C   UNL     1       1.926   5.737  20.598  0.00  0.00    +0.000 A 
ATOM     23  C   UNL     1       1.814   7.129  20.550  0.00  0.00    +0.000 A 
ATOM     24  C   UNL     1       1.876   7.776  19.326  0.00  0.00    +0.000 A 
ATOM     25  F   UNL     1       1.781   9.111  19.276  0.00  0.00    +0.000 F 
ATOM     26  C   UNL     1       2.029   7.054  18.153  0.00  0.00    +0.000 A 
ATOM     27  C   UNL     1       2.143   5.662  18.211  0.00  0.00    +0.000 A 
ENDBRANCH  17  21
ENDBRANCH  16  17
ENDBRANCH   6  16
TORSDOF 4
ENDMDL
MODEL 9
REMARK VINA RESULT:      -7.2      5.129      7.183
REMARK  Name = 
REMARK  4 active torsions:
REMARK  status: ('A' for Active; 'I' for Inactive)
REMARK    1  A    between atoms: C_2  and  C_4
REMARK    2  A    between atoms: N_9  and  C_10
REMARK    3  A    between atoms: C_10  and  C_11
REMARK    4  A    between atoms: C_11  and  C_12
REMARK                            x       y       z     vdW  Elec       q    Type
REMARK                         _______ _______ _______ _____ _____    ______ ____
ROOT
ATOM      1  C   UNL     1       6.996   6.286  17.362  0.00  0.00    +0.000 C 
ATOM      2  C   UNL     1       6.819   4.845  17.873  0.00  0.00    +0.000 C 
ATOM      3  N   UNL     1       5.988   4.083  16.927  0.00  0.00    +0.000 N 
ATOM      4  C   UNL     1       4.892   3.298  17.203  0.00  0.00    +0.000 C 
ATOM      5  O   UNL     1       4.266   2.713  16.319  0.00  0.00    +0.000 OA
ATOM      6  N   UNL     1       4.574   3.152  18.526  0.00  0.00    +0.000 N 
ATOM      7  C   UNL     1       6.488   4.140  15.551  0.00  0.00    +0.000 C 
ATOM      8  C   UNL     1       6.670   5.596  15.118  0.00  0.00    +0.000 C 
ATOM      9  O   UNL     1       7.540   6.298  16.024  0.00  0.00    +0.000 OA
ATOM     10  H   UNL     1       4.732   3.954  19.111  0.00  0.00    +0.000 HD
ENDROOT
BRANCH   1  12
ATOM     11  N   UNL     1       8.342   6.336  19.402  0.00  0.00    +0.000 N 
ATOM     12  C   UNL     1       7.892   7.058  18.334  0.00  0.00    +0.000 C 
ATOM     13  O   UNL     1       8.229   8.226  18.165  0.00  0.00    +0.000 OA
ATOM     14  H   UNL     1       8.924   6.781  20.097  0.00  0.00    +0.000 HD
ATOM     15  H   UNL     1       7.997   5.394  19.550  0.00  0.00    +0.000 HD
ENDBRANCH   1  12
BRANCH   6  16
ATOM     16  C   UNL     1       3.476   2.288  18.943  0.00  0.00    +0.000 C 
BRANCH  16  17
ATOM     17  C   UNL     1       2.505   3.031  19.885  0.00  0.00    +0.000 C 
ATOM     18  C   UNL     1       1.111   2.350  20.209  0.00  0.00    +0.000 C 
ATOM     19  C   UNL     1       1.248   2.874  21.645  0.00  0.00    +0.000 C 
ATOM     20  C   UNL     1       2.775   2.880  21.435  0.00  0.00    +0.000 C 
BRANCH  17  21
ATOM     21  C   UNL     1       2.405   4.584  19.349  0.00  0.00    +0.000 A 
ATOM     22  C   UNL     1       2.751   5.675  20.177  0.00  0.00    +0.000 A 
ATOM     23  C   UNL     1       2.716   6.996  19.720  0.00  0.00    +0.000 A 
ATOM     24  C   UNL     1       2.313   7.258  18.420  0.00  0.00    +0.000 A 
ATOM     25  F   UNL     1       2.290   8.521  17.974  0.00  0.00    +0.000 F 
ATOM     26  C   UNL     1       1.931   6.225  17.578  0.00  0.00    +0.000 A 
ATOM     27  C   UNL     1       1.972   4.907  18.043  0.00  0.00    +0.000 A 
ENDBRANCH  17  21
ENDBRANCH  16  17
ENDBRANCH   6  16
TORSDOF 4
ENDMDL
