MODEL 1
REMARK VINA RESULT:      -6.6      0.000      0.000
REMARK  Name = 
REMARK  9 active torsions:
REMARK  status: ('A' for Active; 'I' for Inactive)
REMARK    1  A    between atoms: C_1  and  C_2
REMARK    2  A    between atoms: C_5  and  C_6
REMARK    3  A    between atoms: C_11  and  N_12
REMARK    4  A    between atoms: N_15  and  C_16
REMARK    5  A    between atoms: C_19  and  C_20
REMARK    6  A    between atoms: C_20  and  C_21
REMARK    7  A    between atoms: C_21  and  C_22
REMARK    8  A    between atoms: C_22  and  O_23
REMARK    9  A    between atoms: C_26  and  O_27
REMARK                            x       y       z     vdW  Elec       q    Type
REMARK                         _______ _______ _______ _____ _____    ______ ____
ROOT
ATOM      1  C   UNL     1      -0.164   9.207  21.606  0.00  0.00    +0.000 C 
ATOM      2  O   UNL     1      -0.835   8.358  22.181  0.00  0.00    +0.000 OA
ATOM      3  N   UNL     1      -0.220  10.567  21.922  0.00  0.00    +0.000 N 
ATOM      4  C   UNL     1      -0.893  10.951  23.143  0.00  0.00    +0.000 C 
ATOM      5  C   UNL     1      -2.146  11.769  22.859  0.00  0.00    +0.000 C 
ATOM      6  C   UNL     1      -1.919  12.943  21.879  0.00  0.00    +0.000 C 
ATOM      7  C   UNL     1      -1.095  12.497  20.609  0.00  0.00    +0.000 C 
ATOM      8  C   UNL     1       0.146  11.705  21.070  0.00  0.00    +0.000 C 
ENDROOT
BRANCH   1  13
ATOM      9  C   UNL     1       3.475   7.312  17.502  0.00  0.00    +0.000 C 
ATOM     10  C   UNL     1       2.520   7.776  18.561  0.00  0.00    +0.000 A 
ATOM     11  C   UNL     1       1.779   8.942  18.353  0.00  0.00    +0.000 A 
ATOM     12  C   UNL     1       0.948   9.437  19.358  0.00  0.00    +0.000 A 
ATOM     13  C   UNL     1       0.767   8.721  20.544  0.00  0.00    +0.000 A 
ATOM     14  C   UNL     1       1.527   7.564  20.773  0.00  0.00    +0.000 A 
ATOM     15  C   UNL     1       2.405   7.115  19.790  0.00  0.00    +0.000 A 
BRANCH  15  16
ATOM     16  O   UNL     1       3.185   6.016  20.013  0.00  0.00    +0.000 OA
ATOM     17  H   UNL     1       3.564   5.718  19.169  0.00  0.00    +0.000 HD
ENDBRANCH  15  16
ENDBRANCH   1  13
BRANCH   6  18
ATOM     18  N   UNL     1      -3.076  13.843  21.615  0.00  0.00    +0.000 NA
ATOM     19  C   UNL     1      -2.702  15.265  21.424  0.00  0.00    +0.000 C 
ATOM     20  C   UNL     1      -2.600  16.136  22.710  0.00  0.00    +0.000 C 
ATOM     21  N   UNL     1      -3.687  15.967  23.691  0.00  0.00    +0.000 NA
ATOM     22  C   UNL     1      -3.309  16.519  24.991  0.00  0.00    +0.000 C 
ATOM     23  C   UNL     1      -4.094  14.567  23.846  0.00  0.00    +0.000 C 
ATOM     24  C   UNL     1      -4.248  13.839  22.506  0.00  0.00    +0.000 C 
ENDBRANCH   6  18
BRANCH   7  25
ATOM     25  C   UNL     1      -1.900  11.725  19.547  0.00  0.00    +0.000 C 
BRANCH  25  26
ATOM     26  C   UNL     1      -1.679  12.084  18.074  0.00  0.00    +0.000 C 
BRANCH  26  27
ATOM     27  C   UNL     1      -2.739  11.413  17.199  0.00  0.00    +0.000 C 
BRANCH  27  28
ATOM     28  O   UNL     1      -2.323  11.377  15.840  0.00  0.00    +0.000 OA
ATOM     29  H   UNL     1      -3.102  11.552  15.285  0.00  0.00    +0.000 HD
ENDBRANCH  27  28
ENDBRANCH  26  27
ENDBRANCH  25  26
ENDBRANCH   7  25
TORSDOF 7
ENDMDL
MODEL 2
REMARK VINA RESULT:      -6.6      2.004      3.729
REMARK  Name = 
REMARK  9 active torsions:
REMARK  status: ('A' for Active; 'I' for Inactive)
REMARK    1  A    between atoms: C_1  and  C_2
REMARK    2  A    between atoms: C_5  and  C_6
REMARK    3  A    between atoms: C_11  and  N_12
REMARK    4  A    between atoms: N_15  and  C_16
REMARK    5  A    between atoms: C_19  and  C_20
REMARK    6  A    between atoms: C_20  and  C_21
REMARK    7  A    between atoms: C_21  and  C_22
REMARK    8  A    between atoms: C_22  and  O_23
REMARK    9  A    between atoms: C_26  and  O_27
REMARK                            x       y       z     vdW  Elec       q    Type
REMARK                         _______ _______ _______ _____ _____    ______ ____
ROOT
ATOM      1  C   UNL     1       1.185  11.345  18.702  0.00  0.00    +0.000 C 
ATOM      2  O   UNL     1       2.112  12.120  18.494  0.00  0.00    +0.000 OA
ATOM      3  N   UNL     1      -0.147  11.757  18.803  0.00  0.00    +0.000 N 
ATOM      4  C   UNL     1      -0.473  13.102  18.385  0.00  0.00    +0.000 C 
ATOM      5  C   UNL     1      -0.942  13.954  19.557  0.00  0.00    +0.000 C 
ATOM      6  C   UNL     1      -2.039  13.286  20.417  0.00  0.00    +0.000 C 
ATOM      7  C   UNL     1      -1.684  11.788  20.764  0.00  0.00    +0.000 C 
ATOM      8  C   UNL     1      -1.254  11.063  19.472  0.00  0.00    +0.000 C 
ENDROOT
BRANCH   1  13
ATOM      9  C   UNL     1       2.560   5.727  19.176  0.00  0.00    +0.000 C 
ATOM     10  C   UNL     1       2.176   7.173  19.062  0.00  0.00    +0.000 A 
ATOM     11  C   UNL     1       2.322   7.826  17.836  0.00  0.00    +0.000 A 
ATOM     12  C   UNL     1       2.052   9.190  17.729  0.00  0.00    +0.000 A 
ATOM     13  C   UNL     1       1.535   9.898  18.817  0.00  0.00    +0.000 A 
ATOM     14  C   UNL     1       1.412   9.256  20.059  0.00  0.00    +0.000 A 
ATOM     15  C   UNL     1       1.748   7.910  20.173  0.00  0.00    +0.000 A 
BRANCH  15  16
ATOM     16  O   UNL     1       1.676   7.281  21.382  0.00  0.00    +0.000 OA
ATOM     17  H   UNL     1       2.573   7.048  21.675  0.00  0.00    +0.000 HD
ENDBRANCH  15  16
ENDBRANCH   1  13
BRANCH   6  18
ATOM     18  N   UNL     1      -2.612  14.089  21.533  0.00  0.00    +0.000 NA
ATOM     19  C   UNL     1      -3.685  13.395  22.285  0.00  0.00    +0.000 C 
ATOM     20  C   UNL     1      -5.132  13.542  21.730  0.00  0.00    +0.000 C 
ATOM     21  N   UNL     1      -5.527  14.898  21.310  0.00  0.00    +0.000 NA
ATOM     22  C   UNL     1      -6.723  14.858  20.469  0.00  0.00    +0.000 C 
ATOM     23  C   UNL     1      -4.452  15.607  20.608  0.00  0.00    +0.000 C 
ATOM     24  C   UNL     1      -3.091  15.462  21.300  0.00  0.00    +0.000 C 
ENDBRANCH   6  18
BRANCH   7  25
ATOM     25  C   UNL     1      -0.648  11.608  21.889  0.00  0.00    +0.000 C 
BRANCH  25  26
ATOM     26  C   UNL     1      -1.076  10.841  23.146  0.00  0.00    +0.000 C 
BRANCH  26  27
ATOM     27  C   UNL     1      -0.366   9.488  23.210  0.00  0.00    +0.000 C 
BRANCH  27  28
ATOM     28  O   UNL     1       1.040   9.662  23.337  0.00  0.00    +0.000 OA
ATOM     29  H   UNL     1       1.231  10.611  23.243  0.00  0.00    +0.000 HD
ENDBRANCH  27  28
ENDBRANCH  26  27
ENDBRANCH  25  26
ENDBRANCH   7  25
TORSDOF 7
ENDMDL
MODEL 3
REMARK VINA RESULT:      -6.5      1.338      1.971
REMARK  Name = 
REMARK  9 active torsions:
REMARK  status: ('A' for Active; 'I' for Inactive)
REMARK    1  A    between atoms: C_1  and  C_2
REMARK    2  A    between atoms: C_5  and  C_6
REMARK    3  A    between atoms: C_11  and  N_12
REMARK    4  A    between atoms: N_15  and  C_16
REMARK    5  A    between atoms: C_19  and  C_20
REMARK    6  A    between atoms: C_20  and  C_21
REMARK    7  A    between atoms: C_21  and  C_22
REMARK    8  A    between atoms: C_22  and  O_23
REMARK    9  A    between atoms: C_26  and  O_27
REMARK                            x       y       z     vdW  Elec       q    Type
REMARK                         _______ _______ _______ _____ _____    ______ ____
ROOT
ATOM      1  C   UNL     1      -0.290   9.360  21.679  0.00  0.00    +0.000 C 
ATOM      2  O   UNL     1      -0.985   8.520  22.238  0.00  0.00    +0.000 OA
ATOM      3  N   UNL     1      -0.340  10.722  21.989  0.00  0.00    +0.000 N 
ATOM      4  C   UNL     1      -1.040  11.117  23.190  0.00  0.00    +0.000 C 
ATOM      5  C   UNL     1      -2.276  11.948  22.870  0.00  0.00    +0.000 C 
ATOM      6  C   UNL     1      -2.010  13.115  21.892  0.00  0.00    +0.000 C 
ATOM      7  C   UNL     1      -1.157  12.656  20.646  0.00  0.00    +0.000 C 
ATOM      8  C   UNL     1       0.062  11.852  21.143  0.00  0.00    +0.000 C 
ENDROOT
BRANCH   1  13
ATOM      9  C   UNL     1       3.394   7.421  17.635  0.00  0.00    +0.000 C 
ATOM     10  C   UNL     1       2.458   7.948  18.683  0.00  0.00    +0.000 A 
ATOM     11  C   UNL     1       2.263   7.218  19.858  0.00  0.00    +0.000 A 
ATOM     12  C   UNL     1       1.335   7.645  20.806  0.00  0.00    +0.000 A 
ATOM     13  C   UNL     1       0.663   8.859  20.644  0.00  0.00    +0.000 A 
ATOM     14  C   UNL     1       0.832   9.585  19.455  0.00  0.00    +0.000 A 
ATOM     15  C   UNL     1       1.711   9.115  18.483  0.00  0.00    +0.000 A 
BRANCH  15  16
ATOM     16  O   UNL     1       1.854   9.784  17.302  0.00  0.00    +0.000 OA
ATOM     17  H   UNL     1       2.782   9.733  17.016  0.00  0.00    +0.000 HD
ENDBRANCH  15  16
ENDBRANCH   1  13
BRANCH   6  18
ATOM     18  N   UNL     1      -3.149  14.027  21.594  0.00  0.00    +0.000 NA
ATOM     19  C   UNL     1      -3.554  14.879  22.738  0.00  0.00    +0.000 C 
ATOM     20  C   UNL     1      -4.589  14.269  23.729  0.00  0.00    +0.000 C 
ATOM     21  N   UNL     1      -5.732  13.568  23.117  0.00  0.00    +0.000 NA
ATOM     22  C   UNL     1      -6.414  12.724  24.096  0.00  0.00    +0.000 C 
ATOM     23  C   UNL     1      -5.343  12.763  21.954  0.00  0.00    +0.000 C 
ATOM     24  C   UNL     1      -4.394  13.504  21.006  0.00  0.00    +0.000 C 
ENDBRANCH   6  18
BRANCH   7  25
ATOM     25  C   UNL     1      -1.942  11.889  19.566  0.00  0.00    +0.000 C 
BRANCH  25  26
ATOM     26  C   UNL     1      -1.477  12.015  18.111  0.00  0.00    +0.000 C 
BRANCH  26  27
ATOM     27  C   UNL     1      -2.125  10.930  17.250  0.00  0.00    +0.000 C 
BRANCH  27  28
ATOM     28  O   UNL     1      -2.403  11.421  15.944  0.00  0.00    +0.000 OA
ATOM     29  H   UNL     1      -1.788  10.988  15.328  0.00  0.00    +0.000 HD
ENDBRANCH  27  28
ENDBRANCH  26  27
ENDBRANCH  25  26
ENDBRANCH   7  25
TORSDOF 7
ENDMDL
MODEL 4
REMARK VINA RESULT:      -6.5      3.422      5.195
REMARK  Name = 
REMARK  9 active torsions:
REMARK  status: ('A' for Active; 'I' for Inactive)
REMARK    1  A    between atoms: C_1  and  C_2
REMARK    2  A    between atoms: C_5  and  C_6
REMARK    3  A    between atoms: C_11  and  N_12
REMARK    4  A    between atoms: N_15  and  C_16
REMARK    5  A    between atoms: C_19  and  C_20
REMARK    6  A    between atoms: C_20  and  C_21
REMARK    7  A    between atoms: C_21  and  C_22
REMARK    8  A    between atoms: C_22  and  O_23
REMARK    9  A    between atoms: C_26  and  O_27
REMARK                            x       y       z     vdW  Elec       q    Type
REMARK                         _______ _______ _______ _____ _____    ______ ____
ROOT
ATOM      1  C   UNL     1       2.507   8.010  18.461  0.00  0.00    +0.000 C 
ATOM      2  O   UNL     1       3.665   8.225  18.118  0.00  0.00    +0.000 OA
ATOM      3  N   UNL     1       1.503   8.980  18.407  0.00  0.00    +0.000 N 
ATOM      4  C   UNL     1       1.776  10.198  17.677  0.00  0.00    +0.000 C 
ATOM      5  C   UNL     1       1.808  11.409  18.600  0.00  0.00    +0.000 C 
ATOM      6  C   UNL     1       0.589  11.510  19.544  0.00  0.00    +0.000 C 
ATOM      7  C   UNL     1       0.270  10.131  20.242  0.00  0.00    +0.000 C 
ATOM      8  C   UNL     1       0.250   9.021  19.172  0.00  0.00    +0.000 C 
ENDROOT
BRANCH   1  13
ATOM      9  C   UNL     1       1.256   2.626  20.228  0.00  0.00    +0.000 C 
ATOM     10  C   UNL     1       1.605   4.007  19.759  0.00  0.00    +0.000 A 
ATOM     11  C   UNL     1       1.724   5.039  20.693  0.00  0.00    +0.000 A 
ATOM     12  C   UNL     1       1.964   6.346  20.272  0.00  0.00    +0.000 A 
ATOM     13  C   UNL     1       2.191   6.625  18.921  0.00  0.00    +0.000 A 
ATOM     14  C   UNL     1       2.046   5.601  17.974  0.00  0.00    +0.000 A 
ATOM     15  C   UNL     1       1.739   4.311  18.399  0.00  0.00    +0.000 A 
BRANCH  15  16
ATOM     16  O   UNL     1       1.552   3.312  17.487  0.00  0.00    +0.000 OA
ATOM     17  H   UNL     1       2.408   3.077  17.090  0.00  0.00    +0.000 HD
ENDBRANCH  15  16
ENDBRANCH   1  13
BRANCH   6  18
ATOM     18  N   UNL     1       0.503  12.712  20.419  0.00  0.00    +0.000 NA
ATOM     19  C   UNL     1      -0.340  13.800  19.869  0.00  0.00    +0.000 C 
ATOM     20  C   UNL     1       0.363  14.814  18.919  0.00  0.00    +0.000 C 
ATOM     21  N   UNL     1       1.686  15.294  19.355  0.00  0.00    +0.000 NA
ATOM     22  C   UNL     1       2.409  15.916  18.247  0.00  0.00    +0.000 C 
ATOM     23  C   UNL     1       2.506  14.231  19.946  0.00  0.00    +0.000 C 
ATOM     24  C   UNL     1       1.725  13.355  20.932  0.00  0.00    +0.000 C 
ENDBRANCH   6  18
BRANCH   7  25
ATOM     25  C   UNL     1       1.192   9.769  21.421  0.00  0.00    +0.000 C 
BRANCH  25  26
ATOM     26  C   UNL     1       0.541   9.308  22.730  0.00  0.00    +0.000 C 
BRANCH  26  27
ATOM     27  C   UNL     1      -0.734  10.107  22.999  0.00  0.00    +0.000 C 
BRANCH  27  28
ATOM     28  O   UNL     1      -0.445  11.496  23.106  0.00  0.00    +0.000 OA
ATOM     29  H   UNL     1      -0.749  11.926  22.288  0.00  0.00    +0.000 HD
ENDBRANCH  27  28
ENDBRANCH  26  27
ENDBRANCH  25  26
ENDBRANCH   7  25
TORSDOF 7
ENDMDL
MODEL 5
REMARK VINA RESULT:      -6.5      0.978      1.109
REMARK  Name = 
REMARK  9 active torsions:
REMARK  status: ('A' for Active; 'I' for Inactive)
REMARK    1  A    between atoms: C_1  and  C_2
REMARK    2  A    between atoms: C_5  and  C_6
REMARK    3  A    between atoms: C_11  and  N_12
REMARK    4  A    between atoms: N_15  and  C_16
REMARK    5  A    between atoms: C_19  and  C_20
REMARK    6  A    between atoms: C_20  and  C_21
REMARK    7  A    between atoms: C_21  and  C_22
REMARK    8  A    between atoms: C_22  and  O_23
REMARK    9  A    between atoms: C_26  and  O_27
REMARK                            x       y       z     vdW  Elec       q    Type
REMARK                         _______ _______ _______ _____ _____    ______ ____
ROOT
ATOM      1  C   UNL     1      -0.136   9.079  21.547  0.00  0.00    +0.000 C 
ATOM      2  O   UNL     1      -0.877   8.220  22.012  0.00  0.00    +0.000 OA
ATOM      3  N   UNL     1      -0.128  10.403  21.993  0.00  0.00    +0.000 N 
ATOM      4  C   UNL     1      -0.828  10.707  23.221  0.00  0.00    +0.000 C 
ATOM      5  C   UNL     1      -2.020  11.623  22.974  0.00  0.00    +0.000 C 
ATOM      6  C   UNL     1      -1.687  12.869  22.123  0.00  0.00    +0.000 C 
ATOM      7  C   UNL     1      -0.838  12.498  20.845  0.00  0.00    +0.000 C 
ATOM      8  C   UNL     1       0.337  11.593  21.270  0.00  0.00    +0.000 C 
ENDROOT
BRANCH   1  13
ATOM      9  C   UNL     1       3.557   7.373  17.408  0.00  0.00    +0.000 C 
ATOM     10  C   UNL     1       2.588   7.787  18.476  0.00  0.00    +0.000 A 
ATOM     11  C   UNL     1       1.809   8.932  18.288  0.00  0.00    +0.000 A 
ATOM     12  C   UNL     1       0.964   9.382  19.302  0.00  0.00    +0.000 A 
ATOM     13  C   UNL     1       0.809   8.641  20.476  0.00  0.00    +0.000 A 
ATOM     14  C   UNL     1       1.607   7.506  20.684  0.00  0.00    +0.000 A 
ATOM     15  C   UNL     1       2.497   7.102  19.693  0.00  0.00    +0.000 A 
BRANCH  15  16
ATOM     16  O   UNL     1       3.313   6.026  19.897  0.00  0.00    +0.000 OA
ATOM     17  H   UNL     1       3.159   5.372  19.195  0.00  0.00    +0.000 HD
ENDBRANCH  15  16
ENDBRANCH   1  13
BRANCH   6  18
ATOM     18  N   UNL     1      -2.779  13.858  21.907  0.00  0.00    +0.000 NA
ATOM     19  C   UNL     1      -2.301  15.239  21.652  0.00  0.00    +0.000 C 
ATOM     20  C   UNL     1      -2.041  16.128  22.903  0.00  0.00    +0.000 C 
ATOM     21  N   UNL     1      -3.071  16.076  23.956  0.00  0.00    +0.000 NA
ATOM     22  C   UNL     1      -2.563  16.623  25.213  0.00  0.00    +0.000 C 
ATOM     23  C   UNL     1      -3.583  14.720  24.178  0.00  0.00    +0.000 C 
ATOM     24  C   UNL     1      -3.885  13.976  22.872  0.00  0.00    +0.000 C 
ENDBRANCH   6  18
BRANCH   7  25
ATOM     25  C   UNL     1      -1.641  11.882  19.685  0.00  0.00    +0.000 C 
BRANCH  25  26
ATOM     26  C   UNL     1      -1.250  12.265  18.254  0.00  0.00    +0.000 C 
BRANCH  26  27
ATOM     27  C   UNL     1      -0.220  13.395  18.270  0.00  0.00    +0.000 C 
BRANCH  27  28
ATOM     28  O   UNL     1       1.073  12.904  17.935  0.00  0.00    +0.000 OA
ATOM     29  H   UNL     1       1.316  13.275  17.070  0.00  0.00    +0.000 HD
ENDBRANCH  27  28
ENDBRANCH  26  27
ENDBRANCH  25  26
ENDBRANCH   7  25
TORSDOF 7
ENDMDL
MODEL 6
REMARK VINA RESULT:      -6.5      1.528      1.894
REMARK  Name = 
REMARK  9 active torsions:
REMARK  status: ('A' for Active; 'I' for Inactive)
REMARK    1  A    between atoms: C_1  and  C_2
REMARK    2  A    between atoms: C_5  and  C_6
REMARK    3  A    between atoms: C_11  and  N_12
REMARK    4  A    between atoms: N_15  and  C_16
REMARK    5  A    between atoms: C_19  and  C_20
REMARK    6  A    between atoms: C_20  and  C_21
REMARK    7  A    between atoms: C_21  and  C_22
REMARK    8  A    between atoms: C_22  and  O_23
REMARK    9  A    between atoms: C_26  and  O_27
REMARK                            x       y       z     vdW  Elec       q    Type
REMARK                         _______ _______ _______ _____ _____    ______ ____
ROOT
ATOM      1  C   UNL     1       0.053   8.841  21.350  0.00  0.00    +0.000 C 
ATOM      2  O   UNL     1      -0.815   8.042  21.681  0.00  0.00    +0.000 OA
ATOM      3  N   UNL     1       0.171  10.116  21.910  0.00  0.00    +0.000 N 
ATOM      4  C   UNL     1      -0.590  10.403  23.105  0.00  0.00    +0.000 C 
ATOM      5  C   UNL     1      -1.648  11.470  22.851  0.00  0.00    +0.000 C 
ATOM      6  C   UNL     1      -1.107  12.731  22.140  0.00  0.00    +0.000 C 
ATOM      7  C   UNL     1      -0.201  12.364  20.901  0.00  0.00    +0.000 C 
ATOM      8  C   UNL     1       0.825  11.296  21.330  0.00  0.00    +0.000 C 
ENDROOT
BRANCH   1  13
ATOM      9  C   UNL     1       3.869   7.046  17.362  0.00  0.00    +0.000 C 
ATOM     10  C   UNL     1       2.868   7.483  18.391  0.00  0.00    +0.000 A 
ATOM     11  C   UNL     1       2.096   8.624  18.155  0.00  0.00    +0.000 A 
ATOM     12  C   UNL     1       1.222   9.096  19.133  0.00  0.00    +0.000 A 
ATOM     13  C   UNL     1       1.029   8.380  20.318  0.00  0.00    +0.000 A 
ATOM     14  C   UNL     1       1.820   7.250  20.575  0.00  0.00    +0.000 A 
ATOM     15  C   UNL     1       2.740   6.824  19.620  0.00  0.00    +0.000 A 
BRANCH  15  16
ATOM     16  O   UNL     1       3.548   5.753  19.871  0.00  0.00    +0.000 OA
ATOM     17  H   UNL     1       3.307   5.025  19.274  0.00  0.00    +0.000 HD
ENDBRANCH  15  16
ENDBRANCH   1  13
BRANCH   6  18
ATOM     18  N   UNL     1      -2.061  13.856  21.931  0.00  0.00    +0.000 NA
ATOM     19  C   UNL     1      -2.375  14.616  23.165  0.00  0.00    +0.000 C 
ATOM     20  C   UNL     1      -3.546  14.077  24.037  0.00  0.00    +0.000 C 
ATOM     21  N   UNL     1      -4.758  13.666  23.306  0.00  0.00    +0.000 NA
ATOM     22  C   UNL     1      -5.621  12.837  24.146  0.00  0.00    +0.000 C 
ATOM     23  C   UNL     1      -4.452  12.957  22.060  0.00  0.00    +0.000 C 
ATOM     24  C   UNL     1      -3.344  13.634  21.244  0.00  0.00    +0.000 C 
ENDBRANCH   6  18
BRANCH   7  25
ATOM     25  C   UNL     1      -0.968  11.940  19.635  0.00  0.00    +0.000 C 
BRANCH  25  26
ATOM     26  C   UNL     1      -0.798  12.789  18.370  0.00  0.00    +0.000 C 
BRANCH  26  27
ATOM     27  C   UNL     1      -0.106  14.110  18.708  0.00  0.00    +0.000 C 
BRANCH  27  28
ATOM     28  O   UNL     1      -1.058  15.097  19.086  0.00  0.00    +0.000 OA
ATOM     29  H   UNL     1      -1.179  15.039  20.049  0.00  0.00    +0.000 HD
ENDBRANCH  27  28
ENDBRANCH  26  27
ENDBRANCH  25  26
ENDBRANCH   7  25
TORSDOF 7
ENDMDL
MODEL 7
REMARK VINA RESULT:      -6.5      0.977      1.426
REMARK  Name = 
REMARK  9 active torsions:
REMARK  status: ('A' for Active; 'I' for Inactive)
REMARK    1  A    between atoms: C_1  and  C_2
REMARK    2  A    between atoms: C_5  and  C_6
REMARK    3  A    between atoms: C_11  and  N_12
REMARK    4  A    between atoms: N_15  and  C_16
REMARK    5  A    between atoms: C_19  and  C_20
REMARK    6  A    between atoms: C_20  and  C_21
REMARK    7  A    between atoms: C_21  and  C_22
REMARK    8  A    between atoms: C_22  and  O_23
REMARK    9  A    between atoms: C_26  and  O_27
REMARK                            x       y       z     vdW  Elec       q    Type
REMARK                         _______ _______ _______ _____ _____    ______ ____
ROOT
ATOM      1  C   UNL     1      -0.128   9.250  21.468  0.00  0.00    +0.000 C 
ATOM      2  O   UNL     1      -0.800   8.438  22.093  0.00  0.00    +0.000 OA
ATOM      3  N   UNL     1      -0.199  10.629  21.685  0.00  0.00    +0.000 N 
ATOM      4  C   UNL     1      -0.892  11.093  22.866  0.00  0.00    +0.000 C 
ATOM      5  C   UNL     1      -2.147  11.878  22.506  0.00  0.00    +0.000 C 
ATOM      6  C   UNL     1      -1.915  12.980  21.447  0.00  0.00    +0.000 C 
ATOM      7  C   UNL     1      -1.069  12.451  20.224  0.00  0.00    +0.000 C 
ATOM      8  C   UNL     1       0.171  11.706  20.757  0.00  0.00    +0.000 C 
ENDROOT
BRANCH   1  13
ATOM      9  C   UNL     1       3.584   7.095  17.562  0.00  0.00    +0.000 C 
ATOM     10  C   UNL     1       2.609   7.626  18.571  0.00  0.00    +0.000 A 
ATOM     11  C   UNL     1       1.900   8.796  18.288  0.00  0.00    +0.000 A 
ATOM     12  C   UNL     1       1.052   9.353  19.245  0.00  0.00    +0.000 A 
ATOM     13  C   UNL     1       0.822   8.697  20.457  0.00  0.00    +0.000 A 
ATOM     14  C   UNL     1       1.551   7.537  20.760  0.00  0.00    +0.000 A 
ATOM     15  C   UNL     1       2.445   7.024  19.824  0.00  0.00    +0.000 A 
BRANCH  15  16
ATOM     16  O   UNL     1       3.194   5.922  20.119  0.00  0.00    +0.000 OA
ATOM     17  H   UNL     1       2.621   5.137  20.118  0.00  0.00    +0.000 HD
ENDBRANCH  15  16
ENDBRANCH   1  13
BRANCH   6  18
ATOM     18  N   UNL     1      -3.075  13.849  21.103  0.00  0.00    +0.000 NA
ATOM     19  C   UNL     1      -3.409  14.849  22.145  0.00  0.00    +0.000 C 
ATOM     20  C   UNL     1      -4.375  14.383  23.273  0.00  0.00    +0.000 C 
ATOM     21  N   UNL     1      -5.552  13.611  22.836  0.00  0.00    +0.000 NA
ATOM     22  C   UNL     1      -6.166  12.910  23.963  0.00  0.00    +0.000 C 
ATOM     23  C   UNL     1      -5.236  12.655  21.771  0.00  0.00    +0.000 C 
ATOM     24  C   UNL     1      -4.352  13.257  20.672  0.00  0.00    +0.000 C 
ENDBRANCH   6  18
BRANCH   7  25
ATOM     25  C   UNL     1      -1.853  11.598  19.210  0.00  0.00    +0.000 C 
BRANCH  25  26
ATOM     26  C   UNL     1      -1.721  11.944  17.722  0.00  0.00    +0.000 C 
BRANCH  26  27
ATOM     27  C   UNL     1      -2.665  11.076  16.889  0.00  0.00    +0.000 C 
BRANCH  27  28
ATOM     28  O   UNL     1      -2.912  11.672  15.622  0.00  0.00    +0.000 OA
ATOM     29  H   UNL     1      -2.294  11.278  14.983  0.00  0.00    +0.000 HD
ENDBRANCH  27  28
ENDBRANCH  26  27
ENDBRANCH  25  26
ENDBRANCH   7  25
TORSDOF 7
ENDMDL
MODEL 8
REMARK VINA RESULT:      -6.4      0.953      1.330
REMARK  Name = 
REMARK  9 active torsions:
REMARK  status: ('A' for Active; 'I' for Inactive)
REMARK    1  A    between atoms: C_1  and  C_2
REMARK    2  A    between atoms: C_5  and  C_6
REMARK    3  A    between atoms: C_11  and  N_12
REMARK    4  A    between atoms: N_15  and  C_16
REMARK    5  A    between atoms: C_19  and  C_20
REMARK    6  A    between atoms: C_20  and  C_21
REMARK    7  A    between atoms: C_21  and  C_22
REMARK    8  A    between atoms: C_22  and  O_23
REMARK    9  A    between atoms: C_26  and  O_27
REMARK                            x       y       z     vdW  Elec       q    Type
REMARK                         _______ _______ _______ _____ _____    ______ ____
ROOT
ATOM      1  C   UNL     1      -0.221   9.287  21.672  0.00  0.00    +0.000 C 
ATOM      2  O   UNL     1      -0.887   8.433  22.246  0.00  0.00    +0.000 OA
ATOM      3  N   UNL     1      -0.293  10.648  21.982  0.00  0.00    +0.000 N 
ATOM      4  C   UNL     1      -0.979  11.030  23.196  0.00  0.00    +0.000 C 
ATOM      5  C   UNL     1      -2.238  11.835  22.898  0.00  0.00    +0.000 C 
ATOM      6  C   UNL     1      -2.015  13.006  21.915  0.00  0.00    +0.000 C 
ATOM      7  C   UNL     1      -1.176  12.562  20.653  0.00  0.00    +0.000 C 
ATOM      8  C   UNL     1       0.069  11.786  21.127  0.00  0.00    +0.000 C 
ENDROOT
BRANCH   1  13
ATOM      9  C   UNL     1       3.427   7.421  17.562  0.00  0.00    +0.000 C 
ATOM     10  C   UNL     1       2.500   7.929  18.627  0.00  0.00    +0.000 A 
ATOM     11  C   UNL     1       2.324   7.183  19.795  0.00  0.00    +0.000 A 
ATOM     12  C   UNL     1       1.405   7.593  20.760  0.00  0.00    +0.000 A 
ATOM     13  C   UNL     1       0.723   8.805  20.620  0.00  0.00    +0.000 A 
ATOM     14  C   UNL     1       0.873   9.546  19.438  0.00  0.00    +0.000 A 
ATOM     15  C   UNL     1       1.744   9.094  18.450  0.00  0.00    +0.000 A 
BRANCH  15  16
ATOM     16  O   UNL     1       1.869   9.779  17.276  0.00  0.00    +0.000 OA
ATOM     17  H   UNL     1       2.690   9.507  16.834  0.00  0.00    +0.000 HD
ENDBRANCH  15  16
ENDBRANCH   1  13
BRANCH   6  18
ATOM     18  N   UNL     1      -3.179  13.893  21.637  0.00  0.00    +0.000 NA
ATOM     19  C   UNL     1      -2.818  15.318  21.443  0.00  0.00    +0.000 C 
ATOM     20  C   UNL     1      -2.735  16.196  22.726  0.00  0.00    +0.000 C 
ATOM     21  N   UNL     1      -3.828  16.021  23.699  0.00  0.00    +0.000 NA
ATOM     22  C   UNL     1      -3.466  16.582  25.000  0.00  0.00    +0.000 C 
ATOM     23  C   UNL     1      -4.222  14.617  23.858  0.00  0.00    +0.000 C 
ATOM     24  C   UNL     1      -4.358  13.881  22.520  0.00  0.00    +0.000 C 
ENDBRANCH   6  18
BRANCH   7  25
ATOM     25  C   UNL     1      -1.965  11.778  19.589  0.00  0.00    +0.000 C 
BRANCH  25  26
ATOM     26  C   UNL     1      -1.622  12.018  18.114  0.00  0.00    +0.000 C 
BRANCH  26  27
ATOM     27  C   UNL     1      -2.678  11.379  17.212  0.00  0.00    +0.000 C 
BRANCH  27  28
ATOM     28  O   UNL     1      -2.065  10.628  16.171  0.00  0.00    +0.000 OA
ATOM     29  H   UNL     1      -2.727  10.006  15.824  0.00  0.00    +0.000 HD
ENDBRANCH  27  28
ENDBRANCH  26  27
ENDBRANCH  25  26
ENDBRANCH   7  25
TORSDOF 7
ENDMDL
MODEL 9
REMARK VINA RESULT:      -6.4      1.656      1.998
REMARK  Name = 
REMARK  9 active torsions:
REMARK  status: ('A' for Active; 'I' for Inactive)
REMARK    1  A    between atoms: C_1  and  C_2
REMARK    2  A    between atoms: C_5  and  C_6
REMARK    3  A    between atoms: C_11  and  N_12
REMARK    4  A    between atoms: N_15  and  C_16
REMARK    5  A    between atoms: C_19  and  C_20
REMARK    6  A    between atoms: C_20  and  C_21
REMARK    7  A    between atoms: C_21  and  C_22
REMARK    8  A    between atoms: C_22  and  O_23
REMARK    9  A    between atoms: C_26  and  O_27
REMARK                            x       y       z     vdW  Elec       q    Type
REMARK                         _______ _______ _______ _____ _____    ______ ____
ROOT
ATOM      1  C   UNL     1       0.006   8.832  21.464  0.00  0.00    +0.000 C 
ATOM      2  O   UNL     1      -0.873   8.030  21.760  0.00  0.00    +0.000 OA
ATOM      3  N   UNL     1       0.142  10.078  22.081  0.00  0.00    +0.000 N 
ATOM      4  C   UNL     1      -0.614  10.321  23.289  0.00  0.00    +0.000 C 
ATOM      5  C   UNL     1      -1.657  11.413  23.086  0.00  0.00    +0.000 C 
ATOM      6  C   UNL     1      -1.100  12.698  22.432  0.00  0.00    +0.000 C 
ATOM      7  C   UNL     1      -0.200  12.375  21.176  0.00  0.00    +0.000 C 
ATOM      8  C   UNL     1       0.812  11.274  21.555  0.00  0.00    +0.000 C 
ENDROOT
BRANCH   1  13
ATOM      9  C   UNL     1       3.751   7.181  17.349  0.00  0.00    +0.000 C 
ATOM     10  C   UNL     1       2.798   7.633  18.417  0.00  0.00    +0.000 A 
ATOM     11  C   UNL     1       2.599   6.830  19.542  0.00  0.00    +0.000 A 
ATOM     12  C   UNL     1       1.657   7.189  20.505  0.00  0.00    +0.000 A 
ATOM     13  C   UNL     1       0.975   8.405  20.411  0.00  0.00    +0.000 A 
ATOM     14  C   UNL     1       1.148   9.204  19.271  0.00  0.00    +0.000 A 
ATOM     15  C   UNL     1       2.042   8.803  18.281  0.00  0.00    +0.000 A 
BRANCH  15  16
ATOM     16  O   UNL     1       2.191   9.546  17.145  0.00  0.00    +0.000 OA
ATOM     17  H   UNL     1       2.525  10.428  17.382  0.00  0.00    +0.000 HD
ENDBRANCH  15  16
ENDBRANCH   1  13
BRANCH   6  18
ATOM     18  N   UNL     1      -2.038  13.844  22.276  0.00  0.00    +0.000 NA
ATOM     19  C   UNL     1      -1.368  15.164  22.194  0.00  0.00    +0.000 C 
ATOM     20  C   UNL     1      -1.068  15.878  23.545  0.00  0.00    +0.000 C 
ATOM     21  N   UNL     1      -2.156  15.860  24.539  0.00  0.00    +0.000 NA
ATOM     22  C   UNL     1      -1.656  16.202  25.869  0.00  0.00    +0.000 C 
ATOM     23  C   UNL     1      -2.855  14.572  24.588  0.00  0.00    +0.000 C 
ATOM     24  C   UNL     1      -3.175  14.013  23.197  0.00  0.00    +0.000 C 
ENDBRANCH   6  18
BRANCH   7  25
ATOM     25  C   UNL     1      -0.974  12.019  19.893  0.00  0.00    +0.000 C 
BRANCH  25  26
ATOM     26  C   UNL     1      -0.817  12.940  18.678  0.00  0.00    +0.000 C 
BRANCH  26  27
ATOM     27  C   UNL     1       0.632  13.411  18.553  0.00  0.00    +0.000 C 
BRANCH  27  28
ATOM     28  O   UNL     1       1.435  12.413  17.934  0.00  0.00    +0.000 OA
ATOM     29  H   UNL     1       2.000  12.019  18.622  0.00  0.00    +0.000 HD
ENDBRANCH  27  28
ENDBRANCH  26  27
ENDBRANCH  25  26
ENDBRANCH   7  25
TORSDOF 7
ENDMDL
