MODEL 1
REMARK VINA RESULT:      -8.9      0.000      0.000
REMARK  Name = 
REMARK  4 active torsions:
REMARK  status: ('A' for Active; 'I' for Inactive)
REMARK    1  A    between atoms: C_3  and  N_4
REMARK    2  A    between atoms: C_12  and  N_13
REMARK    3  A    between atoms: N_13  and  C_14
REMARK    4  A    between atoms: N_28  and  C_29
REMARK                            x       y       z     vdW  Elec       q    Type
REMARK                         _______ _______ _______ _____ _____    ______ ____
ROOT
ATOM      1  C   UNL     1      -0.513  11.274  18.656  0.00  0.00    +0.000 A 
ATOM      2  N   UNL     1      -0.739  12.165  19.657  0.00  0.00    +0.000 NA
ATOM      3  C   UNL     1      -1.973  12.589  19.978  0.00  0.00    +0.000 A 
ATOM      4  N   UNL     1      -2.089  13.459  21.020  0.00  0.00    +0.000 N 
ATOM      5  C   UNL     1      -0.920  13.976  21.727  0.00  0.00    +0.000 C 
ATOM      6  C   UNL     1      -1.098  13.761  23.236  0.00  0.00    +0.000 C 
ATOM      7  O   UNL     1      -2.344  14.305  23.707  0.00  0.00    +0.000 OA
ATOM      8  C   UNL     1      -3.450  13.685  23.028  0.00  0.00    +0.000 C 
ATOM      9  C   UNL     1      -3.383  13.913  21.510  0.00  0.00    +0.000 C 
ATOM     10  N   UNL     1      -3.081  12.191  19.342  0.00  0.00    +0.000 NA
ATOM     11  C   UNL     1      -2.851  11.335  18.341  0.00  0.00    +0.000 A 
ATOM     12  C   UNL     1      -1.631  10.828  17.935  0.00  0.00    +0.000 A 
ATOM     13  N   UNL     1      -1.796   9.962  16.872  0.00  0.00    +0.000 NA
ATOM     14  C   UNL     1      -3.093   9.970  16.629  0.00  0.00    +0.000 A 
ATOM     15  N   UNL     1      -3.778  10.776  17.505  0.00  0.00    +0.000 N 
ENDROOT
BRANCH  15  16
ATOM     16  C   UNL     1      -5.208  10.991  17.531  0.00  0.00    +0.000 C 
ATOM     17  C   UNL     1      -5.843  10.816  18.911  0.00  0.00    +0.000 C 
ATOM     18  C   UNL     1      -7.200  11.497  18.787  0.00  0.00    +0.000 C 
ATOM     19  C   UNL     1      -7.032  12.594  17.739  0.00  0.00    +0.000 C 
ATOM     20  C   UNL     1      -5.658  12.392  17.102  0.00  0.00    +0.000 C 
ENDBRANCH  15  16
BRANCH   1  21
ATOM     21  N   UNL     1       0.790  10.807  18.421  0.00  0.00    +0.000 N 
ATOM     22  H   UNL     1       1.320  11.402  17.795  0.00  0.00    +0.000 HD
BRANCH  21  28
ATOM     23  C   UNL     1       2.006   8.801  17.823  0.00  0.00    +0.000 A 
ATOM     24  C   UNL     1       2.469   7.523  18.154  0.00  0.00    +0.000 A 
ATOM     25  C   UNL     1       2.289   7.007  19.437  0.00  0.00    +0.000 A 
ATOM     26  N   UNL     1       1.673   7.743  20.378  0.00  0.00    +0.000 NA
ATOM     27  C   UNL     1       1.206   8.973  20.025  0.00  0.00    +0.000 A 
ATOM     28  C   UNL     1       1.341   9.569  18.771  0.00  0.00    +0.000 A 
BRANCH  25  29
ATOM     29  N   UNL     1       2.818   5.788  19.780  0.00  0.00    +0.000 N 
ATOM     30  C   UNL     1       4.210   5.464  19.463  0.00  0.00    +0.000 C 
ATOM     31  C   UNL     1       4.236   3.991  19.007  0.00  0.00    +0.000 C 
ATOM     32  O   UNL     1       3.686   3.110  20.009  0.00  0.00    +0.000 OA
ATOM     33  C   UNL     1       2.330   3.478  20.325  0.00  0.00    +0.000 C 
ATOM     34  C   UNL     1       2.239   4.933  20.815  0.00  0.00    +0.000 C 
ENDBRANCH  25  29
ENDBRANCH  21  28
ENDBRANCH   1  21
TORSDOF 4
ENDMDL
MODEL 2
REMARK VINA RESULT:      -8.5      2.339      4.762
REMARK  Name = 
REMARK  4 active torsions:
REMARK  status: ('A' for Active; 'I' for Inactive)
REMARK    1  A    between atoms: C_3  and  N_4
REMARK    2  A    between atoms: C_12  and  N_13
REMARK    3  A    between atoms: N_13  and  C_14
REMARK    4  A    between atoms: N_28  and  C_29
REMARK                            x       y       z     vdW  Elec       q    Type
REMARK                         _______ _______ _______ _____ _____    ______ ____
ROOT
ATOM      1  C   UNL     1       0.543  10.190  18.987  0.00  0.00    +0.000 A 
ATOM      2  N   UNL     1      -0.507   9.988  18.148  0.00  0.00    +0.000 NA
ATOM      3  C   UNL     1      -1.719  10.526  18.368  0.00  0.00    +0.000 A 
ATOM      4  N   UNL     1      -2.692  10.285  17.446  0.00  0.00    +0.000 N 
ATOM      5  C   UNL     1      -2.463   9.418  16.291  0.00  0.00    +0.000 C 
ATOM      6  C   UNL     1      -2.876  10.155  15.010  0.00  0.00    +0.000 C 
ATOM      7  O   UNL     1      -4.221  10.658  15.096  0.00  0.00    +0.000 OA
ATOM      8  C   UNL     1      -4.345  11.571  16.201  0.00  0.00    +0.000 C 
ATOM      9  C   UNL     1      -4.014  10.889  17.537  0.00  0.00    +0.000 C 
ATOM     10  N   UNL     1      -2.007  11.290  19.428  0.00  0.00    +0.000 NA
ATOM     11  C   UNL     1      -0.979  11.464  20.265  0.00  0.00    +0.000 A 
ATOM     12  C   UNL     1       0.304  10.969  20.129  0.00  0.00    +0.000 A 
ATOM     13  N   UNL     1       1.092  11.371  21.190  0.00  0.00    +0.000 NA
ATOM     14  C   UNL     1       0.285  12.075  21.961  0.00  0.00    +0.000 A 
ATOM     15  N   UNL     1      -0.979  12.174  21.434  0.00  0.00    +0.000 N 
ENDROOT
BRANCH  15  16
ATOM     16  C   UNL     1      -2.094  12.891  22.011  0.00  0.00    +0.000 C 
ATOM     17  C   UNL     1      -2.803  12.143  23.142  0.00  0.00    +0.000 C 
ATOM     18  C   UNL     1      -3.607  13.222  23.856  0.00  0.00    +0.000 C 
ATOM     19  C   UNL     1      -2.842  14.527  23.655  0.00  0.00    +0.000 C 
ATOM     20  C   UNL     1      -1.735  14.241  22.642  0.00  0.00    +0.000 C 
ENDBRANCH  15  16
BRANCH   1  21
ATOM     21  N   UNL     1       1.805   9.669  18.661  0.00  0.00    +0.000 N 
ATOM     22  H   UNL     1       2.433  10.362  18.272  0.00  0.00    +0.000 HD
BRANCH  21  28
ATOM     23  C   UNL     1       1.945   7.485  19.695  0.00  0.00    +0.000 A 
ATOM     24  C   UNL     1       2.431   6.174  19.692  0.00  0.00    +0.000 A 
ATOM     25  C   UNL     1       3.162   5.685  18.609  0.00  0.00    +0.000 A 
ATOM     26  N   UNL     1       3.400   6.474  17.547  0.00  0.00    +0.000 NA
ATOM     27  C   UNL     1       2.941   7.755  17.585  0.00  0.00    +0.000 A 
ATOM     28  C   UNL     1       2.203   8.327  18.622  0.00  0.00    +0.000 A 
BRANCH  25  29
ATOM     29  N   UNL     1       3.564   4.374  18.573  0.00  0.00    +0.000 N 
ATOM     30  C   UNL     1       3.182   3.507  17.457  0.00  0.00    +0.000 C 
ATOM     31  C   UNL     1       2.844   2.126  18.055  0.00  0.00    +0.000 C 
ATOM     32  O   UNL     1       3.948   1.585  18.811  0.00  0.00    +0.000 OA
ATOM     33  C   UNL     1       4.324   2.477  19.878  0.00  0.00    +0.000 C 
ATOM     34  C   UNL     1       4.701   3.869  19.343  0.00  0.00    +0.000 C 
ENDBRANCH  25  29
ENDBRANCH  21  28
ENDBRANCH   1  21
TORSDOF 4
ENDMDL
MODEL 3
REMARK VINA RESULT:      -8.5      1.078      1.355
REMARK  Name = 
REMARK  4 active torsions:
REMARK  status: ('A' for Active; 'I' for Inactive)
REMARK    1  A    between atoms: C_3  and  N_4
REMARK    2  A    between atoms: C_12  and  N_13
REMARK    3  A    between atoms: N_13  and  C_14
REMARK    4  A    between atoms: N_28  and  C_29
REMARK                            x       y       z     vdW  Elec       q    Type
REMARK                         _______ _______ _______ _____ _____    ______ ____
ROOT
ATOM      1  C   UNL     1       0.098  11.342  18.425  0.00  0.00    +0.000 A 
ATOM      2  N   UNL     1       0.218  12.470  19.172  0.00  0.00    +0.000 NA
ATOM      3  C   UNL     1      -0.848  13.153  19.623  0.00  0.00    +0.000 A 
ATOM      4  N   UNL     1      -0.613  14.253  20.392  0.00  0.00    +0.000 N 
ATOM      5  C   UNL     1       0.741  14.728  20.665  0.00  0.00    +0.000 C 
ATOM      6  C   UNL     1       0.923  14.912  22.178  0.00  0.00    +0.000 C 
ATOM      7  O   UNL     1      -0.105  15.747  22.739  0.00  0.00    +0.000 OA
ATOM      8  C   UNL     1      -1.402  15.170  22.506  0.00  0.00    +0.000 C 
ATOM      9  C   UNL     1      -1.692  15.015  21.006  0.00  0.00    +0.000 C 
ATOM     10  N   UNL     1      -2.114  12.799  19.371  0.00  0.00    +0.000 NA
ATOM     11  C   UNL     1      -2.227  11.703  18.613  0.00  0.00    +0.000 A 
ATOM     12  C   UNL     1      -1.204  10.924  18.108  0.00  0.00    +0.000 A 
ATOM     13  N   UNL     1      -1.714   9.867  17.380  0.00  0.00    +0.000 NA
ATOM     14  C   UNL     1      -3.024  10.027  17.427  0.00  0.00    +0.000 A 
ATOM     15  N   UNL     1      -3.384  11.118  18.178  0.00  0.00    +0.000 N 
ENDROOT
BRANCH  15  16
ATOM     16  C   UNL     1      -4.734  11.561  18.450  0.00  0.00    +0.000 C 
ATOM     17  C   UNL     1      -5.418  12.252  17.269  0.00  0.00    +0.000 C 
ATOM     18  C   UNL     1      -6.898  12.224  17.626  0.00  0.00    +0.000 C 
ATOM     19  C   UNL     1      -7.102  10.990  18.501  0.00  0.00    +0.000 C 
ATOM     20  C   UNL     1      -5.714  10.447  18.832  0.00  0.00    +0.000 C 
ENDBRANCH  15  16
BRANCH   1  21
ATOM     21  N   UNL     1       1.248  10.628  18.052  0.00  0.00    +0.000 N 
ATOM     22  H   UNL     1       1.716  11.021  17.244  0.00  0.00    +0.000 HD
BRANCH  21  28
ATOM     23  C   UNL     1       2.358   8.511  17.674  0.00  0.00    +0.000 A 
ATOM     24  C   UNL     1       2.702   7.229  18.116  0.00  0.00    +0.000 A 
ATOM     25  C   UNL     1       2.390   6.811  19.410  0.00  0.00    +0.000 A 
ATOM     26  N   UNL     1       1.759   7.646  20.253  0.00  0.00    +0.000 NA
ATOM     27  C   UNL     1       1.409   8.879  19.791  0.00  0.00    +0.000 A 
ATOM     28  C   UNL     1       1.681   9.381  18.519  0.00  0.00    +0.000 A 
BRANCH  25  29
ATOM     29  N   UNL     1       2.802   5.584  19.866  0.00  0.00    +0.000 N 
ATOM     30  C   UNL     1       4.160   5.107  19.595  0.00  0.00    +0.000 C 
ATOM     31  C   UNL     1       4.051   3.602  19.272  0.00  0.00    +0.000 C 
ATOM     32  O   UNL     1       3.419   2.869  20.343  0.00  0.00    +0.000 OA
ATOM     33  C   UNL     1       2.101   3.387  20.610  0.00  0.00    +0.000 C 
ATOM     34  C   UNL     1       2.144   4.882  20.967  0.00  0.00    +0.000 C 
ENDBRANCH  25  29
ENDBRANCH  21  28
ENDBRANCH   1  21
TORSDOF 4
ENDMDL
MODEL 4
REMARK VINA RESULT:      -8.4      2.203      4.501
REMARK  Name = 
REMARK  4 active torsions:
REMARK  status: ('A' for Active; 'I' for Inactive)
REMARK    1  A    between atoms: C_3  and  N_4
REMARK    2  A    between atoms: C_12  and  N_13
REMARK    3  A    between atoms: N_13  and  C_14
REMARK    4  A    between atoms: N_28  and  C_29
REMARK                            x       y       z     vdW  Elec       q    Type
REMARK                         _______ _______ _______ _____ _____    ______ ____
ROOT
ATOM      1  C   UNL     1       0.151  10.485  19.443  0.00  0.00    +0.000 A 
ATOM      2  N   UNL     1      -0.812  10.216  18.522  0.00  0.00    +0.000 NA
ATOM      3  C   UNL     1      -2.041  10.755  18.588  0.00  0.00    +0.000 A 
ATOM      4  N   UNL     1      -2.920  10.443  17.594  0.00  0.00    +0.000 N 
ATOM      5  C   UNL     1      -2.577   9.503  16.529  0.00  0.00    +0.000 C 
ATOM      6  C   UNL     1      -2.866  10.148  15.166  0.00  0.00    +0.000 C 
ATOM      7  O   UNL     1      -4.215  10.642  15.088  0.00  0.00    +0.000 OA
ATOM      8  C   UNL     1      -4.449  11.625  16.111  0.00  0.00    +0.000 C 
ATOM      9  C   UNL     1      -4.247  11.038  17.517  0.00  0.00    +0.000 C 
ATOM     10  N   UNL     1      -2.434  11.585  19.561  0.00  0.00    +0.000 NA
ATOM     11  C   UNL     1      -1.492  11.826  20.478  0.00  0.00    +0.000 A 
ATOM     12  C   UNL     1      -0.200  11.336  20.501  0.00  0.00    +0.000 A 
ATOM     13  N   UNL     1       0.480  11.817  21.604  0.00  0.00    +0.000 NA
ATOM     14  C   UNL     1      -0.401  12.563  22.244  0.00  0.00    +0.000 A 
ATOM     15  N   UNL     1      -1.608  12.613  21.591  0.00  0.00    +0.000 N 
ENDROOT
BRANCH  15  16
ATOM     16  C   UNL     1      -2.776  13.356  22.008  0.00  0.00    +0.000 C 
ATOM     17  C   UNL     1      -3.556  12.708  23.154  0.00  0.00    +0.000 C 
ATOM     18  C   UNL     1      -4.431  13.832  23.693  0.00  0.00    +0.000 C 
ATOM     19  C   UNL     1      -3.676  15.129  23.417  0.00  0.00    +0.000 C 
ATOM     20  C   UNL     1      -2.491  14.771  22.523  0.00  0.00    +0.000 C 
ENDBRANCH  15  16
BRANCH   1  21
ATOM     21  N   UNL     1       1.441   9.956  19.276  0.00  0.00    +0.000 N 
ATOM     22  H   UNL     1       2.122  10.651  18.994  0.00  0.00    +0.000 HD
BRANCH  21  28
ATOM     23  C   UNL     1       2.282   8.029  18.077  0.00  0.00    +0.000 A 
ATOM     24  C   UNL     1       2.574   6.662  18.038  0.00  0.00    +0.000 A 
ATOM     25  C   UNL     1       2.435   5.867  19.175  0.00  0.00    +0.000 A 
ATOM     26  N   UNL     1       2.023   6.415  20.332  0.00  0.00    +0.000 NA
ATOM     27  C   UNL     1       1.718   7.742  20.340  0.00  0.00    +0.000 A 
ATOM     28  C   UNL     1       1.828   8.611  19.254  0.00  0.00    +0.000 A 
BRANCH  25  29
ATOM     29  N   UNL     1       2.802   4.546  19.153  0.00  0.00    +0.000 N 
ATOM     30  C   UNL     1       4.098   4.141  18.605  0.00  0.00    +0.000 C 
ATOM     31  C   UNL     1       3.865   2.839  17.812  0.00  0.00    +0.000 C 
ATOM     32  O   UNL     1       3.276   1.809  18.635  0.00  0.00    +0.000 OA
ATOM     33  C   UNL     1       2.022   2.251  19.189  0.00  0.00    +0.000 C 
ATOM     34  C   UNL     1       2.192   3.536  20.017  0.00  0.00    +0.000 C 
ENDBRANCH  25  29
ENDBRANCH  21  28
ENDBRANCH   1  21
TORSDOF 4
ENDMDL
MODEL 5
REMARK VINA RESULT:      -8.2      1.860      4.613
REMARK  Name = 
REMARK  4 active torsions:
REMARK  status: ('A' for Active; 'I' for Inactive)
REMARK    1  A    between atoms: C_3  and  N_4
REMARK    2  A    between atoms: C_12  and  N_13
REMARK    3  A    between atoms: N_13  and  C_14
REMARK    4  A    between atoms: N_28  and  C_29
REMARK                            x       y       z     vdW  Elec       q    Type
REMARK                         _______ _______ _______ _____ _____    ______ ____
ROOT
ATOM      1  C   UNL     1      -0.232  11.457  19.078  0.00  0.00    +0.000 A 
ATOM      2  N   UNL     1      -1.536  11.271  18.746  0.00  0.00    +0.000 NA
ATOM      3  C   UNL     1      -2.533  11.964  19.323  0.00  0.00    +0.000 A 
ATOM      4  N   UNL     1      -3.802  11.720  18.892  0.00  0.00    +0.000 N 
ATOM      5  C   UNL     1      -4.094  10.696  17.891  0.00  0.00    +0.000 C 
ATOM      6  C   UNL     1      -4.937  11.308  16.764  0.00  0.00    +0.000 C 
ATOM      7  O   UNL     1      -6.110  11.965  17.276  0.00  0.00    +0.000 OA
ATOM      8  C   UNL     1      -5.739  13.017  18.184  0.00  0.00    +0.000 C 
ATOM      9  C   UNL     1      -4.946  12.475  19.384  0.00  0.00    +0.000 C 
ATOM     10  N   UNL     1      -2.339  12.882  20.277  0.00  0.00    +0.000 NA
ATOM     11  C   UNL     1      -1.057  13.044  20.619  0.00  0.00    +0.000 A 
ATOM     12  C   UNL     1       0.041  12.395  20.085  0.00  0.00    +0.000 A 
ATOM     13  N   UNL     1       1.203  12.836  20.687  0.00  0.00    +0.000 NA
ATOM     14  C   UNL     1       0.804  13.717  21.585  0.00  0.00    +0.000 A 
ATOM     15  N   UNL     1      -0.558  13.889  21.571  0.00  0.00    +0.000 N 
ENDROOT
BRANCH  15  16
ATOM     16  C   UNL     1      -1.315  14.794  22.408  0.00  0.00    +0.000 C 
ATOM     17  C   UNL     1      -1.394  14.371  23.876  0.00  0.00    +0.000 C 
ATOM     18  C   UNL     1      -1.828  15.636  24.605  0.00  0.00    +0.000 C 
ATOM     19  C   UNL     1      -1.297  16.806  23.781  0.00  0.00    +0.000 C 
ATOM     20  C   UNL     1      -0.766  16.223  22.474  0.00  0.00    +0.000 C 
ENDBRANCH  15  16
BRANCH   1  21
ATOM     21  N   UNL     1       0.770  10.762  18.382  0.00  0.00    +0.000 N 
ATOM     22  H   UNL     1       0.957  11.146  17.464  0.00  0.00    +0.000 HD
BRANCH  21  28
ATOM     23  C   UNL     1       2.021   8.791  17.745  0.00  0.00    +0.000 A 
ATOM     24  C   UNL     1       2.525   7.524  18.058  0.00  0.00    +0.000 A 
ATOM     25  C   UNL     1       2.391   6.998  19.343  0.00  0.00    +0.000 A 
ATOM     26  N   UNL     1       1.779   7.714  20.302  0.00  0.00    +0.000 NA
ATOM     27  C   UNL     1       1.273   8.933  19.967  0.00  0.00    +0.000 A 
ATOM     28  C   UNL     1       1.361   9.537  18.713  0.00  0.00    +0.000 A 
BRANCH  25  29
ATOM     29  N   UNL     1       2.959   5.792  19.666  0.00  0.00    +0.000 N 
ATOM     30  C   UNL     1       4.362   5.520  19.351  0.00  0.00    +0.000 C 
ATOM     31  C   UNL     1       4.441   4.057  18.869  0.00  0.00    +0.000 C 
ATOM     32  O   UNL     1       3.917   3.140  19.853  0.00  0.00    +0.000 OA
ATOM     33  C   UNL     1       2.547   3.457  20.169  0.00  0.00    +0.000 C 
ATOM     34  C   UNL     1       2.405   4.899  20.684  0.00  0.00    +0.000 C 
ENDBRANCH  25  29
ENDBRANCH  21  28
ENDBRANCH   1  21
TORSDOF 4
ENDMDL
MODEL 6
REMARK VINA RESULT:      -8.0      3.157      5.430
REMARK  Name = 
REMARK  4 active torsions:
REMARK  status: ('A' for Active; 'I' for Inactive)
REMARK    1  A    between atoms: C_3  and  N_4
REMARK    2  A    between atoms: C_12  and  N_13
REMARK    3  A    between atoms: N_13  and  C_14
REMARK    4  A    between atoms: N_28  and  C_29
REMARK                            x       y       z     vdW  Elec       q    Type
REMARK                         _______ _______ _______ _____ _____    ______ ____
ROOT
ATOM      1  C   UNL     1       0.523  11.545  20.060  0.00  0.00    +0.000 A 
ATOM      2  N   UNL     1      -0.293  11.722  21.132  0.00  0.00    +0.000 NA
ATOM      3  C   UNL     1      -0.242  12.823  21.902  0.00  0.00    +0.000 A 
ATOM      4  N   UNL     1      -1.129  12.913  22.932  0.00  0.00    +0.000 N 
ATOM      5  C   UNL     1      -2.059  11.830  23.246  0.00  0.00    +0.000 C 
ATOM      6  C   UNL     1      -3.484  12.391  23.336  0.00  0.00    +0.000 C 
ATOM      7  O   UNL     1      -3.562  13.501  24.248  0.00  0.00    +0.000 OA
ATOM      8  C   UNL     1      -2.686  14.560  23.824  0.00  0.00    +0.000 C 
ATOM      9  C   UNL     1      -1.222  14.098  23.774  0.00  0.00    +0.000 C 
ATOM     10  N   UNL     1       0.616  13.830  21.697  0.00  0.00    +0.000 NA
ATOM     11  C   UNL     1       1.434  13.639  20.657  0.00  0.00    +0.000 A 
ATOM     12  C   UNL     1       1.460  12.556  19.799  0.00  0.00    +0.000 A 
ATOM     13  N   UNL     1       2.439  12.723  18.839  0.00  0.00    +0.000 NA
ATOM     14  C   UNL     1       3.007  13.877  19.135  0.00  0.00    +0.000 A 
ATOM     15  N   UNL     1       2.422  14.479  20.221  0.00  0.00    +0.000 N 
ENDROOT
BRANCH  15  16
ATOM     16  C   UNL     1       2.786  15.757  20.791  0.00  0.00    +0.000 C 
ATOM     17  C   UNL     1       3.780  15.666  21.951  0.00  0.00    +0.000 C 
ATOM     18  C   UNL     1       4.330  17.080  22.082  0.00  0.00    +0.000 C 
ATOM     19  C   UNL     1       4.256  17.697  20.688  0.00  0.00    +0.000 C 
ATOM     20  C   UNL     1       3.457  16.730  19.817  0.00  0.00    +0.000 C 
ENDBRANCH  15  16
BRANCH   1  21
ATOM     21  N   UNL     1       0.367  10.411  19.247  0.00  0.00    +0.000 N 
ATOM     22  H   UNL     1      -0.543  10.360  18.806  0.00  0.00    +0.000 HD
BRANCH  21  28
ATOM     23  C   UNL     1       1.860   9.013  17.953  0.00  0.00    +0.000 A 
ATOM     24  C   UNL     1       2.621   7.846  17.829  0.00  0.00    +0.000 A 
ATOM     25  C   UNL     1       2.753   6.961  18.898  0.00  0.00    +0.000 A 
ATOM     26  N   UNL     1       2.153   7.229  20.071  0.00  0.00    +0.000 NA
ATOM     27  C   UNL     1       1.395   8.357  20.160  0.00  0.00    +0.000 A 
ATOM     28  C   UNL     1       1.208   9.297  19.146  0.00  0.00    +0.000 A 
BRANCH  25  29
ATOM     29  N   UNL     1       3.566   5.861  18.798  0.00  0.00    +0.000 N 
ATOM     30  C   UNL     1       2.997   4.512  18.783  0.00  0.00    +0.000 C 
ATOM     31  C   UNL     1       3.928   3.620  19.630  0.00  0.00    +0.000 C 
ATOM     32  O   UNL     1       5.285   3.644  19.139  0.00  0.00    +0.000 OA
ATOM     33  C   UNL     1       5.803   4.989  19.132  0.00  0.00    +0.000 C 
ATOM     34  C   UNL     1       4.932   5.925  18.278  0.00  0.00    +0.000 C 
ENDBRANCH  25  29
ENDBRANCH  21  28
ENDBRANCH   1  21
TORSDOF 4
ENDMDL
MODEL 7
REMARK VINA RESULT:      -8.0      2.191      4.364
REMARK  Name = 
REMARK  4 active torsions:
REMARK  status: ('A' for Active; 'I' for Inactive)
REMARK    1  A    between atoms: C_3  and  N_4
REMARK    2  A    between atoms: C_12  and  N_13
REMARK    3  A    between atoms: N_13  and  C_14
REMARK    4  A    between atoms: N_28  and  C_29
REMARK                            x       y       z     vdW  Elec       q    Type
REMARK                         _______ _______ _______ _____ _____    ______ ____
ROOT
ATOM      1  C   UNL     1       0.196  10.600  19.521  0.00  0.00    +0.000 A 
ATOM      2  N   UNL     1      -0.779  10.301  18.622  0.00  0.00    +0.000 NA
ATOM      3  C   UNL     1      -2.003  10.853  18.676  0.00  0.00    +0.000 A 
ATOM      4  N   UNL     1      -2.894  10.506  17.705  0.00  0.00    +0.000 N 
ATOM      5  C   UNL     1      -2.570   9.518  16.678  0.00  0.00    +0.000 C 
ATOM      6  C   UNL     1      -2.867  10.106  15.292  0.00  0.00    +0.000 C 
ATOM      7  O   UNL     1      -4.213  10.608  15.205  0.00  0.00    +0.000 OA
ATOM      8  C   UNL     1      -4.428  11.636  16.188  0.00  0.00    +0.000 C 
ATOM      9  C   UNL     1      -4.216  11.109  17.615  0.00  0.00    +0.000 C 
ATOM     10  N   UNL     1      -2.379  11.728  19.616  0.00  0.00    +0.000 NA
ATOM     11  C   UNL     1      -1.426  11.999  20.513  0.00  0.00    +0.000 A 
ATOM     12  C   UNL     1      -0.138  11.499  20.545  0.00  0.00    +0.000 A 
ATOM     13  N   UNL     1       0.558  12.020  21.618  0.00  0.00    +0.000 NA
ATOM     14  C   UNL     1      -0.310  12.802  22.234  0.00  0.00    +0.000 A 
ATOM     15  N   UNL     1      -1.523  12.834  21.592  0.00  0.00    +0.000 N 
ENDROOT
BRANCH  15  16
ATOM     16  C   UNL     1      -2.681  13.605  21.988  0.00  0.00    +0.000 C 
ATOM     17  C   UNL     1      -3.229  14.521  20.892  0.00  0.00    +0.000 C 
ATOM     18  C   UNL     1      -4.635  14.869  21.366  0.00  0.00    +0.000 C 
ATOM     19  C   UNL     1      -5.107  13.686  22.206  0.00  0.00    +0.000 C 
ATOM     20  C   UNL     1      -3.899  12.772  22.404  0.00  0.00    +0.000 C 
ENDBRANCH  15  16
BRANCH   1  21
ATOM     21  N   UNL     1       1.479  10.053  19.364  0.00  0.00    +0.000 N 
ATOM     22  H   UNL     1       2.186  10.749  19.157  0.00  0.00    +0.000 HD
BRANCH  21  28
ATOM     23  C   UNL     1       2.235   8.174  18.040  0.00  0.00    +0.000 A 
ATOM     24  C   UNL     1       2.498   6.805  17.922  0.00  0.00    +0.000 A 
ATOM     25  C   UNL     1       2.385   5.957  19.023  0.00  0.00    +0.000 A 
ATOM     26  N   UNL     1       2.027   6.453  20.220  0.00  0.00    +0.000 NA
ATOM     27  C   UNL     1       1.750   7.784  20.305  0.00  0.00    +0.000 A 
ATOM     28  C   UNL     1       1.838   8.704  19.260  0.00  0.00    +0.000 A 
BRANCH  25  29
ATOM     29  N   UNL     1       2.724   4.631  18.921  0.00  0.00    +0.000 N 
ATOM     30  C   UNL     1       2.724   3.770  20.105  0.00  0.00    +0.000 C 
ATOM     31  C   UNL     1       3.953   2.845  19.989  0.00  0.00    +0.000 C 
ATOM     32  O   UNL     1       3.938   2.085  18.762  0.00  0.00    +0.000 OA
ATOM     33  C   UNL     1       3.900   2.960  17.618  0.00  0.00    +0.000 C 
ATOM     34  C   UNL     1       2.677   3.892  17.660  0.00  0.00    +0.000 C 
ENDBRANCH  25  29
ENDBRANCH  21  28
ENDBRANCH   1  21
TORSDOF 4
ENDMDL
MODEL 8
REMARK VINA RESULT:      -7.9      2.277      4.479
REMARK  Name = 
REMARK  4 active torsions:
REMARK  status: ('A' for Active; 'I' for Inactive)
REMARK    1  A    between atoms: C_3  and  N_4
REMARK    2  A    between atoms: C_12  and  N_13
REMARK    3  A    between atoms: N_13  and  C_14
REMARK    4  A    between atoms: N_28  and  C_29
REMARK                            x       y       z     vdW  Elec       q    Type
REMARK                         _______ _______ _______ _____ _____    ______ ____
ROOT
ATOM      1  C   UNL     1       0.205  10.431  19.466  0.00  0.00    +0.000 A 
ATOM      2  N   UNL     1      -0.753  10.179  18.535  0.00  0.00    +0.000 NA
ATOM      3  C   UNL     1      -1.989  10.701  18.614  0.00  0.00    +0.000 A 
ATOM      4  N   UNL     1      -2.862  10.409  17.610  0.00  0.00    +0.000 N 
ATOM      5  C   UNL     1      -2.506   9.506  16.517  0.00  0.00    +0.000 C 
ATOM      6  C   UNL     1      -2.800  10.187  15.174  0.00  0.00    +0.000 C 
ATOM      7  O   UNL     1      -4.155  10.668  15.108  0.00  0.00    +0.000 OA
ATOM      8  C   UNL     1      -4.402  11.616  16.160  0.00  0.00    +0.000 C 
ATOM      9  C   UNL     1      -4.195  10.990  17.548  0.00  0.00    +0.000 C 
ATOM     10  N   UNL     1      -2.393  11.497  19.611  0.00  0.00    +0.000 NA
ATOM     11  C   UNL     1      -1.456  11.721  20.538  0.00  0.00    +0.000 A 
ATOM     12  C   UNL     1      -0.158  11.246  20.549  0.00  0.00    +0.000 A 
ATOM     13  N   UNL     1       0.514  11.701  21.666  0.00  0.00    +0.000 NA
ATOM     14  C   UNL     1      -0.376  12.417  22.327  0.00  0.00    +0.000 A 
ATOM     15  N   UNL     1      -1.583  12.472  21.674  0.00  0.00    +0.000 N 
ENDROOT
BRANCH  15  16
ATOM     16  C   UNL     1      -2.761  13.188  22.111  0.00  0.00    +0.000 C 
ATOM     17  C   UNL     1      -3.859  13.296  21.051  0.00  0.00    +0.000 C 
ATOM     18  C   UNL     1      -5.105  13.671  21.842  0.00  0.00    +0.000 C 
ATOM     19  C   UNL     1      -4.919  13.080  23.236  0.00  0.00    +0.000 C 
ATOM     20  C   UNL     1      -3.482  12.571  23.314  0.00  0.00    +0.000 C 
ENDBRANCH  15  16
BRANCH   1  21
ATOM     21  N   UNL     1       1.501   9.923  19.286  0.00  0.00    +0.000 N 
ATOM     22  H   UNL     1       2.191  10.645  19.113  0.00  0.00    +0.000 HD
BRANCH  21  28
ATOM     23  C   UNL     1       1.762   7.683  20.165  0.00  0.00    +0.000 A 
ATOM     24  C   UNL     1       2.243   6.378  20.027  0.00  0.00    +0.000 A 
ATOM     25  C   UNL     1       2.843   5.958  18.839  0.00  0.00    +0.000 A 
ATOM     26  N   UNL     1       2.956   6.811  17.805  0.00  0.00    +0.000 NA
ATOM     27  C   UNL     1       2.504   8.085  17.973  0.00  0.00    +0.000 A 
ATOM     28  C   UNL     1       1.892   8.589  19.120  0.00  0.00    +0.000 A 
BRANCH  25  29
ATOM     29  N   UNL     1       3.239   4.655  18.679  0.00  0.00    +0.000 N 
ATOM     30  C   UNL     1       2.539   3.774  17.742  0.00  0.00    +0.000 C 
ATOM     31  C   UNL     1       2.435   2.391  18.417  0.00  0.00    +0.000 C 
ATOM     32  O   UNL     1       3.732   1.875  18.785  0.00  0.00    +0.000 OA
ATOM     33  C   UNL     1       4.409   2.782  19.676  0.00  0.00    +0.000 C 
ATOM     34  C   UNL     1       4.570   4.176  19.048  0.00  0.00    +0.000 C 
ENDBRANCH  25  29
ENDBRANCH  21  28
ENDBRANCH   1  21
TORSDOF 4
ENDMDL
MODEL 9
REMARK VINA RESULT:      -7.9      1.901      4.713
REMARK  Name = 
REMARK  4 active torsions:
REMARK  status: ('A' for Active; 'I' for Inactive)
REMARK    1  A    between atoms: C_3  and  N_4
REMARK    2  A    between atoms: C_12  and  N_13
REMARK    3  A    between atoms: N_13  and  C_14
REMARK    4  A    between atoms: N_28  and  C_29
REMARK                            x       y       z     vdW  Elec       q    Type
REMARK                         _______ _______ _______ _____ _____    ______ ____
ROOT
ATOM      1  C   UNL     1      -0.407  11.918  19.412  0.00  0.00    +0.000 A 
ATOM      2  N   UNL     1      -1.672  11.656  18.991  0.00  0.00    +0.000 NA
ATOM      3  C   UNL     1      -2.754  12.191  19.583  0.00  0.00    +0.000 A 
ATOM      4  N   UNL     1      -3.974  11.887  19.059  0.00  0.00    +0.000 N 
ATOM      5  C   UNL     1      -4.123  10.959  17.940  0.00  0.00    +0.000 C 
ATOM      6  C   UNL     1      -4.968  11.617  16.840  0.00  0.00    +0.000 C 
ATOM      7  O   UNL     1      -6.219  12.109  17.353  0.00  0.00    +0.000 OA
ATOM      8  C   UNL     1      -5.989  13.080  18.388  0.00  0.00    +0.000 C 
ATOM      9  C   UNL     1      -5.204  12.480  19.565  0.00  0.00    +0.000 C 
ATOM     10  N   UNL     1      -2.689  13.010  20.639  0.00  0.00    +0.000 NA
ATOM     11  C   UNL     1      -1.444  13.244  21.066  0.00  0.00    +0.000 A 
ATOM     12  C   UNL     1      -0.268  12.757  20.528  0.00  0.00    +0.000 A 
ATOM     13  N   UNL     1       0.820  13.228  21.237  0.00  0.00    +0.000 NA
ATOM     14  C   UNL     1       0.301  13.966  22.201  0.00  0.00    +0.000 A 
ATOM     15  N   UNL     1      -1.070  14.019  22.130  0.00  0.00    +0.000 N 
ENDROOT
BRANCH  15  16
ATOM     16  C   UNL     1      -1.944  14.755  23.015  0.00  0.00    +0.000 C 
ATOM     17  C   UNL     1      -2.746  13.876  23.977  0.00  0.00    +0.000 C 
ATOM     18  C   UNL     1      -3.225  14.841  25.053  0.00  0.00    +0.000 C 
ATOM     19  C   UNL     1      -2.182  15.953  25.124  0.00  0.00    +0.000 C 
ATOM     20  C   UNL     1      -1.236  15.749  23.942  0.00  0.00    +0.000 C 
ENDBRANCH  15  16
BRANCH   1  21
ATOM     21  N   UNL     1       0.685  11.394  18.703  0.00  0.00    +0.000 N 
ATOM     22  H   UNL     1       0.975  11.980  17.929  0.00  0.00    +0.000 HD
BRANCH  21  28
ATOM     23  C   UNL     1       1.899   9.544  17.722  0.00  0.00    +0.000 A 
ATOM     24  C   UNL     1       2.381   8.234  17.805  0.00  0.00    +0.000 A 
ATOM     25  C   UNL     1       2.243   7.494  18.979  0.00  0.00    +0.000 A 
ATOM     26  N   UNL     1       1.649   8.042  20.053  0.00  0.00    +0.000 NA
ATOM     27  C   UNL     1       1.163   9.309  19.940  0.00  0.00    +0.000 A 
ATOM     28  C   UNL     1       1.256  10.120  18.810  0.00  0.00    +0.000 A 
BRANCH  25  29
ATOM     29  N   UNL     1       2.791   6.240  19.083  0.00  0.00    +0.000 N 
ATOM     30  C   UNL     1       2.011   5.130  19.634  0.00  0.00    +0.000 C 
ATOM     31  C   UNL     1       2.969   4.302  20.516  0.00  0.00    +0.000 C 
ATOM     32  O   UNL     1       4.119   3.845  19.775  0.00  0.00    +0.000 OA
ATOM     33  C   UNL     1       4.843   4.957  19.215  0.00  0.00    +0.000 C 
ATOM     34  C   UNL     1       3.948   5.810  18.299  0.00  0.00    +0.000 C 
ENDBRANCH  25  29
ENDBRANCH  21  28
ENDBRANCH   1  21
TORSDOF 4
ENDMDL
