MODEL 1
REMARK VINA RESULT:      -7.4      0.000      0.000
REMARK  Name = 
REMARK  4 active torsions:
REMARK  status: ('A' for Active; 'I' for Inactive)
REMARK    1  A    between atoms: C_1  and  C_2
REMARK    2  A    between atoms: C_9  and  N_10
REMARK    3  A    between atoms: C_11  and  C_13
REMARK    4  A    between atoms: C_17  and  C_18
REMARK                            x       y       z     vdW  Elec       q    Type
REMARK                         _______ _______ _______ _____ _____    ______ ____
ROOT
ATOM      1  N   UNL     1       4.014   4.247  17.731  0.00  0.00    +0.000 N 
ATOM      2  C   UNL     1       5.383   4.273  17.951  0.00  0.00    +0.000 C 
ATOM      3  O   UNL     1       5.934   4.305  19.048  0.00  0.00    +0.000 OA
ATOM      4  H   UNL     1       3.783   3.792  16.848  0.00  0.00    +0.000 HD
ENDROOT
BRANCH   1  13
ATOM      5  C   UNL     1       2.585   6.597  18.949  0.00  0.00    +0.000 C 
ATOM      6  C   UNL     1       2.435   5.174  19.411  0.00  0.00    +0.000 A 
ATOM      7  C   UNL     1       1.536   4.904  20.458  0.00  0.00    +0.000 A 
ATOM      8  F   UNL     1       0.912   5.913  21.084  0.00  0.00    +0.000 F 
ATOM      9  C   UNL     1       1.235   3.605  20.858  0.00  0.00    +0.000 A 
ATOM     10  C   UNL     1       1.819   2.532  20.197  0.00  0.00    +0.000 A 
ATOM     11  C   UNL     1       2.722   2.770  19.157  0.00  0.00    +0.000 A 
ATOM     12 CL   UNL     1       3.436   1.398  18.379  0.00  0.00    +0.000 Cl
ATOM     13  C   UNL     1       3.069   4.086  18.778  0.00  0.00    +0.000 A 
ENDBRANCH   1  13
BRANCH   2  14
ATOM     14  C   UNL     1       6.200   4.130  16.652  0.00  0.00    +0.000 C 
ATOM     15  O   UNL     1       5.460   3.705  15.505  0.00  0.00    +0.000 OA
ATOM     16  C   UNL     1       6.321   3.932  14.382  0.00  0.00    +0.000 C 
ATOM     17  C   UNL     1       7.182   5.137  14.723  0.00  0.00    +0.000 C 
ATOM     18  C   UNL     1       6.933   5.395  16.206  0.00  0.00    +0.000 C 
ATOM     19  C   UNL     1       6.126   6.683  16.389  0.00  0.00    +0.000 C 
ENDBRANCH   2  14
TORSDOF 2
ENDMDL
MODEL 2
REMARK VINA RESULT:      -7.0      1.717      2.345
REMARK  Name = 
REMARK  4 active torsions:
REMARK  status: ('A' for Active; 'I' for Inactive)
REMARK    1  A    between atoms: C_1  and  C_2
REMARK    2  A    between atoms: C_9  and  N_10
REMARK    3  A    between atoms: C_11  and  C_13
REMARK    4  A    between atoms: C_17  and  C_18
REMARK                            x       y       z     vdW  Elec       q    Type
REMARK                         _______ _______ _______ _____ _____    ______ ____
ROOT
ATOM      1  N   UNL     1       3.906   4.346  17.517  0.00  0.00    +0.000 N 
ATOM      2  C   UNL     1       5.281   4.194  17.625  0.00  0.00    +0.000 C 
ATOM      3  O   UNL     1       5.914   4.122  18.676  0.00  0.00    +0.000 OA
ATOM      4  H   UNL     1       3.553   3.952  16.645  0.00  0.00    +0.000 HD
ENDROOT
BRANCH   1  13
ATOM      5  C   UNL     1       3.177   1.714  18.777  0.00  0.00    +0.000 C 
ATOM      6  C   UNL     1       2.623   3.046  19.200  0.00  0.00    +0.000 A 
ATOM      7  C   UNL     1       1.731   3.081  20.287  0.00  0.00    +0.000 A 
ATOM      8  F   UNL     1       1.318   1.938  20.855  0.00  0.00    +0.000 F 
ATOM      9  C   UNL     1       1.276   4.279  20.831  0.00  0.00    +0.000 A 
ATOM     10  C   UNL     1       1.723   5.484  20.305  0.00  0.00    +0.000 A 
ATOM     11  C   UNL     1       2.604   5.479  19.220  0.00  0.00    +0.000 A 
ATOM     12 CL   UNL     1       3.117   7.009  18.591  0.00  0.00    +0.000 Cl
ATOM     13  C   UNL     1       3.032   4.268  18.632  0.00  0.00    +0.000 A 
ENDBRANCH   1  13
BRANCH   2  14
ATOM     14  C   UNL     1       5.971   3.995  16.262  0.00  0.00    +0.000 C 
ATOM     15  O   UNL     1       5.118   4.110  15.120  0.00  0.00    +0.000 OA
ATOM     16  C   UNL     1       5.995   4.195  13.990  0.00  0.00    +0.000 C 
ATOM     17  C   UNL     1       7.261   4.888  14.464  0.00  0.00    +0.000 C 
ATOM     18  C   UNL     1       7.139   4.939  15.983  0.00  0.00    +0.000 C 
ATOM     19  C   UNL     1       6.904   6.380  16.446  0.00  0.00    +0.000 C 
ENDBRANCH   2  14
TORSDOF 2
ENDMDL
MODEL 3
REMARK VINA RESULT:      -6.7      1.789      2.352
REMARK  Name = 
REMARK  4 active torsions:
REMARK  status: ('A' for Active; 'I' for Inactive)
REMARK    1  A    between atoms: C_1  and  C_2
REMARK    2  A    between atoms: C_9  and  N_10
REMARK    3  A    between atoms: C_11  and  C_13
REMARK    4  A    between atoms: C_17  and  C_18
REMARK                            x       y       z     vdW  Elec       q    Type
REMARK                         _______ _______ _______ _____ _____    ______ ____
ROOT
ATOM      1  N   UNL     1       4.015   4.037  18.010  0.00  0.00    +0.000 N 
ATOM      2  C   UNL     1       5.227   4.710  18.057  0.00  0.00    +0.000 C 
ATOM      3  O   UNL     1       5.646   5.369  19.005  0.00  0.00    +0.000 OA
ATOM      4  H   UNL     1       4.053   3.239  17.377  0.00  0.00    +0.000 HD
ENDROOT
BRANCH   1  13
ATOM      5  C   UNL     1       4.475   1.889  20.064  0.00  0.00    +0.000 C 
ATOM      6  C   UNL     1       3.324   2.856  20.084  0.00  0.00    +0.000 A 
ATOM      7  C   UNL     1       2.415   2.787  21.154  0.00  0.00    +0.000 A 
ATOM      8  F   UNL     1       2.528   1.815  22.071  0.00  0.00    +0.000 F 
ATOM      9  C   UNL     1       1.400   3.727  21.323  0.00  0.00    +0.000 A 
ATOM     10  C   UNL     1       1.285   4.779  20.425  0.00  0.00    +0.000 A 
ATOM     11  C   UNL     1       2.170   4.868  19.347  0.00  0.00    +0.000 A 
ATOM     12 CL   UNL     1       1.971   6.190  18.247  0.00  0.00    +0.000 Cl
ATOM     13  C   UNL     1       3.171   3.892  19.142  0.00  0.00    +0.000 A 
ENDBRANCH   1  13
BRANCH   2  14
ATOM     14  C   UNL     1       6.100   4.457  16.813  0.00  0.00    +0.000 C 
ATOM     15  O   UNL     1       5.607   3.465  15.908  0.00  0.00    +0.000 OA
ATOM     16  C   UNL     1       6.385   3.610  14.713  0.00  0.00    +0.000 C 
ATOM     17  C   UNL     1       6.756   5.079  14.604  0.00  0.00    +0.000 C 
ATOM     18  C   UNL     1       6.366   5.687  15.947  0.00  0.00    +0.000 C 
ATOM     19  C   UNL     1       5.154   6.608  15.777  0.00  0.00    +0.000 C 
ENDBRANCH   2  14
TORSDOF 2
ENDMDL
MODEL 4
REMARK VINA RESULT:      -6.3      1.175      1.175
REMARK  Name = 
REMARK  4 active torsions:
REMARK  status: ('A' for Active; 'I' for Inactive)
REMARK    1  A    between atoms: C_1  and  C_2
REMARK    2  A    between atoms: C_9  and  N_10
REMARK    3  A    between atoms: C_11  and  C_13
REMARK    4  A    between atoms: C_17  and  C_18
REMARK                            x       y       z     vdW  Elec       q    Type
REMARK                         _______ _______ _______ _____ _____    ______ ____
ROOT
ATOM      1  N   UNL     1       4.632   3.712  18.283  0.00  0.00    +0.000 N 
ATOM      2  C   UNL     1       4.432   3.733  16.911  0.00  0.00    +0.000 C 
ATOM      3  O   UNL     1       3.347   3.633  16.342  0.00  0.00    +0.000 OA
ATOM      4  H   UNL     1       5.470   4.230  18.548  0.00  0.00    +0.000 HD
ENDROOT
BRANCH   1  13
ATOM      5  C   UNL     1       3.441   6.298  19.254  0.00  0.00    +0.000 C 
ATOM      6  C   UNL     1       3.032   4.935  19.738  0.00  0.00    +0.000 A 
ATOM      7  C   UNL     1       1.993   4.847  20.682  0.00  0.00    +0.000 A 
ATOM      8  F   UNL     1       1.460   5.963  21.200  0.00  0.00    +0.000 F 
ATOM      9  C   UNL     1       1.460   3.625  21.083  0.00  0.00    +0.000 A 
ATOM     10  C   UNL     1       1.948   2.449  20.527  0.00  0.00    +0.000 A 
ATOM     11  C   UNL     1       2.986   2.506  19.593  0.00  0.00    +0.000 A 
ATOM     12 CL   UNL     1       3.570   1.010  18.946  0.00  0.00    +0.000 Cl
ATOM     13  C   UNL     1       3.564   3.739  19.218  0.00  0.00    +0.000 A 
ENDBRANCH   1  13
BRANCH   2  14
ATOM     14  C   UNL     1       5.723   4.024  16.122  0.00  0.00    +0.000 C 
ATOM     15  O   UNL     1       5.659   3.752  14.720  0.00  0.00    +0.000 OA
ATOM     16  C   UNL     1       6.825   4.366  14.153  0.00  0.00    +0.000 C 
ATOM     17  C   UNL     1       7.135   5.587  15.001  0.00  0.00    +0.000 C 
ATOM     18  C   UNL     1       6.235   5.460  16.226  0.00  0.00    +0.000 C 
ATOM     19  C   UNL     1       5.134   6.522  16.184  0.00  0.00    +0.000 C 
ENDBRANCH   2  14
TORSDOF 2
ENDMDL
MODEL 5
REMARK VINA RESULT:      -6.3      1.053      1.073
REMARK  Name = 
REMARK  4 active torsions:
REMARK  status: ('A' for Active; 'I' for Inactive)
REMARK    1  A    between atoms: C_1  and  C_2
REMARK    2  A    between atoms: C_9  and  N_10
REMARK    3  A    between atoms: C_11  and  C_13
REMARK    4  A    between atoms: C_17  and  C_18
REMARK                            x       y       z     vdW  Elec       q    Type
REMARK                         _______ _______ _______ _____ _____    ______ ____
ROOT
ATOM      1  N   UNL     1       4.044   3.800  18.057  0.00  0.00    +0.000 N 
ATOM      2  C   UNL     1       5.127   4.667  18.055  0.00  0.00    +0.000 C 
ATOM      3  O   UNL     1       5.388   5.491  18.928  0.00  0.00    +0.000 OA
ATOM      4  H   UNL     1       4.241   2.952  17.526  0.00  0.00    +0.000 HD
ENDROOT
BRANCH   1  13
ATOM      5  C   UNL     1       1.450   5.306  18.272  0.00  0.00    +0.000 C 
ATOM      6  C   UNL     1       1.994   4.388  19.331  0.00  0.00    +0.000 A 
ATOM      7  C   UNL     1       1.227   4.181  20.491  0.00  0.00    +0.000 A 
ATOM      8  F   UNL     1       0.090   4.867  20.676  0.00  0.00    +0.000 F 
ATOM      9  C   UNL     1       1.588   3.247  21.459  0.00  0.00    +0.000 A 
ATOM     10  C   UNL     1       2.730   2.477  21.276  0.00  0.00    +0.000 A 
ATOM     11  C   UNL     1       3.516   2.668  20.136  0.00  0.00    +0.000 A 
ATOM     12 CL   UNL     1       4.938   1.696  19.966  0.00  0.00    +0.000 Cl
ATOM     13  C   UNL     1       3.182   3.647  19.174  0.00  0.00    +0.000 A 
ENDBRANCH   1  13
BRANCH   2  14
ATOM     14  C   UNL     1       6.088   4.422  16.876  0.00  0.00    +0.000 C 
ATOM     15  O   UNL     1       5.649   3.455  15.918  0.00  0.00    +0.000 OA
ATOM     16  C   UNL     1       6.518   3.609  14.788  0.00  0.00    +0.000 C 
ATOM     17  C   UNL     1       6.918   5.073  14.735  0.00  0.00    +0.000 C 
ATOM     18  C   UNL     1       6.437   5.664  16.056  0.00  0.00    +0.000 C 
ATOM     19  C   UNL     1       5.255   6.607  15.814  0.00  0.00    +0.000 C 
ENDBRANCH   2  14
TORSDOF 2
ENDMDL
MODEL 6
REMARK VINA RESULT:      -6.2      1.876      2.742
REMARK  Name = 
REMARK  4 active torsions:
REMARK  status: ('A' for Active; 'I' for Inactive)
REMARK    1  A    between atoms: C_1  and  C_2
REMARK    2  A    between atoms: C_9  and  N_10
REMARK    3  A    between atoms: C_11  and  C_13
REMARK    4  A    between atoms: C_17  and  C_18
REMARK                            x       y       z     vdW  Elec       q    Type
REMARK                         _______ _______ _______ _____ _____    ______ ____
ROOT
ATOM      1  N   UNL     1       4.054   5.274  18.848  0.00  0.00    +0.000 N 
ATOM      2  C   UNL     1       5.418   5.081  19.012  0.00  0.00    +0.000 C 
ATOM      3  O   UNL     1       5.958   4.031  19.353  0.00  0.00    +0.000 OA
ATOM      4  H   UNL     1       3.858   6.012  18.172  0.00  0.00    +0.000 HD
ENDROOT
BRANCH   1  13
ATOM      5  C   UNL     1       2.221   4.889  21.201  0.00  0.00    +0.000 C 
ATOM      6  C   UNL     1       2.290   3.969  20.013  0.00  0.00    +0.000 A 
ATOM      7  C   UNL     1       1.413   2.871  19.969  0.00  0.00    +0.000 A 
ATOM      8  F   UNL     1       0.613   2.608  21.013  0.00  0.00    +0.000 F 
ATOM      9  C   UNL     1       1.315   2.048  18.850  0.00  0.00    +0.000 A 
ATOM     10  C   UNL     1       2.089   2.321  17.729  0.00  0.00    +0.000 A 
ATOM     11  C   UNL     1       2.974   3.402  17.748  0.00  0.00    +0.000 A 
ATOM     12 CL   UNL     1       3.927   3.686  16.331  0.00  0.00    +0.000 Cl
ATOM     13  C   UNL     1       3.114   4.211  18.896  0.00  0.00    +0.000 A 
ENDBRANCH   1  13
BRANCH   2  14
ATOM     14  C   UNL     1       6.250   6.309  18.599  0.00  0.00    +0.000 C 
ATOM     15  O   UNL     1       7.564   6.377  19.160  0.00  0.00    +0.000 OA
ATOM     16  C   UNL     1       8.247   7.400  18.423  0.00  0.00    +0.000 C 
ATOM     17  C   UNL     1       7.675   7.386  17.016  0.00  0.00    +0.000 C 
ATOM     18  C   UNL     1       6.451   6.480  17.094  0.00  0.00    +0.000 C 
ATOM     19  C   UNL     1       6.715   5.171  16.345  0.00  0.00    +0.000 C 
ENDBRANCH   2  14
TORSDOF 2
ENDMDL
MODEL 7
REMARK VINA RESULT:      -6.1      1.841      2.285
REMARK  Name = 
REMARK  4 active torsions:
REMARK  status: ('A' for Active; 'I' for Inactive)
REMARK    1  A    between atoms: C_1  and  C_2
REMARK    2  A    between atoms: C_9  and  N_10
REMARK    3  A    between atoms: C_11  and  C_13
REMARK    4  A    between atoms: C_17  and  C_18
REMARK                            x       y       z     vdW  Elec       q    Type
REMARK                         _______ _______ _______ _____ _____    ______ ____
ROOT
ATOM      1  N   UNL     1       3.735   3.347  17.675  0.00  0.00    +0.000 N 
ATOM      2  C   UNL     1       4.658   4.361  17.462  0.00  0.00    +0.000 C 
ATOM      3  O   UNL     1       4.798   5.362  18.161  0.00  0.00    +0.000 OA
ATOM      4  H   UNL     1       4.059   2.459  17.292  0.00  0.00    +0.000 HD
ENDROOT
BRANCH   1  13
ATOM      5  C   UNL     1       4.746   2.049  20.193  0.00  0.00    +0.000 C 
ATOM      6  C   UNL     1       3.360   2.606  20.016  0.00  0.00    +0.000 A 
ATOM      7  C   UNL     1       2.479   2.559  21.111  0.00  0.00    +0.000 A 
ATOM      8  F   UNL     1       2.846   1.941  22.243  0.00  0.00    +0.000 F 
ATOM      9  C   UNL     1       1.228   3.171  21.079  0.00  0.00    +0.000 A 
ATOM     10  C   UNL     1       0.835   3.868  19.944  0.00  0.00    +0.000 A 
ATOM     11  C   UNL     1       1.687   3.925  18.838  0.00  0.00    +0.000 A 
ATOM     12 CL   UNL     1       1.141   4.791  17.443  0.00  0.00    +0.000 Cl
ATOM     13  C   UNL     1       2.937   3.266  18.845  0.00  0.00    +0.000 A 
ENDBRANCH   1  13
BRANCH   2  14
ATOM     14  C   UNL     1       5.618   4.062  16.295  0.00  0.00    +0.000 C 
ATOM     15  O   UNL     1       5.092   4.307  14.989  0.00  0.00    +0.000 OA
ATOM     16  C   UNL     1       6.218   4.259  14.103  0.00  0.00    +0.000 C 
ATOM     17  C   UNL     1       7.420   4.751  14.890  0.00  0.00    +0.000 C 
ATOM     18  C   UNL     1       6.945   4.817  16.338  0.00  0.00    +0.000 C 
ATOM     19  C   UNL     1       6.821   6.276  16.786  0.00  0.00    +0.000 C 
ENDBRANCH   2  14
TORSDOF 2
ENDMDL
MODEL 8
REMARK VINA RESULT:      -6.1      2.348      3.078
REMARK  Name = 
REMARK  4 active torsions:
REMARK  status: ('A' for Active; 'I' for Inactive)
REMARK    1  A    between atoms: C_1  and  C_2
REMARK    2  A    between atoms: C_9  and  N_10
REMARK    3  A    between atoms: C_11  and  C_13
REMARK    4  A    between atoms: C_17  and  C_18
REMARK                            x       y       z     vdW  Elec       q    Type
REMARK                         _______ _______ _______ _____ _____    ______ ____
ROOT
ATOM      1  N   UNL     1       3.846   5.954  17.140  0.00  0.00    +0.000 N 
ATOM      2  C   UNL     1       5.219   6.098  17.006  0.00  0.00    +0.000 C 
ATOM      3  O   UNL     1       6.001   6.396  17.905  0.00  0.00    +0.000 OA
ATOM      4  H   UNL     1       3.467   5.307  16.449  0.00  0.00    +0.000 HD
ENDROOT
BRANCH   1  13
ATOM      5  C   UNL     1       3.933   3.600  19.010  0.00  0.00    +0.000 C 
ATOM      6  C   UNL     1       3.159   4.864  19.264  0.00  0.00    +0.000 A 
ATOM      7  C   UNL     1       2.454   4.982  20.475  0.00  0.00    +0.000 A 
ATOM      8  F   UNL     1       2.403   3.946  21.326  0.00  0.00    +0.000 F 
ATOM      9  C   UNL     1       1.824   6.165  20.852  0.00  0.00    +0.000 A 
ATOM     10  C   UNL     1       1.902   7.277  20.022  0.00  0.00    +0.000 A 
ATOM     11  C   UNL     1       2.589   7.186  18.809  0.00  0.00    +0.000 A 
ATOM     12 CL   UNL     1       2.639   8.595  17.805  0.00  0.00    +0.000 Cl
ATOM     13  C   UNL     1       3.189   5.975  18.398  0.00  0.00    +0.000 A 
ENDBRANCH   1  13
BRANCH   2  14
ATOM     14  C   UNL     1       5.725   5.720  15.601  0.00  0.00    +0.000 C 
ATOM     15  O   UNL     1       7.141   5.795  15.418  0.00  0.00    +0.000 OA
ATOM     16  C   UNL     1       7.408   5.127  14.178  0.00  0.00    +0.000 C 
ATOM     17  C   UNL     1       6.359   4.039  14.029  0.00  0.00    +0.000 C 
ATOM     18  C   UNL     1       5.337   4.321  15.126  0.00  0.00    +0.000 C 
ATOM     19  C   UNL     1       5.420   3.246  16.214  0.00  0.00    +0.000 C 
ENDBRANCH   2  14
TORSDOF 2
ENDMDL
MODEL 9
REMARK VINA RESULT:      -6.0      2.930      5.889
REMARK  Name = 
REMARK  4 active torsions:
REMARK  status: ('A' for Active; 'I' for Inactive)
REMARK    1  A    between atoms: C_1  and  C_2
REMARK    2  A    between atoms: C_9  and  N_10
REMARK    3  A    between atoms: C_11  and  C_13
REMARK    4  A    between atoms: C_17  and  C_18
REMARK                            x       y       z     vdW  Elec       q    Type
REMARK                         _______ _______ _______ _____ _____    ______ ____
ROOT
ATOM      1  N   UNL     1       5.093   4.187  18.925  0.00  0.00    +0.000 N 
ATOM      2  C   UNL     1       3.995   4.597  19.666  0.00  0.00    +0.000 C 
ATOM      3  O   UNL     1       3.666   5.762  19.877  0.00  0.00    +0.000 OA
ATOM      4  H   UNL     1       4.945   3.266  18.512  0.00  0.00    +0.000 HD
ENDROOT
BRANCH   1  13
ATOM      5  C   UNL     1       7.452   5.610  20.132  0.00  0.00    +0.000 C 
ATOM      6  C   UNL     1       6.960   5.814  18.726  0.00  0.00    +0.000 A 
ATOM      7  C   UNL     1       7.668   6.700  17.895  0.00  0.00    +0.000 A 
ATOM      8  F   UNL     1       8.692   7.412  18.388  0.00  0.00    +0.000 F 
ATOM      9  C   UNL     1       7.365   6.847  16.543  0.00  0.00    +0.000 A 
ATOM     10  C   UNL     1       6.347   6.087  15.983  0.00  0.00    +0.000 A 
ATOM     11  C   UNL     1       5.621   5.204  16.787  0.00  0.00    +0.000 A 
ATOM     12 CL   UNL     1       4.351   4.294  16.043  0.00  0.00    +0.000 Cl
ATOM     13  C   UNL     1       5.891   5.085  18.169  0.00  0.00    +0.000 A 
ENDBRANCH   1  13
BRANCH   2  14
ATOM     14  C   UNL     1       3.111   3.422  20.126  0.00  0.00    +0.000 C 
ATOM     15  O   UNL     1       2.292   3.681  21.269  0.00  0.00    +0.000 OA
ATOM     16  C   UNL     1       1.359   2.595  21.331  0.00  0.00    +0.000 C 
ATOM     17  C   UNL     1       1.103   2.152  19.900  0.00  0.00    +0.000 C 
ATOM     18  C   UNL     1       2.154   2.878  19.067  0.00  0.00    +0.000 C 
ATOM     19  C   UNL     1       1.492   3.958  18.207  0.00  0.00    +0.000 C 
ENDBRANCH   2  14
TORSDOF 2
ENDMDL
