MODEL 1
REMARK VINA RESULT:      -6.8      0.000      0.000
REMARK  Name = 
REMARK  5 active torsions:
REMARK  status: ('A' for Active; 'I' for Inactive)
REMARK    1  A    between atoms: C_5  and  C_6
REMARK    2  A    between atoms: C_6  and  N_7
REMARK    3  A    between atoms: N_7  and  C_8
REMARK    4  A    between atoms: C_8  and  C_9
REMARK    5  A    between atoms: C_9  and  C_10
REMARK                            x       y       z     vdW  Elec       q    Type
REMARK                         _______ _______ _______ _____ _____    ______ ____
ROOT
ATOM      1  C   UNL     1       4.929   5.343  16.395  0.00  0.00    +0.000 C 
ENDROOT
BRANCH   1   2
ATOM      2  N   UNL     1       4.725   6.350  17.439  0.00  0.00    +0.000 NA
ATOM      3  H   UNL     1       4.499   5.909  18.327  0.00  0.00    +0.000 HD
BRANCH   2   4
ATOM      4  C   UNL     1       3.718   7.363  17.118  0.00  0.00    +0.000 C 
BRANCH   4   9
ATOM      5 CL   UNL     1       0.160   8.879  21.758  0.00  0.00    +0.000 Cl
ATOM      6  C   UNL     1       1.128   8.436  20.409  0.00  0.00    +0.000 A 
ATOM      7  C   UNL     1       1.208   9.277  19.307  0.00  0.00    +0.000 A 
ATOM      8  C   UNL     1       2.026   8.934  18.229  0.00  0.00    +0.000 A 
ATOM      9  C   UNL     1       2.789   7.755  18.251  0.00  0.00    +0.000 A 
ATOM     10  C   UNL     1       2.665   6.900  19.352  0.00  0.00    +0.000 A 
ATOM     11  C   UNL     1       1.843   7.237  20.432  0.00  0.00    +0.000 A 
ENDBRANCH   4   9
ENDBRANCH   2   4
ENDBRANCH   1   2
BRANCH   1  12
ATOM     12  C   UNL     1       4.922   3.914  16.947  0.00  0.00    +0.000 C 
BRANCH  12  13
ATOM     13  C   UNL     1       3.772   3.675  17.889  0.00  0.00    +0.000 A 
ATOM     14  C   UNL     1       2.440   3.799  17.429  0.00  0.00    +0.000 A 
ATOM     15  C   UNL     1       1.364   3.545  18.280  0.00  0.00    +0.000 A 
ATOM     16  C   UNL     1       1.648   3.186  19.580  0.00  0.00    +0.000 A 
ATOM     17  C   UNL     1       2.941   3.084  20.038  0.00  0.00    +0.000 A 
ATOM     18  C   UNL     1       4.023   3.324  19.222  0.00  0.00    +0.000 A 
ATOM     19  O   UNL     1       3.003   2.718  21.346  0.00  0.00    +0.000 OA
ATOM     20  C   UNL     1       1.601   2.617  21.662  0.00  0.00    +0.000 C 
ATOM     21  O   UNL     1       0.735   2.892  20.542  0.00  0.00    +0.000 OA
ENDBRANCH  12  13
ENDBRANCH   1  12
TORSDOF 5
ENDMDL
MODEL 2
REMARK VINA RESULT:      -6.7      2.584      3.961
REMARK  Name = 
REMARK  5 active torsions:
REMARK  status: ('A' for Active; 'I' for Inactive)
REMARK    1  A    between atoms: C_5  and  C_6
REMARK    2  A    between atoms: C_6  and  N_7
REMARK    3  A    between atoms: N_7  and  C_8
REMARK    4  A    between atoms: C_8  and  C_9
REMARK    5  A    between atoms: C_9  and  C_10
REMARK                            x       y       z     vdW  Elec       q    Type
REMARK                         _______ _______ _______ _____ _____    ______ ____
ROOT
ATOM      1  C   UNL     1       1.999   2.664  20.215  0.00  0.00    +0.000 C 
ENDROOT
BRANCH   1   2
ATOM      2  N   UNL     1       1.277   3.936  20.125  0.00  0.00    +0.000 NA
ATOM      3  H   UNL     1       1.160   4.217  19.154  0.00  0.00    +0.000 HD
BRANCH   2   4
ATOM      4  C   UNL     1       1.876   5.030  20.890  0.00  0.00    +0.000 C 
BRANCH   4   9
ATOM      5 CL   UNL     1       1.855  10.343  18.015  0.00  0.00    +0.000 Cl
ATOM      6  C   UNL     1       1.899   8.850  18.866  0.00  0.00    +0.000 A 
ATOM      7  C   UNL     1       1.325   8.755  20.127  0.00  0.00    +0.000 A 
ATOM      8  C   UNL     1       1.327   7.532  20.800  0.00  0.00    +0.000 A 
ATOM      9  C   UNL     1       1.886   6.386  20.209  0.00  0.00    +0.000 A 
ATOM     10  C   UNL     1       2.494   6.511  18.956  0.00  0.00    +0.000 A 
ATOM     11  C   UNL     1       2.499   7.735  18.280  0.00  0.00    +0.000 A 
ENDBRANCH   4   9
ENDBRANCH   2   4
ENDBRANCH   1   2
BRANCH   1  12
ATOM     12  C   UNL     1       2.559   2.209  18.864  0.00  0.00    +0.000 C 
BRANCH  12  13
ATOM     13  C   UNL     1       3.651   3.117  18.366  0.00  0.00    +0.000 A 
ATOM     14  C   UNL     1       3.629   3.589  17.033  0.00  0.00    +0.000 A 
ATOM     15  C   UNL     1       4.616   4.460  16.567  0.00  0.00    +0.000 A 
ATOM     16  C   UNL     1       5.610   4.828  17.447  0.00  0.00    +0.000 A 
ATOM     17  C   UNL     1       5.648   4.356  18.738  0.00  0.00    +0.000 A 
ATOM     18  C   UNL     1       4.689   3.499  19.227  0.00  0.00    +0.000 A 
ATOM     19  O   UNL     1       6.708   4.839  19.439  0.00  0.00    +0.000 OA
ATOM     20  C   UNL     1       7.342   5.656  18.436  0.00  0.00    +0.000 C 
ATOM     21  O   UNL     1       6.641   5.671  17.175  0.00  0.00    +0.000 OA
ENDBRANCH  12  13
ENDBRANCH   1  12
TORSDOF 5
ENDMDL
MODEL 3
REMARK VINA RESULT:      -6.5      3.452      5.615
REMARK  Name = 
REMARK  5 active torsions:
REMARK  status: ('A' for Active; 'I' for Inactive)
REMARK    1  A    between atoms: C_5  and  C_6
REMARK    2  A    between atoms: C_6  and  N_7
REMARK    3  A    between atoms: N_7  and  C_8
REMARK    4  A    between atoms: C_8  and  C_9
REMARK    5  A    between atoms: C_9  and  C_10
REMARK                            x       y       z     vdW  Elec       q    Type
REMARK                         _______ _______ _______ _____ _____    ______ ____
ROOT
ATOM      1  C   UNL     1       3.063   3.870  17.713  0.00  0.00    +0.000 C 
ENDROOT
BRANCH   1   2
ATOM      2  N   UNL     1       4.302   3.135  17.446  0.00  0.00    +0.000 NA
ATOM      3  H   UNL     1       4.811   2.962  18.309  0.00  0.00    +0.000 HD
BRANCH   2   4
ATOM      4  C   UNL     1       5.186   3.769  16.466  0.00  0.00    +0.000 C 
BRANCH   4   9
ATOM      5 CL   UNL     1       8.500   8.359  18.575  0.00  0.00    +0.000 Cl
ATOM      6  C   UNL     1       7.600   7.034  17.949  0.00  0.00    +0.000 A 
ATOM      7  C   UNL     1       7.785   5.761  18.474  0.00  0.00    +0.000 A 
ATOM      8  C   UNL     1       7.026   4.695  17.991  0.00  0.00    +0.000 A 
ATOM      9  C   UNL     1       6.058   4.893  16.992  0.00  0.00    +0.000 A 
ATOM     10  C   UNL     1       5.914   6.174  16.449  0.00  0.00    +0.000 A 
ATOM     11  C   UNL     1       6.676   7.246  16.925  0.00  0.00    +0.000 A 
ENDBRANCH   4   9
ENDBRANCH   2   4
ENDBRANCH   1   2
BRANCH   1  12
ATOM     12  C   UNL     1       2.958   4.339  19.167  0.00  0.00    +0.000 C 
BRANCH  12  13
ATOM     13  C   UNL     1       2.493   5.767  19.272  0.00  0.00    +0.000 A 
ATOM     14  C   UNL     1       1.923   6.240  20.477  0.00  0.00    +0.000 A 
ATOM     15  C   UNL     1       1.520   7.571  20.602  0.00  0.00    +0.000 A 
ATOM     16  C   UNL     1       1.685   8.393  19.509  0.00  0.00    +0.000 A 
ATOM     17  C   UNL     1       2.218   7.933  18.329  0.00  0.00    +0.000 A 
ATOM     18  C   UNL     1       2.628   6.628  18.175  0.00  0.00    +0.000 A 
ATOM     19  O   UNL     1       2.294   8.902  17.378  0.00  0.00    +0.000 OA
ATOM     20  C   UNL     1       1.732  10.021  18.091  0.00  0.00    +0.000 C 
ATOM     21  O   UNL     1       1.362   9.712  19.450  0.00  0.00    +0.000 OA
ENDBRANCH  12  13
ENDBRANCH   1  12
TORSDOF 5
ENDMDL
MODEL 4
REMARK VINA RESULT:      -6.5      0.555      1.193
REMARK  Name = 
REMARK  5 active torsions:
REMARK  status: ('A' for Active; 'I' for Inactive)
REMARK    1  A    between atoms: C_5  and  C_6
REMARK    2  A    between atoms: C_6  and  N_7
REMARK    3  A    between atoms: N_7  and  C_8
REMARK    4  A    between atoms: C_8  and  C_9
REMARK    5  A    between atoms: C_9  and  C_10
REMARK                            x       y       z     vdW  Elec       q    Type
REMARK                         _______ _______ _______ _____ _____    ______ ____
ROOT
ATOM      1  C   UNL     1       5.410   5.050  17.056  0.00  0.00    +0.000 C 
ENDROOT
BRANCH   1   2
ATOM      2  N   UNL     1       4.833   6.063  17.943  0.00  0.00    +0.000 NA
ATOM      3  H   UNL     1       4.386   5.627  18.746  0.00  0.00    +0.000 HD
BRANCH   2   4
ATOM      4  C   UNL     1       3.897   6.980  17.291  0.00  0.00    +0.000 C 
BRANCH   4   9
ATOM      5 CL   UNL     1      -0.208   9.721  20.774  0.00  0.00    +0.000 Cl
ATOM      6  C   UNL     1       0.999   8.959  19.816  0.00  0.00    +0.000 A 
ATOM      7  C   UNL     1       1.617   7.802  20.271  0.00  0.00    +0.000 A 
ATOM      8  C   UNL     1       2.568   7.163  19.474  0.00  0.00    +0.000 A 
ATOM      9  C   UNL     1       2.897   7.664  18.203  0.00  0.00    +0.000 A 
ATOM     10  C   UNL     1       2.293   8.853  17.779  0.00  0.00    +0.000 A 
ATOM     11  C   UNL     1       1.343   9.499  18.576  0.00  0.00    +0.000 A 
ENDBRANCH   4   9
ENDBRANCH   2   4
ENDBRANCH   1   2
BRANCH   1  12
ATOM     12  C   UNL     1       4.416   3.940  16.705  0.00  0.00    +0.000 C 
BRANCH  12  13
ATOM     13  C   UNL     1       3.425   3.693  17.812  0.00  0.00    +0.000 A 
ATOM     14  C   UNL     1       2.044   3.897  17.586  0.00  0.00    +0.000 A 
ATOM     15  C   UNL     1       1.110   3.638  18.591  0.00  0.00    +0.000 A 
ATOM     16  C   UNL     1       1.585   3.193  19.805  0.00  0.00    +0.000 A 
ATOM     17  C   UNL     1       2.929   3.013  20.037  0.00  0.00    +0.000 A 
ATOM     18  C   UNL     1       3.873   3.256  19.066  0.00  0.00    +0.000 A 
ATOM     19  O   UNL     1       3.186   2.570  21.296  0.00  0.00    +0.000 OA
ATOM     20  C   UNL     1       1.852   2.507  21.835  0.00  0.00    +0.000 C 
ATOM     21  O   UNL     1       0.828   2.881  20.890  0.00  0.00    +0.000 OA
ENDBRANCH  12  13
ENDBRANCH   1  12
TORSDOF 5
ENDMDL
MODEL 5
REMARK VINA RESULT:      -6.5      3.241      5.184
REMARK  Name = 
REMARK  5 active torsions:
REMARK  status: ('A' for Active; 'I' for Inactive)
REMARK    1  A    between atoms: C_5  and  C_6
REMARK    2  A    between atoms: C_6  and  N_7
REMARK    3  A    between atoms: N_7  and  C_8
REMARK    4  A    between atoms: C_8  and  C_9
REMARK    5  A    between atoms: C_9  and  C_10
REMARK                            x       y       z     vdW  Elec       q    Type
REMARK                         _______ _______ _______ _____ _____    ______ ____
ROOT
ATOM      1  C   UNL     1       4.142   7.121  17.199  0.00  0.00    +0.000 C 
ENDROOT
BRANCH   1   2
ATOM      2  N   UNL     1       5.405   6.902  17.910  0.00  0.00    +0.000 NA
ATOM      3  H   UNL     1       6.109   7.572  17.610  0.00  0.00    +0.000 HD
BRANCH   2   4
ATOM      4  C   UNL     1       5.935   5.542  17.802  0.00  0.00    +0.000 C 
BRANCH   4   9
ATOM      5 CL   UNL     1       6.323   3.421  12.158  0.00  0.00    +0.000 Cl
ATOM      6  C   UNL     1       6.252   3.991  13.778  0.00  0.00    +0.000 A 
ATOM      7  C   UNL     1       7.245   4.834  14.261  0.00  0.00    +0.000 A 
ATOM      8  C   UNL     1       7.164   5.327  15.564  0.00  0.00    +0.000 A 
ATOM      9  C   UNL     1       6.079   4.998  16.393  0.00  0.00    +0.000 A 
ATOM     10  C   UNL     1       5.110   4.116  15.903  0.00  0.00    +0.000 A 
ATOM     11  C   UNL     1       5.188   3.616  14.600  0.00  0.00    +0.000 A 
ENDBRANCH   4   9
ENDBRANCH   2   4
ENDBRANCH   1   2
BRANCH   1  12
ATOM     12  C   UNL     1       2.947   7.250  18.149  0.00  0.00    +0.000 C 
BRANCH  12  13
ATOM     13  C   UNL     1       2.485   5.913  18.664  0.00  0.00    +0.000 A 
ATOM     14  C   UNL     1       1.994   4.937  17.765  0.00  0.00    +0.000 A 
ATOM     15  C   UNL     1       1.595   3.681  18.223  0.00  0.00    +0.000 A 
ATOM     16  C   UNL     1       1.685   3.436  19.576  0.00  0.00    +0.000 A 
ATOM     17  C   UNL     1       2.141   4.387  20.457  0.00  0.00    +0.000 A 
ATOM     18  C   UNL     1       2.545   5.634  20.036  0.00  0.00    +0.000 A 
ATOM     19  O   UNL     1       2.152   3.946  21.743  0.00  0.00    +0.000 OA
ATOM     20  C   UNL     1       1.633   2.612  21.571  0.00  0.00    +0.000 C 
ATOM     21  O   UNL     1       1.353   2.273  20.197  0.00  0.00    +0.000 OA
ENDBRANCH  12  13
ENDBRANCH   1  12
TORSDOF 5
ENDMDL
MODEL 6
REMARK VINA RESULT:      -6.4      2.982      4.677
REMARK  Name = 
REMARK  5 active torsions:
REMARK  status: ('A' for Active; 'I' for Inactive)
REMARK    1  A    between atoms: C_5  and  C_6
REMARK    2  A    between atoms: C_6  and  N_7
REMARK    3  A    between atoms: N_7  and  C_8
REMARK    4  A    between atoms: C_8  and  C_9
REMARK    5  A    between atoms: C_9  and  C_10
REMARK                            x       y       z     vdW  Elec       q    Type
REMARK                         _______ _______ _______ _____ _____    ______ ____
ROOT
ATOM      1  C   UNL     1       2.894   2.075  19.770  0.00  0.00    +0.000 C 
ENDROOT
BRANCH   1   2
ATOM      2  N   UNL     1       2.111   2.623  20.881  0.00  0.00    +0.000 NA
ATOM      3  H   UNL     1       1.721   1.875  21.450  0.00  0.00    +0.000 HD
BRANCH   2   4
ATOM      4  C   UNL     1       1.049   3.546  20.479  0.00  0.00    +0.000 C 
BRANCH   4   9
ATOM      5 CL   UNL     1       3.002   8.552  17.718  0.00  0.00    +0.000 Cl
ATOM      6  C   UNL     1       2.396   7.139  18.487  0.00  0.00    +0.000 A 
ATOM      7  C   UNL     1       2.037   6.035  17.725  0.00  0.00    +0.000 A 
ATOM      8  C   UNL     1       1.583   4.875  18.354  0.00  0.00    +0.000 A 
ATOM      9  C   UNL     1       1.502   4.800  19.755  0.00  0.00    +0.000 A 
ATOM     10  C   UNL     1       1.831   5.935  20.503  0.00  0.00    +0.000 A 
ATOM     11  C   UNL     1       2.282   7.101  19.877  0.00  0.00    +0.000 A 
ENDBRANCH   4   9
ENDBRANCH   2   4
ENDBRANCH   1   2
BRANCH   1  12
ATOM     12  C   UNL     1       4.388   2.391  19.891  0.00  0.00    +0.000 C 
BRANCH  12  13
ATOM     13  C   UNL     1       4.817   3.480  18.944  0.00  0.00    +0.000 A 
ATOM     14  C   UNL     1       5.371   4.680  19.449  0.00  0.00    +0.000 A 
ATOM     15  C   UNL     1       5.807   5.684  18.583  0.00  0.00    +0.000 A 
ATOM     16  C   UNL     1       5.664   5.468  17.230  0.00  0.00    +0.000 A 
ATOM     17  C   UNL     1       5.107   4.313  16.735  0.00  0.00    +0.000 A 
ATOM     18  C   UNL     1       4.671   3.303  17.562  0.00  0.00    +0.000 A 
ATOM     19  O   UNL     1       5.057   4.297  15.377  0.00  0.00    +0.000 OA
ATOM     20  C   UNL     1       5.633   5.583  15.074  0.00  0.00    +0.000 C 
ATOM     21  O   UNL     1       6.039   6.324  16.243  0.00  0.00    +0.000 OA
ENDBRANCH  12  13
ENDBRANCH   1  12
TORSDOF 5
ENDMDL
MODEL 7
REMARK VINA RESULT:      -6.4      3.234      4.902
REMARK  Name = 
REMARK  5 active torsions:
REMARK  status: ('A' for Active; 'I' for Inactive)
REMARK    1  A    between atoms: C_5  and  C_6
REMARK    2  A    between atoms: C_6  and  N_7
REMARK    3  A    between atoms: N_7  and  C_8
REMARK    4  A    between atoms: C_8  and  C_9
REMARK    5  A    between atoms: C_9  and  C_10
REMARK                            x       y       z     vdW  Elec       q    Type
REMARK                         _______ _______ _______ _____ _____    ______ ____
ROOT
ATOM      1  C   UNL     1       2.308   6.199  19.976  0.00  0.00    +0.000 C 
ENDROOT
BRANCH   1   2
ATOM      2  N   UNL     1       1.783   7.191  20.919  0.00  0.00    +0.000 NA
ATOM      3  H   UNL     1       0.937   6.850  21.368  0.00  0.00    +0.000 HD
BRANCH   2   4
ATOM      4  C   UNL     1       1.539   8.512  20.338  0.00  0.00    +0.000 C 
BRANCH   4   9
ATOM      5 CL   UNL     1      -2.274  12.127  23.320  0.00  0.00    +0.000 Cl
ATOM      6  C   UNL     1      -1.148  11.118  22.500  0.00  0.00    +0.000 A 
ATOM      7  C   UNL     1      -0.610  10.013  23.146  0.00  0.00    +0.000 A 
ATOM      8  C   UNL     1       0.273   9.173  22.465  0.00  0.00    +0.000 A 
ATOM      9  C   UNL     1       0.612   9.420  21.124  0.00  0.00    +0.000 A 
ATOM     10  C   UNL     1       0.092  10.560  20.504  0.00  0.00    +0.000 A 
ATOM     11  C   UNL     1      -0.790  11.407  21.183  0.00  0.00    +0.000 A 
ENDBRANCH   4   9
ENDBRANCH   2   4
ENDBRANCH   1   2
BRANCH   1  12
ATOM     12  C   UNL     1       2.607   6.798  18.598  0.00  0.00    +0.000 C 
BRANCH  12  13
ATOM     13  C   UNL     1       3.530   5.926  17.789  0.00  0.00    +0.000 A 
ATOM     14  C   UNL     1       3.291   4.535  17.695  0.00  0.00    +0.000 A 
ATOM     15  C   UNL     1       4.116   3.720  16.919  0.00  0.00    +0.000 A 
ATOM     16  C   UNL     1       5.172   4.317  16.266  0.00  0.00    +0.000 A 
ATOM     17  C   UNL     1       5.422   5.665  16.370  0.00  0.00    +0.000 A 
ATOM     18  C   UNL     1       4.625   6.495  17.125  0.00  0.00    +0.000 A 
ATOM     19  O   UNL     1       6.508   6.052  15.651  0.00  0.00    +0.000 OA
ATOM     20  C   UNL     1       6.923   4.790  15.093  0.00  0.00    +0.000 C 
ATOM     21  O   UNL     1       6.069   3.686  15.462  0.00  0.00    +0.000 OA
ENDBRANCH  12  13
ENDBRANCH   1  12
TORSDOF 5
ENDMDL
MODEL 8
REMARK VINA RESULT:      -6.4      3.088      4.669
REMARK  Name = 
REMARK  5 active torsions:
REMARK  status: ('A' for Active; 'I' for Inactive)
REMARK    1  A    between atoms: C_5  and  C_6
REMARK    2  A    between atoms: C_6  and  N_7
REMARK    3  A    between atoms: N_7  and  C_8
REMARK    4  A    between atoms: C_8  and  C_9
REMARK    5  A    between atoms: C_9  and  C_10
REMARK                            x       y       z     vdW  Elec       q    Type
REMARK                         _______ _______ _______ _____ _____    ______ ____
ROOT
ATOM      1  C   UNL     1       2.758   5.477  20.105  0.00  0.00    +0.000 C 
ENDROOT
BRANCH   1   2
ATOM      2  N   UNL     1       1.870   6.434  20.771  0.00  0.00    +0.000 NA
ATOM      3  H   UNL     1       0.923   6.067  20.829  0.00  0.00    +0.000 HD
BRANCH   2   4
ATOM      4  C   UNL     1       1.851   7.767  20.167  0.00  0.00    +0.000 C 
BRANCH   4   9
ATOM      5 CL   UNL     1      -1.523  11.875  23.037  0.00  0.00    +0.000 Cl
ATOM      6  C   UNL     1      -0.608  10.683  22.203  0.00  0.00    +0.000 A 
ATOM      7  C   UNL     1      -0.495  10.738  20.820  0.00  0.00    +0.000 A 
ATOM      8  C   UNL     1       0.281   9.792  20.148  0.00  0.00    +0.000 A 
ATOM      9  C   UNL     1       0.968   8.792  20.855  0.00  0.00    +0.000 A 
ATOM     10  C   UNL     1       0.810   8.728  22.244  0.00  0.00    +0.000 A 
ATOM     11  C   UNL     1       0.030   9.670  22.921  0.00  0.00    +0.000 A 
ENDBRANCH   4   9
ENDBRANCH   2   4
ENDBRANCH   1   2
BRANCH   1  12
ATOM     12  C   UNL     1       2.334   5.186  18.663  0.00  0.00    +0.000 C 
BRANCH  12  13
ATOM     13  C   UNL     1       3.466   5.374  17.688  0.00  0.00    +0.000 A 
ATOM     14  C   UNL     1       3.924   6.675  17.375  0.00  0.00    +0.000 A 
ATOM     15  C   UNL     1       4.996   6.864  16.501  0.00  0.00    +0.000 A 
ATOM     16  C   UNL     1       5.575   5.742  15.950  0.00  0.00    +0.000 A 
ATOM     17  C   UNL     1       5.121   4.476  16.234  0.00  0.00    +0.000 A 
ATOM     18  C   UNL     1       4.068   4.257  17.094  0.00  0.00    +0.000 A 
ATOM     19  O   UNL     1       5.827   3.511  15.589  0.00  0.00    +0.000 OA
ATOM     20  C   UNL     1       6.769   4.316  14.853  0.00  0.00    +0.000 C 
ATOM     21  O   UNL     1       6.629   5.732  15.092  0.00  0.00    +0.000 OA
ENDBRANCH  12  13
ENDBRANCH   1  12
TORSDOF 5
ENDMDL
MODEL 9
REMARK VINA RESULT:      -6.4      2.749      5.140
REMARK  Name = 
REMARK  5 active torsions:
REMARK  status: ('A' for Active; 'I' for Inactive)
REMARK    1  A    between atoms: C_5  and  C_6
REMARK    2  A    between atoms: C_6  and  N_7
REMARK    3  A    between atoms: N_7  and  C_8
REMARK    4  A    between atoms: C_8  and  C_9
REMARK    5  A    between atoms: C_9  and  C_10
REMARK                            x       y       z     vdW  Elec       q    Type
REMARK                         _______ _______ _______ _____ _____    ______ ____
ROOT
ATOM      1  C   UNL     1       5.542   5.494  17.648  0.00  0.00    +0.000 C 
ENDROOT
BRANCH   1   2
ATOM      2  N   UNL     1       5.666   4.136  17.110  0.00  0.00    +0.000 NA
ATOM      3  H   UNL     1       6.224   4.135  16.259  0.00  0.00    +0.000 HD
BRANCH   2   4
ATOM      4  C   UNL     1       4.391   3.459  16.869  0.00  0.00    +0.000 C 
BRANCH   4   9
ATOM      5 CL   UNL     1       1.173   2.415  21.874  0.00  0.00    +0.000 Cl
ATOM      6  C   UNL     1       2.075   2.663  20.432  0.00  0.00    +0.000 A 
ATOM      7  C   UNL     1       1.415   2.899  19.233  0.00  0.00    +0.000 A 
ATOM      8  C   UNL     1       2.151   3.139  18.072  0.00  0.00    +0.000 A 
ATOM      9  C   UNL     1       3.555   3.166  18.101  0.00  0.00    +0.000 A 
ATOM     10  C   UNL     1       4.202   2.887  19.309  0.00  0.00    +0.000 A 
ATOM     11  C   UNL     1       3.470   2.641  20.475  0.00  0.00    +0.000 A 
ENDBRANCH   4   9
ENDBRANCH   2   4
ENDBRANCH   1   2
BRANCH   1  12
ATOM     12  C   UNL     1       4.490   6.326  16.909  0.00  0.00    +0.000 C 
BRANCH  12  13
ATOM     13  C   UNL     1       3.505   6.964  17.852  0.00  0.00    +0.000 A 
ATOM     14  C   UNL     1       3.223   6.358  19.099  0.00  0.00    +0.000 A 
ATOM     15  C   UNL     1       2.339   6.956  19.999  0.00  0.00    +0.000 A 
ATOM     16  C   UNL     1       1.747   8.142  19.621  0.00  0.00    +0.000 A 
ATOM     17  C   UNL     1       2.002   8.724  18.402  0.00  0.00    +0.000 A 
ATOM     18  C   UNL     1       2.870   8.161  17.494  0.00  0.00    +0.000 A 
ATOM     19  O   UNL     1       1.319   9.886  18.225  0.00  0.00    +0.000 OA
ATOM     20  C   UNL     1       0.593   9.960  19.468  0.00  0.00    +0.000 C 
ATOM     21  O   UNL     1       0.874   8.868  20.367  0.00  0.00    +0.000 OA
ENDBRANCH  12  13
ENDBRANCH   1  12
TORSDOF 5
ENDMDL
