MODEL 1
REMARK VINA RESULT:      -7.6      0.000      0.000
REMARK  Name = 
REMARK  8 active torsions:
REMARK  status: ('A' for Active; 'I' for Inactive)
REMARK    1  A    between atoms: C_1  and  C_2
REMARK    2  A    between atoms: C_4  and  C_5
REMARK    3  A    between atoms: C_11  and  C_12
REMARK    4  A    between atoms: N_15  and  C_16
REMARK    5  A    between atoms: C_16  and  C_17
REMARK    6  A    between atoms: C_16  and  C_18
REMARK    7  A    between atoms: C_20  and  C_21
REMARK    8  A    between atoms: C_21  and  O_23
REMARK                            x       y       z     vdW  Elec       q    Type
REMARK                         _______ _______ _______ _____ _____    ______ ____
ROOT
ATOM      1  C   UNL     1       2.018   7.036  19.638  0.00  0.00    +0.000 A 
ATOM      2  C   UNL     1       2.255   7.657  18.407  0.00  0.00    +0.000 A 
ATOM      3  C   UNL     1       1.975   9.016  18.191  0.00  0.00    +0.000 A 
ATOM      4  C   UNL     1       1.428   9.760  19.251  0.00  0.00    +0.000 A 
ATOM      5  C   UNL     1       1.166   9.166  20.491  0.00  0.00    +0.000 A 
ATOM      6  C   UNL     1       1.459   7.798  20.676  0.00  0.00    +0.000 A 
ATOM      7  C   UNL     1       0.613  10.165  21.336  0.00  0.00    +0.000 A 
ATOM      8  C   UNL     1       0.552  11.334  20.615  0.00  0.00    +0.000 A 
ATOM      9  N   UNL     1       1.040  11.086  19.351  0.00  0.00    +0.000 N 
ENDROOT
BRANCH   1  13
ATOM     10  C   UNL     1       1.817   2.526  21.606  0.00  0.00    +0.000 C 
ATOM     11  C   UNL     1       2.308   3.537  20.632  0.00  0.00    +0.000 A 
ATOM     12  N   UNL     1       1.782   4.820  20.709  0.00  0.00    +0.000 NA
ATOM     13  C   UNL     1       2.336   5.609  19.812  0.00  0.00    +0.000 A 
ATOM     14  S   UNL     1       3.468   4.825  18.782  0.00  0.00    +0.000 S 
ATOM     15  C   UNL     1       3.251   3.355  19.631  0.00  0.00    +0.000 A 
BRANCH  15  16
ATOM     16  C   UNL     1       3.982   2.156  19.285  0.00  0.00    +0.000 C 
ATOM     17  O   UNL     1       3.660   1.351  18.423  0.00  0.00    +0.000 OA
BRANCH  16  18
ATOM     18  O   UNL     1       5.110   1.982  20.026  0.00  0.00    +0.000 OA
ATOM     19  H   UNL     1       4.912   1.799  20.967  0.00  0.00    +0.000 HD
ENDBRANCH  16  18
ENDBRANCH  15  16
ENDBRANCH   1  13
BRANCH   9  20
ATOM     20  C   UNL     1       1.092  12.093  18.287  0.00  0.00    +0.000 C 
ATOM     21  C   UNL     1       0.018  13.165  18.481  0.00  0.00    +0.000 C 
ATOM     22  C   UNL     1       2.480  12.725  18.173  0.00  0.00    +0.000 C 
ENDBRANCH   9  20
BRANCH   7  23
ATOM     23  C   UNL     1       0.186  10.005  22.689  0.00  0.00    +0.000 C 
ATOM     24  N   UNL     1      -0.146   9.886  23.795  0.00  0.00    +0.000 NA
ENDBRANCH   7  23
TORSDOF 5
ENDMDL
MODEL 2
REMARK VINA RESULT:      -7.5      1.465      2.061
REMARK  Name = 
REMARK  8 active torsions:
REMARK  status: ('A' for Active; 'I' for Inactive)
REMARK    1  A    between atoms: C_1  and  C_2
REMARK    2  A    between atoms: C_4  and  C_5
REMARK    3  A    between atoms: C_11  and  C_12
REMARK    4  A    between atoms: N_15  and  C_16
REMARK    5  A    between atoms: C_16  and  C_17
REMARK    6  A    between atoms: C_16  and  C_18
REMARK    7  A    between atoms: C_20  and  C_21
REMARK    8  A    between atoms: C_21  and  O_23
REMARK                            x       y       z     vdW  Elec       q    Type
REMARK                         _______ _______ _______ _____ _____    ______ ____
ROOT
ATOM      1  C   UNL     1       2.276   7.512  19.101  0.00  0.00    +0.000 A 
ATOM      2  C   UNL     1       2.002   8.171  17.897  0.00  0.00    +0.000 A 
ATOM      3  C   UNL     1       1.247   9.353  17.849  0.00  0.00    +0.000 A 
ATOM      4  C   UNL     1       0.745   9.872  19.055  0.00  0.00    +0.000 A 
ATOM      5  C   UNL     1       0.989   9.231  20.275  0.00  0.00    +0.000 A 
ATOM      6  C   UNL     1       1.753   8.045  20.290  0.00  0.00    +0.000 A 
ATOM      7  C   UNL     1       0.348   9.987  21.292  0.00  0.00    +0.000 A 
ATOM      8  C   UNL     1      -0.262  11.063  20.690  0.00  0.00    +0.000 A 
ATOM      9  N   UNL     1      -0.026  10.989  19.336  0.00  0.00    +0.000 N 
ENDROOT
BRANCH   1  13
ATOM     10  C   UNL     1       6.131   4.586  18.192  0.00  0.00    +0.000 C 
ATOM     11  C   UNL     1       4.777   4.881  18.732  0.00  0.00    +0.000 A 
ATOM     12  N   UNL     1       4.298   6.179  18.606  0.00  0.00    +0.000 NA
ATOM     13  C   UNL     1       3.079   6.279  19.095  0.00  0.00    +0.000 A 
ATOM     14  S   UNL     1       2.477   4.830  19.798  0.00  0.00    +0.000 S 
ATOM     15  C   UNL     1       3.911   4.000  19.363  0.00  0.00    +0.000 A 
BRANCH  15  16
ATOM     16  C   UNL     1       4.100   2.596  19.652  0.00  0.00    +0.000 C 
ATOM     17  O   UNL     1       4.936   2.134  20.415  0.00  0.00    +0.000 OA
BRANCH  16  18
ATOM     18  O   UNL     1       3.237   1.788  18.978  0.00  0.00    +0.000 OA
ATOM     19  H   UNL     1       2.808   2.246  18.227  0.00  0.00    +0.000 HD
ENDBRANCH  16  18
ENDBRANCH  15  16
ENDBRANCH   1  13
BRANCH   9  20
ATOM     20  C   UNL     1      -0.558  11.948  18.363  0.00  0.00    +0.000 C 
ATOM     21  C   UNL     1      -2.040  11.690  18.078  0.00  0.00    +0.000 C 
ATOM     22  C   UNL     1      -0.332  13.394  18.811  0.00  0.00    +0.000 C 
ENDBRANCH   9  20
BRANCH   7  23
ATOM     23  C   UNL     1       0.323   9.699  22.691  0.00  0.00    +0.000 C 
ATOM     24  N   UNL     1       0.315   9.481  23.830  0.00  0.00    +0.000 NA
ENDBRANCH   7  23
TORSDOF 5
ENDMDL
MODEL 3
REMARK VINA RESULT:      -7.3      4.140      7.537
REMARK  Name = 
REMARK  8 active torsions:
REMARK  status: ('A' for Active; 'I' for Inactive)
REMARK    1  A    between atoms: C_1  and  C_2
REMARK    2  A    between atoms: C_4  and  C_5
REMARK    3  A    between atoms: C_11  and  C_12
REMARK    4  A    between atoms: N_15  and  C_16
REMARK    5  A    between atoms: C_16  and  C_17
REMARK    6  A    between atoms: C_16  and  C_18
REMARK    7  A    between atoms: C_20  and  C_21
REMARK    8  A    between atoms: C_21  and  O_23
REMARK                            x       y       z     vdW  Elec       q    Type
REMARK                         _______ _______ _______ _____ _____    ______ ____
ROOT
ATOM      1  C   UNL     1       2.421   7.506  18.734  0.00  0.00    +0.000 A 
ATOM      2  C   UNL     1       3.403   8.030  17.885  0.00  0.00    +0.000 A 
ATOM      3  C   UNL     1       4.248   7.206  17.125  0.00  0.00    +0.000 A 
ATOM      4  C   UNL     1       4.100   5.813  17.240  0.00  0.00    +0.000 A 
ATOM      5  C   UNL     1       3.137   5.256  18.089  0.00  0.00    +0.000 A 
ATOM      6  C   UNL     1       2.302   6.111  18.840  0.00  0.00    +0.000 A 
ATOM      7  C   UNL     1       3.245   3.843  17.990  0.00  0.00    +0.000 A 
ATOM      8  C   UNL     1       4.249   3.563  17.094  0.00  0.00    +0.000 A 
ATOM      9  N   UNL     1       4.771   4.756  16.645  0.00  0.00    +0.000 N 
ENDROOT
BRANCH   1  13
ATOM     10  C   UNL     1      -0.614  11.292  19.573  0.00  0.00    +0.000 C 
ATOM     11  C   UNL     1       0.177  10.099  19.979  0.00  0.00    +0.000 A 
ATOM     12  N   UNL     1       0.879   9.421  18.991  0.00  0.00    +0.000 NA
ATOM     13  C   UNL     1       1.557   8.415  19.504  0.00  0.00    +0.000 A 
ATOM     14  S   UNL     1       1.323   8.191  21.193  0.00  0.00    +0.000 S 
ATOM     15  C   UNL     1       0.303   9.565  21.253  0.00  0.00    +0.000 A 
BRANCH  15  16
ATOM     16  C   UNL     1      -0.292  10.023  22.489  0.00  0.00    +0.000 C 
ATOM     17  O   UNL     1      -0.269  11.173  22.904  0.00  0.00    +0.000 OA
BRANCH  16  18
ATOM     18  O   UNL     1      -0.907   9.032  23.188  0.00  0.00    +0.000 OA
ATOM     19  H   UNL     1      -1.867   9.191  23.293  0.00  0.00    +0.000 HD
ENDBRANCH  16  18
ENDBRANCH  15  16
ENDBRANCH   1  13
BRANCH   9  20
ATOM     20  C   UNL     1       5.891   4.852  15.705  0.00  0.00    +0.000 C 
ATOM     21  C   UNL     1       7.220   4.514  16.384  0.00  0.00    +0.000 C 
ATOM     22  C   UNL     1       5.671   3.976  14.469  0.00  0.00    +0.000 C 
ENDBRANCH   9  20
BRANCH   7  23
ATOM     23  C   UNL     1       2.466   2.871  18.689  0.00  0.00    +0.000 C 
ATOM     24  N   UNL     1       1.821   2.080  19.242  0.00  0.00    +0.000 NA
ENDBRANCH   7  23
TORSDOF 5
ENDMDL
MODEL 4
REMARK VINA RESULT:      -7.2      1.818      2.190
REMARK  Name = 
REMARK  8 active torsions:
REMARK  status: ('A' for Active; 'I' for Inactive)
REMARK    1  A    between atoms: C_1  and  C_2
REMARK    2  A    between atoms: C_4  and  C_5
REMARK    3  A    between atoms: C_11  and  C_12
REMARK    4  A    between atoms: N_15  and  C_16
REMARK    5  A    between atoms: C_16  and  C_17
REMARK    6  A    between atoms: C_16  and  C_18
REMARK    7  A    between atoms: C_20  and  C_21
REMARK    8  A    between atoms: C_21  and  O_23
REMARK                            x       y       z     vdW  Elec       q    Type
REMARK                         _______ _______ _______ _____ _____    ______ ____
ROOT
ATOM      1  C   UNL     1       2.209   7.758  18.931  0.00  0.00    +0.000 A 
ATOM      2  C   UNL     1       1.817   8.421  17.763  0.00  0.00    +0.000 A 
ATOM      3  C   UNL     1       0.972   9.542  17.790  0.00  0.00    +0.000 A 
ATOM      4  C   UNL     1       0.504   9.994  19.036  0.00  0.00    +0.000 A 
ATOM      5  C   UNL     1       0.866   9.345  20.222  0.00  0.00    +0.000 A 
ATOM      6  C   UNL     1       1.717   8.221  20.162  0.00  0.00    +0.000 A 
ATOM      7  C   UNL     1       0.230  10.026  21.294  0.00  0.00    +0.000 A 
ATOM      8  C   UNL     1      -0.492  11.065  20.758  0.00  0.00    +0.000 A 
ATOM      9  N   UNL     1      -0.332  11.041  19.390  0.00  0.00    +0.000 N 
ENDROOT
BRANCH   1  13
ATOM     10  C   UNL     1       3.918   3.243  19.908  0.00  0.00    +0.000 C 
ATOM     11  C   UNL     1       3.947   4.563  19.220  0.00  0.00    +0.000 A 
ATOM     12  N   UNL     1       2.923   5.459  19.497  0.00  0.00    +0.000 NA
ATOM     13  C   UNL     1       3.101   6.591  18.846  0.00  0.00    +0.000 A 
ATOM     14  S   UNL     1       4.475   6.603  17.812  0.00  0.00    +0.000 S 
ATOM     15  C   UNL     1       4.892   5.021  18.315  0.00  0.00    +0.000 A 
BRANCH  15  16
ATOM     16  C   UNL     1       6.069   4.345  17.816  0.00  0.00    +0.000 C 
ATOM     17  O   UNL     1       7.191   4.427  18.294  0.00  0.00    +0.000 OA
BRANCH  16  18
ATOM     18  O   UNL     1       5.823   3.573  16.723  0.00  0.00    +0.000 OA
ATOM     19  H   UNL     1       4.983   3.812  16.280  0.00  0.00    +0.000 HD
ENDBRANCH  16  18
ENDBRANCH  15  16
ENDBRANCH   1  13
BRANCH   9  20
ATOM     20  C   UNL     1      -0.990  11.979  18.476  0.00  0.00    +0.000 C 
ATOM     21  C   UNL     1      -2.514  11.859  18.557  0.00  0.00    +0.000 C 
ATOM     22  C   UNL     1      -0.542  13.420  18.723  0.00  0.00    +0.000 C 
ENDBRANCH   9  20
BRANCH   7  23
ATOM     23  C   UNL     1       0.309   9.705  22.684  0.00  0.00    +0.000 C 
ATOM     24  N   UNL     1       0.389   9.456  23.814  0.00  0.00    +0.000 NA
ENDBRANCH   7  23
TORSDOF 5
ENDMDL
MODEL 5
REMARK VINA RESULT:      -7.2      4.428      7.674
REMARK  Name = 
REMARK  8 active torsions:
REMARK  status: ('A' for Active; 'I' for Inactive)
REMARK    1  A    between atoms: C_1  and  C_2
REMARK    2  A    between atoms: C_4  and  C_5
REMARK    3  A    between atoms: C_11  and  C_12
REMARK    4  A    between atoms: N_15  and  C_16
REMARK    5  A    between atoms: C_16  and  C_17
REMARK    6  A    between atoms: C_16  and  C_18
REMARK    7  A    between atoms: C_20  and  C_21
REMARK    8  A    between atoms: C_21  and  O_23
REMARK                            x       y       z     vdW  Elec       q    Type
REMARK                         _______ _______ _______ _____ _____    ______ ____
ROOT
ATOM      1  C   UNL     1       2.682   7.150  18.448  0.00  0.00    +0.000 A 
ATOM      2  C   UNL     1       3.750   7.489  17.611  0.00  0.00    +0.000 A 
ATOM      3  C   UNL     1       4.530   6.516  16.966  0.00  0.00    +0.000 A 
ATOM      4  C   UNL     1       4.224   5.162  17.187  0.00  0.00    +0.000 A 
ATOM      5  C   UNL     1       3.170   4.788  18.029  0.00  0.00    +0.000 A 
ATOM      6  C   UNL     1       2.404   5.790  18.663  0.00  0.00    +0.000 A 
ATOM      7  C   UNL     1       3.124   3.369  18.053  0.00  0.00    +0.000 A 
ATOM      8  C   UNL     1       4.127   2.906  17.235  0.00  0.00    +0.000 A 
ATOM      9  N   UNL     1       4.797   3.991  16.717  0.00  0.00    +0.000 N 
ENDROOT
BRANCH   1  13
ATOM     10  C   UNL     1       0.287   9.495  22.057  0.00  0.00    +0.000 C 
ATOM     11  C   UNL     1       0.791   9.347  20.664  0.00  0.00    +0.000 A 
ATOM     12  N   UNL     1       1.550   8.222  20.367  0.00  0.00    +0.000 NA
ATOM     13  C   UNL     1       1.892   8.210  19.095  0.00  0.00    +0.000 A 
ATOM     14  S   UNL     1       1.378   9.592  18.210  0.00  0.00    +0.000 S 
ATOM     15  C   UNL     1       0.594  10.214  19.600  0.00  0.00    +0.000 A 
BRANCH  15  16
ATOM     16  C   UNL     1      -0.139  11.460  19.572  0.00  0.00    +0.000 C 
ATOM     17  O   UNL     1       0.357  12.576  19.627  0.00  0.00    +0.000 OA
BRANCH  16  18
ATOM     18  O   UNL     1      -1.485  11.290  19.475  0.00  0.00    +0.000 OA
ATOM     19  H   UNL     1      -1.892  11.900  18.827  0.00  0.00    +0.000 HD
ENDBRANCH  16  18
ENDBRANCH  15  16
ENDBRANCH   1  13
BRANCH   9  20
ATOM     20  C   UNL     1       5.959   3.884  15.830  0.00  0.00    +0.000 C 
ATOM     21  C   UNL     1       5.648   4.431  14.435  0.00  0.00    +0.000 C 
ATOM     22  C   UNL     1       7.190   4.572  16.424  0.00  0.00    +0.000 C 
ENDBRANCH   9  20
BRANCH   7  23
ATOM     23  C   UNL     1       2.213   2.551  18.789  0.00  0.00    +0.000 C 
ATOM     24  N   UNL     1       1.471   1.901  19.399  0.00  0.00    +0.000 NA
ENDBRANCH   7  23
TORSDOF 5
ENDMDL
MODEL 6
REMARK VINA RESULT:      -7.1      1.408      1.849
REMARK  Name = 
REMARK  8 active torsions:
REMARK  status: ('A' for Active; 'I' for Inactive)
REMARK    1  A    between atoms: C_1  and  C_2
REMARK    2  A    between atoms: C_4  and  C_5
REMARK    3  A    between atoms: C_11  and  C_12
REMARK    4  A    between atoms: N_15  and  C_16
REMARK    5  A    between atoms: C_16  and  C_17
REMARK    6  A    between atoms: C_16  and  C_18
REMARK    7  A    between atoms: C_20  and  C_21
REMARK    8  A    between atoms: C_21  and  O_23
REMARK                            x       y       z     vdW  Elec       q    Type
REMARK                         _______ _______ _______ _____ _____    ______ ____
ROOT
ATOM      1  C   UNL     1       2.201   7.762  18.892  0.00  0.00    +0.000 A 
ATOM      2  C   UNL     1       2.108   8.608  17.780  0.00  0.00    +0.000 A 
ATOM      3  C   UNL     1       1.561   9.897  17.868  0.00  0.00    +0.000 A 
ATOM      4  C   UNL     1       1.085  10.335  19.116  0.00  0.00    +0.000 A 
ATOM      5  C   UNL     1       1.151   9.510  20.245  0.00  0.00    +0.000 A 
ATOM      6  C   UNL     1       1.706   8.219  20.124  0.00  0.00    +0.000 A 
ATOM      7  C   UNL     1       0.587  10.228  21.333  0.00  0.00    +0.000 A 
ATOM      8  C   UNL     1       0.198  11.460  20.864  0.00  0.00    +0.000 A 
ATOM      9  N   UNL     1       0.494  11.522  19.520  0.00  0.00    +0.000 N 
ENDROOT
BRANCH   1  13
ATOM     10  C   UNL     1       4.786   4.118  16.819  0.00  0.00    +0.000 C 
ATOM     11  C   UNL     1       3.939   4.716  17.887  0.00  0.00    +0.000 A 
ATOM     12  N   UNL     1       3.562   6.045  17.747  0.00  0.00    +0.000 NA
ATOM     13  C   UNL     1       2.789   6.421  18.745  0.00  0.00    +0.000 A 
ATOM     14  S   UNL     1       2.537   5.211  19.940  0.00  0.00    +0.000 S 
ATOM     15  C   UNL     1       3.467   4.095  19.034  0.00  0.00    +0.000 A 
BRANCH  15  16
ATOM     16  C   UNL     1       3.674   2.734  19.477  0.00  0.00    +0.000 C 
ATOM     17  O   UNL     1       2.810   1.873  19.556  0.00  0.00    +0.000 OA
BRANCH  16  18
ATOM     18  O   UNL     1       4.966   2.471  19.815  0.00  0.00    +0.000 OA
ATOM     19  H   UNL     1       5.603   2.850  19.177  0.00  0.00    +0.000 HD
ENDBRANCH  16  18
ENDBRANCH  15  16
ENDBRANCH   1  13
BRANCH   9  20
ATOM     20  C   UNL     1       0.183  12.675  18.671  0.00  0.00    +0.000 C 
ATOM     21  C   UNL     1      -0.991  13.481  19.232  0.00  0.00    +0.000 C 
ATOM     22  C   UNL     1       1.407  13.569  18.458  0.00  0.00    +0.000 C 
ENDBRANCH   9  20
BRANCH   7  23
ATOM     23  C   UNL     1       0.437   9.771  22.678  0.00  0.00    +0.000 C 
ATOM     24  N   UNL     1       0.330   9.388  23.768  0.00  0.00    +0.000 NA
ENDBRANCH   7  23
TORSDOF 5
ENDMDL
MODEL 7
REMARK VINA RESULT:      -7.1      4.025      7.446
REMARK  Name = 
REMARK  8 active torsions:
REMARK  status: ('A' for Active; 'I' for Inactive)
REMARK    1  A    between atoms: C_1  and  C_2
REMARK    2  A    between atoms: C_4  and  C_5
REMARK    3  A    between atoms: C_11  and  C_12
REMARK    4  A    between atoms: N_15  and  C_16
REMARK    5  A    between atoms: C_16  and  C_17
REMARK    6  A    between atoms: C_16  and  C_18
REMARK    7  A    between atoms: C_20  and  C_21
REMARK    8  A    between atoms: C_21  and  O_23
REMARK                            x       y       z     vdW  Elec       q    Type
REMARK                         _______ _______ _______ _____ _____    ______ ____
ROOT
ATOM      1  C   UNL     1       2.296   7.414  19.405  0.00  0.00    +0.000 A 
ATOM      2  C   UNL     1       3.056   7.649  18.254  0.00  0.00    +0.000 A 
ATOM      3  C   UNL     1       3.871   6.659  17.683  0.00  0.00    +0.000 A 
ATOM      4  C   UNL     1       3.924   5.400  18.305  0.00  0.00    +0.000 A 
ATOM      5  C   UNL     1       3.187   5.135  19.465  0.00  0.00    +0.000 A 
ATOM      6  C   UNL     1       2.377   6.152  20.015  0.00  0.00    +0.000 A 
ATOM      7  C   UNL     1       3.460   3.795  19.850  0.00  0.00    +0.000 A 
ATOM      8  C   UNL     1       4.338   3.269  18.932  0.00  0.00    +0.000 A 
ATOM      9  N   UNL     1       4.624   4.242  18.001  0.00  0.00    +0.000 N 
ENDROOT
BRANCH   1  13
ATOM     10  C   UNL     1      -0.542  11.438  19.414  0.00  0.00    +0.000 C 
ATOM     11  C   UNL     1       0.157  10.295  20.061  0.00  0.00    +0.000 A 
ATOM     12  N   UNL     1       0.862   9.421  19.245  0.00  0.00    +0.000 NA
ATOM     13  C   UNL     1       1.454   8.486  19.959  0.00  0.00    +0.000 A 
ATOM     14  S   UNL     1       1.130   8.573  21.646  0.00  0.00    +0.000 S 
ATOM     15  C   UNL     1       0.193   9.986  21.413  0.00  0.00    +0.000 A 
BRANCH  15  16
ATOM     16  C   UNL     1      -0.429  10.683  22.517  0.00  0.00    +0.000 C 
ATOM     17  O   UNL     1      -0.370  11.886  22.722  0.00  0.00    +0.000 OA
BRANCH  16  18
ATOM     18  O   UNL     1      -1.119   9.858  23.352  0.00  0.00    +0.000 OA
ATOM     19  H   UNL     1      -0.933   8.913  23.179  0.00  0.00    +0.000 HD
ENDBRANCH  16  18
ENDBRANCH  15  16
ENDBRANCH   1  13
BRANCH   9  20
ATOM     20  C   UNL     1       5.560   4.056  16.889  0.00  0.00    +0.000 C 
ATOM     21  C   UNL     1       4.942   4.496  15.560  0.00  0.00    +0.000 C 
ATOM     22  C   UNL     1       6.887   4.775  17.139  0.00  0.00    +0.000 C 
ENDBRANCH   9  20
BRANCH   7  23
ATOM     23  C   UNL     1       2.933   3.102  20.982  0.00  0.00    +0.000 C 
ATOM     24  N   UNL     1       2.520   2.543  21.912  0.00  0.00    +0.000 NA
ENDBRANCH   7  23
TORSDOF 5
ENDMDL
MODEL 8
REMARK VINA RESULT:      -7.0      4.397      8.141
REMARK  Name = 
REMARK  8 active torsions:
REMARK  status: ('A' for Active; 'I' for Inactive)
REMARK    1  A    between atoms: C_1  and  C_2
REMARK    2  A    between atoms: C_4  and  C_5
REMARK    3  A    between atoms: C_11  and  C_12
REMARK    4  A    between atoms: N_15  and  C_16
REMARK    5  A    between atoms: C_16  and  C_17
REMARK    6  A    between atoms: C_16  and  C_18
REMARK    7  A    between atoms: C_20  and  C_21
REMARK    8  A    between atoms: C_21  and  O_23
REMARK                            x       y       z     vdW  Elec       q    Type
REMARK                         _______ _______ _______ _____ _____    ______ ____
ROOT
ATOM      1  C   UNL     1       1.707   8.111  19.630  0.00  0.00    +0.000 A 
ATOM      2  C   UNL     1       1.307   7.177  20.592  0.00  0.00    +0.000 A 
ATOM      3  C   UNL     1       1.802   5.863  20.607  0.00  0.00    +0.000 A 
ATOM      4  C   UNL     1       2.719   5.485  19.611  0.00  0.00    +0.000 A 
ATOM      5  C   UNL     1       3.130   6.391  18.626  0.00  0.00    +0.000 A 
ATOM      6  C   UNL     1       2.614   7.704  18.638  0.00  0.00    +0.000 A 
ATOM      7  C   UNL     1       4.039   5.711  17.773  0.00  0.00    +0.000 A 
ATOM      8  C   UNL     1       4.173   4.427  18.243  0.00  0.00    +0.000 A 
ATOM      9  N   UNL     1       3.368   4.289  19.352  0.00  0.00    +0.000 N 
ENDROOT
BRANCH   1  13
ATOM     10  C   UNL     1      -0.540  12.079  21.489  0.00  0.00    +0.000 C 
ATOM     11  C   UNL     1       0.163  11.321  20.419  0.00  0.00    +0.000 A 
ATOM     12  N   UNL     1       0.591  10.033  20.713  0.00  0.00    +0.000 NA
ATOM     13  C   UNL     1       1.161   9.477  19.664  0.00  0.00    +0.000 A 
ATOM     14  S   UNL     1       1.274  10.507  18.291  0.00  0.00    +0.000 S 
ATOM     15  C   UNL     1       0.452  11.751  19.133  0.00  0.00    +0.000 A 
BRANCH  15  16
ATOM     16  C   UNL     1       0.150  13.023  18.515  0.00  0.00    +0.000 C 
ATOM     17  O   UNL     1       0.751  14.069  18.711  0.00  0.00    +0.000 OA
BRANCH  16  18
ATOM     18  O   UNL     1      -0.906  12.966  17.657  0.00  0.00    +0.000 OA
ATOM     19  H   UNL     1      -1.665  13.502  17.965  0.00  0.00    +0.000 HD
ENDBRANCH  16  18
ENDBRANCH  15  16
ENDBRANCH   1  13
BRANCH   9  20
ATOM     20  C   UNL     1       3.221   3.037  20.100  0.00  0.00    +0.000 C 
ATOM     21  C   UNL     1       2.005   2.241  19.621  0.00  0.00    +0.000 C 
ATOM     22  C   UNL     1       4.490   2.185  20.037  0.00  0.00    +0.000 C 
ENDBRANCH   9  20
BRANCH   7  23
ATOM     23  C   UNL     1       4.703   6.245  16.626  0.00  0.00    +0.000 C 
ATOM     24  N   UNL     1       5.227   6.672  15.682  0.00  0.00    +0.000 NA
ENDBRANCH   7  23
TORSDOF 5
ENDMDL
MODEL 9
REMARK VINA RESULT:      -7.0      1.893      2.492
REMARK  Name = 
REMARK  8 active torsions:
REMARK  status: ('A' for Active; 'I' for Inactive)
REMARK    1  A    between atoms: C_1  and  C_2
REMARK    2  A    between atoms: C_4  and  C_5
REMARK    3  A    between atoms: C_11  and  C_12
REMARK    4  A    between atoms: N_15  and  C_16
REMARK    5  A    between atoms: C_16  and  C_17
REMARK    6  A    between atoms: C_16  and  C_18
REMARK    7  A    between atoms: C_20  and  C_21
REMARK    8  A    between atoms: C_21  and  O_23
REMARK                            x       y       z     vdW  Elec       q    Type
REMARK                         _______ _______ _______ _____ _____    ______ ____
ROOT
ATOM      1  C   UNL     1       1.889   8.145  18.813  0.00  0.00    +0.000 A 
ATOM      2  C   UNL     1       1.370   8.899  17.754  0.00  0.00    +0.000 A 
ATOM      3  C   UNL     1       0.519   9.994  17.966  0.00  0.00    +0.000 A 
ATOM      4  C   UNL     1       0.174  10.325  19.288  0.00  0.00    +0.000 A 
ATOM      5  C   UNL     1       0.665   9.584  20.369  0.00  0.00    +0.000 A 
ATOM      6  C   UNL     1       1.520   8.488  20.124  0.00  0.00    +0.000 A 
ATOM      7  C   UNL     1       0.133  10.155  21.556  0.00  0.00    +0.000 A 
ATOM      8  C   UNL     1      -0.654  11.220  21.190  0.00  0.00    +0.000 A 
ATOM      9  N   UNL     1      -0.634  11.319  19.816  0.00  0.00    +0.000 N 
ENDROOT
BRANCH   1  13
ATOM     10  C   UNL     1       5.487   5.608  16.605  0.00  0.00    +0.000 C 
ATOM     11  C   UNL     1       4.395   5.787  17.600  0.00  0.00    +0.000 A 
ATOM     12  N   UNL     1       3.744   7.013  17.634  0.00  0.00    +0.000 NA
ATOM     13  C   UNL     1       2.784   7.010  18.535  0.00  0.00    +0.000 A 
ATOM     14  S   UNL     1       2.663   5.550  19.437  0.00  0.00    +0.000 S 
ATOM     15  C   UNL     1       3.934   4.858  18.521  0.00  0.00    +0.000 A 
BRANCH  15  16
ATOM     16  C   UNL     1       4.389   3.503  18.746  0.00  0.00    +0.000 C 
ATOM     17  O   UNL     1       3.765   2.489  18.471  0.00  0.00    +0.000 OA
BRANCH  16  18
ATOM     18  O   UNL     1       5.624   3.440  19.313  0.00  0.00    +0.000 OA
ATOM     19  H   UNL     1       6.143   4.257  19.169  0.00  0.00    +0.000 HD
ENDBRANCH  16  18
ENDBRANCH  15  16
ENDBRANCH   1  13
BRANCH   9  20
ATOM     20  C   UNL     1      -1.395  12.317  19.060  0.00  0.00    +0.000 C 
ATOM     21  C   UNL     1      -2.587  12.838  19.867  0.00  0.00    +0.000 C 
ATOM     22  C   UNL     1      -0.507  13.472  18.593  0.00  0.00    +0.000 C 
ENDBRANCH   9  20
BRANCH   7  23
ATOM     23  C   UNL     1       0.359   9.716  22.896  0.00  0.00    +0.000 C 
ATOM     24  N   UNL     1       0.548   9.342  23.979  0.00  0.00    +0.000 NA
ENDBRANCH   7  23
TORSDOF 5
ENDMDL
