MODEL 1
REMARK VINA RESULT:      -6.2      0.000      0.000
REMARK  Name = 
REMARK  5 active torsions:
REMARK  status: ('A' for Active; 'I' for Inactive)
REMARK    1  A    between atoms: C_1  and  O_2
REMARK    2  A    between atoms: O_2  and  C_3
REMARK    3  A    between atoms: C_6  and  N_7
REMARK    4  A    between atoms: N_16  and  C_17
REMARK    5  A    between atoms: C_17  and  C_18
REMARK                            x       y       z     vdW  Elec       q    Type
REMARK                         _______ _______ _______ _____ _____    ______ ____
ROOT
ATOM      1  N   UNL     1       5.527  15.128  21.957  0.00  0.00    +0.000 N 
ATOM      2  C   UNL     1       4.310  14.950  21.305  0.00  0.00    +0.000 C 
ATOM      3  O   UNL     1       3.619  13.938  21.460  0.00  0.00    +0.000 OA
ATOM      4  C   UNL     1       3.708  16.147  20.606  0.00  0.00    +0.000 C 
ATOM      5  C   UNL     1       4.640  17.014  19.804  0.00  0.00    +0.000 C 
ATOM      6  S   UNL     1       6.049  17.546  20.797  0.00  0.00    +0.000 S 
ATOM      7  C   UNL     1       6.628  15.881  21.335  0.00  0.00    +0.000 C 
ATOM      8  C   UNL     1       7.168  15.099  20.072  0.00  0.00    +0.000 C 
ATOM      9  O   UNL     1       6.506  14.675  19.133  0.00  0.00    +0.000 OA
ATOM     10  N   UNL     1       8.554  14.976  20.208  0.00  0.00    +0.000 N 
ATOM     11  C   UNL     1       8.991  15.488  21.433  0.00  0.00    +0.000 A 
ATOM     12  C   UNL     1      10.274  15.486  21.950  0.00  0.00    +0.000 A 
ATOM     13  C   UNL     1      10.487  16.096  23.187  0.00  0.00    +0.000 A 
ATOM     14  C   UNL     1       9.427  16.717  23.869  0.00  0.00    +0.000 A 
ATOM     15  C   UNL     1       8.136  16.706  23.340  0.00  0.00    +0.000 A 
ATOM     16  C   UNL     1       7.917  16.058  22.128  0.00  0.00    +0.000 A 
ENDROOT
BRANCH   1  20
ATOM     17  C   UNL     1       5.791  13.707  25.948  0.00  0.00    +0.000 A 
ATOM     18  C   UNL     1       5.228  14.950  25.652  0.00  0.00    +0.000 A 
ATOM     19  C   UNL     1       5.128  15.394  24.330  0.00  0.00    +0.000 A 
ATOM     20  C   UNL     1       5.620  14.611  23.280  0.00  0.00    +0.000 A 
ATOM     21  C   UNL     1       6.154  13.354  23.561  0.00  0.00    +0.000 A 
ATOM     22  C   UNL     1       6.222  12.892  24.888  0.00  0.00    +0.000 A 
ATOM     23 CL   UNL     1       6.761  11.262  25.094  0.00  0.00    +0.000 Cl
BRANCH  17  25
ATOM     24  C   UNL     1       4.580  12.824  27.796  0.00  0.00    +0.000 C 
ATOM     25  O   UNL     1       5.770  13.411  27.284  0.00  0.00    +0.000 OA
ENDBRANCH  17  25
ENDBRANCH   1  20
BRANCH  10  26
ATOM     26  C   UNL     1       9.408  14.406  19.190  0.00  0.00    +0.000 C 
BRANCH  26  27
ATOM     27  C   UNL     1       9.358  12.898  19.161  0.00  0.00    +0.000 A 
ATOM     28  C   UNL     1       9.078  12.224  17.960  0.00  0.00    +0.000 A 
ATOM     29  C   UNL     1       8.991  10.834  17.933  0.00  0.00    +0.000 A 
ATOM     30  C   UNL     1       9.182  10.116  19.106  0.00  0.00    +0.000 A 
ATOM     31  F   UNL     1       9.077   8.781  19.086  0.00  0.00    +0.000 F 
ATOM     32  C   UNL     1       9.484  10.761  20.300  0.00  0.00    +0.000 A 
ATOM     33  C   UNL     1       9.577  12.152  20.328  0.00  0.00    +0.000 A 
ENDBRANCH  26  27
ENDBRANCH  10  26
TORSDOF 4
ENDMDL
MODEL 2
REMARK VINA RESULT:      -6.2      7.266      9.698
REMARK  Name = 
REMARK  5 active torsions:
REMARK  status: ('A' for Active; 'I' for Inactive)
REMARK    1  A    between atoms: C_1  and  O_2
REMARK    2  A    between atoms: O_2  and  C_3
REMARK    3  A    between atoms: C_6  and  N_7
REMARK    4  A    between atoms: N_16  and  C_17
REMARK    5  A    between atoms: C_17  and  C_18
REMARK                            x       y       z     vdW  Elec       q    Type
REMARK                         _______ _______ _______ _____ _____    ______ ____
ROOT
ATOM      1  N   UNL     1      -2.815  14.939  21.290  0.00  0.00    +0.000 N 
ATOM      2  C   UNL     1      -3.118  16.264  20.987  0.00  0.00    +0.000 C 
ATOM      3  O   UNL     1      -4.058  16.577  20.250  0.00  0.00    +0.000 OA
ATOM      4  C   UNL     1      -2.437  17.342  21.801  0.00  0.00    +0.000 C 
ATOM      5  C   UNL     1      -0.971  17.162  22.087  0.00  0.00    +0.000 C 
ATOM      6  S   UNL     1      -0.646  15.553  22.833  0.00  0.00    +0.000 S 
ATOM      7  C   UNL     1      -1.431  14.505  21.536  0.00  0.00    +0.000 C 
ATOM      8  C   UNL     1      -0.586  14.625  20.205  0.00  0.00    +0.000 C 
ATOM      9  O   UNL     1      -0.484  15.611  19.488  0.00  0.00    +0.000 OA
ATOM     10  N   UNL     1       0.040  13.394  19.987  0.00  0.00    +0.000 N 
ATOM     11  C   UNL     1      -0.350  12.450  20.940  0.00  0.00    +0.000 A 
ATOM     12  C   UNL     1       0.005  11.114  21.014  0.00  0.00    +0.000 A 
ATOM     13  C   UNL     1      -0.477  10.364  22.088  0.00  0.00    +0.000 A 
ATOM     14  C   UNL     1      -1.276  10.961  23.077  0.00  0.00    +0.000 A 
ATOM     15  C   UNL     1      -1.632  12.307  22.986  0.00  0.00    +0.000 A 
ATOM     16  C   UNL     1      -1.189  13.044  21.892  0.00  0.00    +0.000 A 
ENDROOT
BRANCH   1  20
ATOM     17  C   UNL     1      -6.112  12.279  21.555  0.00  0.00    +0.000 A 
ATOM     18  C   UNL     1      -5.291  12.314  20.424  0.00  0.00    +0.000 A 
ATOM     19  C   UNL     1      -4.196  13.180  20.362  0.00  0.00    +0.000 A 
ATOM     20  C   UNL     1      -3.920  14.051  21.422  0.00  0.00    +0.000 A 
ATOM     21  C   UNL     1      -4.713  14.001  22.568  0.00  0.00    +0.000 A 
ATOM     22  C   UNL     1      -5.794  13.104  22.645  0.00  0.00    +0.000 A 
ATOM     23 CL   UNL     1      -6.605  13.027  24.171  0.00  0.00    +0.000 Cl
BRANCH  17  25
ATOM     24  C   UNL     1      -7.238  10.654  20.229  0.00  0.00    +0.000 C 
ATOM     25  O   UNL     1      -7.109  11.345  21.466  0.00  0.00    +0.000 OA
ENDBRANCH  17  25
ENDBRANCH   1  20
BRANCH  10  26
ATOM     26  C   UNL     1       0.983  13.158  18.916  0.00  0.00    +0.000 C 
BRANCH  26  27
ATOM     27  C   UNL     1       2.308  13.845  19.141  0.00  0.00    +0.000 A 
ATOM     28  C   UNL     1       2.893  13.850  20.418  0.00  0.00    +0.000 A 
ATOM     29  C   UNL     1       4.095  14.516  20.642  0.00  0.00    +0.000 A 
ATOM     30  C   UNL     1       4.714  15.179  19.590  0.00  0.00    +0.000 A 
ATOM     31  F   UNL     1       5.859  15.838  19.809  0.00  0.00    +0.000 F 
ATOM     32  C   UNL     1       4.166  15.165  18.313  0.00  0.00    +0.000 A 
ATOM     33  C   UNL     1       2.965  14.495  18.086  0.00  0.00    +0.000 A 
ENDBRANCH  26  27
ENDBRANCH  10  26
TORSDOF 4
ENDMDL
MODEL 3
REMARK VINA RESULT:      -6.2     10.029     12.997
REMARK  Name = 
REMARK  5 active torsions:
REMARK  status: ('A' for Active; 'I' for Inactive)
REMARK    1  A    between atoms: C_1  and  O_2
REMARK    2  A    between atoms: O_2  and  C_3
REMARK    3  A    between atoms: C_6  and  N_7
REMARK    4  A    between atoms: N_16  and  C_17
REMARK    5  A    between atoms: C_17  and  C_18
REMARK                            x       y       z     vdW  Elec       q    Type
REMARK                         _______ _______ _______ _____ _____    ______ ____
ROOT
ATOM      1  N   UNL     1      -5.189  13.751  22.299  0.00  0.00    +0.000 N 
ATOM      2  C   UNL     1      -5.052  12.866  23.365  0.00  0.00    +0.000 C 
ATOM      3  O   UNL     1      -3.954  12.439  23.734  0.00  0.00    +0.000 OA
ATOM      4  C   UNL     1      -6.258  12.644  24.251  0.00  0.00    +0.000 C 
ATOM      5  C   UNL     1      -7.589  12.484  23.568  0.00  0.00    +0.000 C 
ATOM      6  S   UNL     1      -7.915  13.858  22.446  0.00  0.00    +0.000 S 
ATOM      7  C   UNL     1      -6.379  13.733  21.434  0.00  0.00    +0.000 C 
ATOM      8  C   UNL     1      -6.423  12.386  20.609  0.00  0.00    +0.000 C 
ATOM      9  O   UNL     1      -6.341  11.249  21.055  0.00  0.00    +0.000 OA
ATOM     10  N   UNL     1      -6.580  12.718  19.260  0.00  0.00    +0.000 N 
ATOM     11  C   UNL     1      -6.553  14.102  19.072  0.00  0.00    +0.000 A 
ATOM     12  C   UNL     1      -6.614  14.804  17.881  0.00  0.00    +0.000 A 
ATOM     13  C   UNL     1      -6.611  16.199  17.937  0.00  0.00    +0.000 A 
ATOM     14  C   UNL     1      -6.576  16.864  19.173  0.00  0.00    +0.000 A 
ATOM     15  C   UNL     1      -6.509  16.145  20.367  0.00  0.00    +0.000 A 
ATOM     16  C   UNL     1      -6.465  14.755  20.308  0.00  0.00    +0.000 A 
ENDROOT
BRANCH   1  20
ATOM     17  C   UNL     1      -2.038  16.544  21.759  0.00  0.00    +0.000 A 
ATOM     18  C   UNL     1      -2.183  15.435  20.921  0.00  0.00    +0.000 A 
ATOM     19  C   UNL     1      -3.239  14.538  21.098  0.00  0.00    +0.000 A 
ATOM     20  C   UNL     1      -4.155  14.717  22.141  0.00  0.00    +0.000 A 
ATOM     21  C   UNL     1      -4.040  15.838  22.962  0.00  0.00    +0.000 A 
ATOM     22  C   UNL     1      -2.997  16.761  22.761  0.00  0.00    +0.000 A 
ATOM     23 CL   UNL     1      -3.049  18.184  23.742  0.00  0.00    +0.000 Cl
BRANCH  17  25
ATOM     24  C   UNL     1       0.262  17.073  22.059  0.00  0.00    +0.000 C 
ATOM     25  O   UNL     1      -0.979  17.341  21.418  0.00  0.00    +0.000 OA
ENDBRANCH  17  25
ENDBRANCH   1  20
BRANCH  10  26
ATOM     26  C   UNL     1      -6.766  11.738  18.213  0.00  0.00    +0.000 C 
BRANCH  26  27
ATOM     27  C   UNL     1      -5.462  11.212  17.665  0.00  0.00    +0.000 A 
ATOM     28  C   UNL     1      -4.886  11.802  16.528  0.00  0.00    +0.000 A 
ATOM     29  C   UNL     1      -3.703  11.297  15.992  0.00  0.00    +0.000 A 
ATOM     30  C   UNL     1      -3.095  10.202  16.592  0.00  0.00    +0.000 A 
ATOM     31  F   UNL     1      -1.970   9.703  16.066  0.00  0.00    +0.000 F 
ATOM     32  C   UNL     1      -3.635   9.620  17.733  0.00  0.00    +0.000 A 
ATOM     33  C   UNL     1      -4.816  10.127  18.274  0.00  0.00    +0.000 A 
ENDBRANCH  26  27
ENDBRANCH  10  26
TORSDOF 4
ENDMDL
MODEL 4
REMARK VINA RESULT:      -6.0      7.225      9.553
REMARK  Name = 
REMARK  5 active torsions:
REMARK  status: ('A' for Active; 'I' for Inactive)
REMARK    1  A    between atoms: C_1  and  O_2
REMARK    2  A    between atoms: O_2  and  C_3
REMARK    3  A    between atoms: C_6  and  N_7
REMARK    4  A    between atoms: N_16  and  C_17
REMARK    5  A    between atoms: C_17  and  C_18
REMARK                            x       y       z     vdW  Elec       q    Type
REMARK                         _______ _______ _______ _____ _____    ______ ____
ROOT
ATOM      1  N   UNL     1      -2.688  15.019  21.287  0.00  0.00    +0.000 N 
ATOM      2  C   UNL     1      -2.961  16.351  20.987  0.00  0.00    +0.000 C 
ATOM      3  O   UNL     1      -3.888  16.685  20.244  0.00  0.00    +0.000 OA
ATOM      4  C   UNL     1      -2.266  17.411  21.811  0.00  0.00    +0.000 C 
ATOM      5  C   UNL     1      -0.806  17.201  22.109  0.00  0.00    +0.000 C 
ATOM      6  S   UNL     1      -0.519  15.582  22.851  0.00  0.00    +0.000 S 
ATOM      7  C   UNL     1      -1.315  14.555  21.542  0.00  0.00    +0.000 C 
ATOM      8  C   UNL     1      -0.456  14.664  20.220  0.00  0.00    +0.000 C 
ATOM      9  O   UNL     1      -0.328  15.651  19.507  0.00  0.00    +0.000 OA
ATOM     10  N   UNL     1       0.147  13.422  20.001  0.00  0.00    +0.000 N 
ATOM     11  C   UNL     1      -0.270  12.482  20.948  0.00  0.00    +0.000 A 
ATOM     12  C   UNL     1       0.057  11.139  21.019  0.00  0.00    +0.000 A 
ATOM     13  C   UNL     1      -0.449  10.394  22.085  0.00  0.00    +0.000 A 
ATOM     14  C   UNL     1      -1.244  11.003  23.070  0.00  0.00    +0.000 A 
ATOM     15  C   UNL     1      -1.572  12.357  22.982  0.00  0.00    +0.000 A 
ATOM     16  C   UNL     1      -1.105  13.088  21.894  0.00  0.00    +0.000 A 
ENDROOT
BRANCH   1  20
ATOM     17  C   UNL     1      -6.034  12.452  21.771  0.00  0.00    +0.000 A 
ATOM     18  C   UNL     1      -5.665  13.366  22.762  0.00  0.00    +0.000 A 
ATOM     19  C   UNL     1      -4.574  14.219  22.577  0.00  0.00    +0.000 A 
ATOM     20  C   UNL     1      -3.811  14.153  21.406  0.00  0.00    +0.000 A 
ATOM     21  C   UNL     1      -4.191  13.268  20.397  0.00  0.00    +0.000 A 
ATOM     22  C   UNL     1      -5.310  12.433  20.568  0.00  0.00    +0.000 A 
ATOM     23 CL   UNL     1      -5.769  11.493  19.191  0.00  0.00    +0.000 Cl
BRANCH  17  25
ATOM     24  C   UNL     1      -7.853  12.119  23.268  0.00  0.00    +0.000 C 
ATOM     25  O   UNL     1      -7.148  11.726  22.097  0.00  0.00    +0.000 OA
ENDBRANCH  17  25
ENDBRANCH   1  20
BRANCH  10  26
ATOM     26  C   UNL     1       1.094  13.171  18.938  0.00  0.00    +0.000 C 
BRANCH  26  27
ATOM     27  C   UNL     1       2.418  13.860  19.159  0.00  0.00    +0.000 A 
ATOM     28  C   UNL     1       2.991  13.895  20.441  0.00  0.00    +0.000 A 
ATOM     29  C   UNL     1       4.193  14.563  20.661  0.00  0.00    +0.000 A 
ATOM     30  C   UNL     1       4.824  15.199  19.599  0.00  0.00    +0.000 A 
ATOM     31  F   UNL     1       5.968  15.860  19.814  0.00  0.00    +0.000 F 
ATOM     32  C   UNL     1       4.288  15.155  18.317  0.00  0.00    +0.000 A 
ATOM     33  C   UNL     1       3.087  14.482  18.095  0.00  0.00    +0.000 A 
ENDBRANCH  26  27
ENDBRANCH  10  26
TORSDOF 4
ENDMDL
MODEL 5
REMARK VINA RESULT:      -5.9      7.869     11.027
REMARK  Name = 
REMARK  5 active torsions:
REMARK  status: ('A' for Active; 'I' for Inactive)
REMARK    1  A    between atoms: C_1  and  O_2
REMARK    2  A    between atoms: O_2  and  C_3
REMARK    3  A    between atoms: C_6  and  N_7
REMARK    4  A    between atoms: N_16  and  C_17
REMARK    5  A    between atoms: C_17  and  C_18
REMARK                            x       y       z     vdW  Elec       q    Type
REMARK                         _______ _______ _______ _____ _____    ______ ____
ROOT
ATOM      1  N   UNL     1       0.553  12.181  19.865  0.00  0.00    +0.000 N 
ATOM      2  C   UNL     1       1.499  13.032  20.430  0.00  0.00    +0.000 C 
ATOM      3  O   UNL     1       2.074  12.771  21.491  0.00  0.00    +0.000 OA
ATOM      4  C   UNL     1       2.021  14.165  19.575  0.00  0.00    +0.000 C 
ATOM      5  C   UNL     1       1.014  14.927  18.758  0.00  0.00    +0.000 C 
ATOM      6  S   UNL     1       0.027  13.813  17.738  0.00  0.00    +0.000 S 
ATOM      7  C   UNL     1      -0.577  12.704  19.080  0.00  0.00    +0.000 C 
ATOM      8  C   UNL     1      -1.550  13.524  20.018  0.00  0.00    +0.000 C 
ATOM      9  O   UNL     1      -1.243  14.437  20.774  0.00  0.00    +0.000 OA
ATOM     10  N   UNL     1      -2.842  13.026  19.830  0.00  0.00    +0.000 N 
ATOM     11  C   UNL     1      -2.842  11.928  18.965  0.00  0.00    +0.000 A 
ATOM     12  C   UNL     1      -3.913  11.135  18.592  0.00  0.00    +0.000 A 
ATOM     13  C   UNL     1      -3.684  10.108  17.676  0.00  0.00    +0.000 A 
ATOM     14  C   UNL     1      -2.405   9.907  17.132  0.00  0.00    +0.000 A 
ATOM     15  C   UNL     1      -1.331  10.709  17.522  0.00  0.00    +0.000 A 
ATOM     16  C   UNL     1      -1.551  11.704  18.470  0.00  0.00    +0.000 A 
ENDROOT
BRANCH   1  20
ATOM     17  C   UNL     1       1.204   8.031  20.469  0.00  0.00    +0.000 A 
ATOM     18  C   UNL     1       0.478   8.797  21.385  0.00  0.00    +0.000 A 
ATOM     19  C   UNL     1       0.253  10.157  21.160  0.00  0.00    +0.000 A 
ATOM     20  C   UNL     1       0.779  10.785  20.025  0.00  0.00    +0.000 A 
ATOM     21  C   UNL     1       1.477  10.024  19.089  0.00  0.00    +0.000 A 
ATOM     22  C   UNL     1       1.673   8.646  19.297  0.00  0.00    +0.000 A 
ATOM     23 CL   UNL     1       2.418   7.783  17.997  0.00  0.00    +0.000 Cl
BRANCH  17  25
ATOM     24  C   UNL     1       2.422   5.990  20.349  0.00  0.00    +0.000 C 
ATOM     25  O   UNL     1       1.292   6.711  20.823  0.00  0.00    +0.000 OA
ENDBRANCH  17  25
ENDBRANCH   1  20
BRANCH  10  26
ATOM     26  C   UNL     1      -4.017  13.603  20.445  0.00  0.00    +0.000 C 
BRANCH  26  27
ATOM     27  C   UNL     1      -4.188  13.186  21.885  0.00  0.00    +0.000 A 
ATOM     28  C   UNL     1      -5.376  13.486  22.571  0.00  0.00    +0.000 A 
ATOM     29  C   UNL     1      -5.526  13.140  23.912  0.00  0.00    +0.000 A 
ATOM     30  C   UNL     1      -4.487  12.493  24.569  0.00  0.00    +0.000 A 
ATOM     31  F   UNL     1      -4.621  12.178  25.864  0.00  0.00    +0.000 F 
ATOM     32  C   UNL     1      -3.313  12.163  23.903  0.00  0.00    +0.000 A 
ATOM     33  C   UNL     1      -3.163  12.505  22.559  0.00  0.00    +0.000 A 
ENDBRANCH  26  27
ENDBRANCH  10  26
TORSDOF 4
ENDMDL
MODEL 6
REMARK VINA RESULT:      -5.9      8.663     11.347
REMARK  Name = 
REMARK  5 active torsions:
REMARK  status: ('A' for Active; 'I' for Inactive)
REMARK    1  A    between atoms: C_1  and  O_2
REMARK    2  A    between atoms: O_2  and  C_3
REMARK    3  A    between atoms: C_6  and  N_7
REMARK    4  A    between atoms: N_16  and  C_17
REMARK    5  A    between atoms: C_17  and  C_18
REMARK                            x       y       z     vdW  Elec       q    Type
REMARK                         _______ _______ _______ _____ _____    ______ ____
ROOT
ATOM      1  N   UNL     1      -4.200  15.118  22.827  0.00  0.00    +0.000 N 
ATOM      2  C   UNL     1      -4.936  16.267  23.104  0.00  0.00    +0.000 C 
ATOM      3  O   UNL     1      -5.723  16.761  22.291  0.00  0.00    +0.000 OA
ATOM      4  C   UNL     1      -4.962  16.754  24.536  0.00  0.00    +0.000 C 
ATOM      5  C   UNL     1      -3.660  16.739  25.289  0.00  0.00    +0.000 C 
ATOM      6  S   UNL     1      -2.890  15.109  25.225  0.00  0.00    +0.000 S 
ATOM      7  C   UNL     1      -2.857  14.912  23.393  0.00  0.00    +0.000 C 
ATOM      8  C   UNL     1      -1.850  15.970  22.787  0.00  0.00    +0.000 C 
ATOM      9  O   UNL     1      -1.995  17.185  22.754  0.00  0.00    +0.000 OA
ATOM     10  N   UNL     1      -0.746  15.271  22.292  0.00  0.00    +0.000 N 
ATOM     11  C   UNL     1      -0.927  13.890  22.405  0.00  0.00    +0.000 A 
ATOM     12  C   UNL     1      -0.087  12.880  21.969  0.00  0.00    +0.000 A 
ATOM     13  C   UNL     1      -0.455  11.559  22.228  0.00  0.00    +0.000 A 
ATOM     14  C   UNL     1      -1.634  11.272  22.936  0.00  0.00    +0.000 A 
ATOM     15  C   UNL     1      -2.476  12.299  23.364  0.00  0.00    +0.000 A 
ATOM     16  C   UNL     1      -2.130  13.614  23.065  0.00  0.00    +0.000 A 
ENDROOT
BRANCH   1  20
ATOM     17  C   UNL     1      -6.067  12.216  20.356  0.00  0.00    +0.000 A 
ATOM     18  C   UNL     1      -4.932  12.913  19.933  0.00  0.00    +0.000 A 
ATOM     19  C   UNL     1      -4.316  13.849  20.768  0.00  0.00    +0.000 A 
ATOM     20  C   UNL     1      -4.844  14.128  22.034  0.00  0.00    +0.000 A 
ATOM     21  C   UNL     1      -5.957  13.414  22.478  0.00  0.00    +0.000 A 
ATOM     22  C   UNL     1      -6.556  12.446  21.652  0.00  0.00    +0.000 A 
ATOM     23 CL   UNL     1      -7.830  11.523  22.370  0.00  0.00    +0.000 Cl
BRANCH  17  25
ATOM     24  C   UNL     1      -6.850  11.810  18.146  0.00  0.00    +0.000 C 
ATOM     25  O   UNL     1      -6.515  11.309  19.434  0.00  0.00    +0.000 OA
ENDBRANCH  17  25
ENDBRANCH   1  20
BRANCH  10  26
ATOM     26  C   UNL     1       0.432  15.917  21.755  0.00  0.00    +0.000 C 
BRANCH  26  27
ATOM     27  C   UNL     1       0.175  16.596  20.432  0.00  0.00    +0.000 A 
ATOM     28  C   UNL     1       0.279  17.992  20.323  0.00  0.00    +0.000 A 
ATOM     29  C   UNL     1       0.005  18.630  19.115  0.00  0.00    +0.000 A 
ATOM     30  C   UNL     1      -0.374  17.872  18.015  0.00  0.00    +0.000 A 
ATOM     31  F   UNL     1      -0.659  18.486  16.859  0.00  0.00    +0.000 F 
ATOM     32  C   UNL     1      -0.458  16.487  18.093  0.00  0.00    +0.000 A 
ATOM     33  C   UNL     1      -0.179  15.847  19.300  0.00  0.00    +0.000 A 
ENDBRANCH  26  27
ENDBRANCH  10  26
TORSDOF 4
ENDMDL
MODEL 7
REMARK VINA RESULT:      -5.9      1.082      1.605
REMARK  Name = 
REMARK  5 active torsions:
REMARK  status: ('A' for Active; 'I' for Inactive)
REMARK    1  A    between atoms: C_1  and  O_2
REMARK    2  A    between atoms: O_2  and  C_3
REMARK    3  A    between atoms: C_6  and  N_7
REMARK    4  A    between atoms: N_16  and  C_17
REMARK    5  A    between atoms: C_17  and  C_18
REMARK                            x       y       z     vdW  Elec       q    Type
REMARK                         _______ _______ _______ _____ _____    ______ ____
ROOT
ATOM      1  N   UNL     1       5.606  15.181  22.302  0.00  0.00    +0.000 N 
ATOM      2  C   UNL     1       4.366  14.985  21.698  0.00  0.00    +0.000 C 
ATOM      3  O   UNL     1       3.696  13.964  21.879  0.00  0.00    +0.000 OA
ATOM      4  C   UNL     1       3.719  16.174  21.025  0.00  0.00    +0.000 C 
ATOM      5  C   UNL     1       4.607  17.055  20.188  0.00  0.00    +0.000 C 
ATOM      6  S   UNL     1       6.046  17.607  21.125  0.00  0.00    +0.000 S 
ATOM      7  C   UNL     1       6.670  15.950  21.637  0.00  0.00    +0.000 C 
ATOM      8  C   UNL     1       7.170  15.177  20.353  0.00  0.00    +0.000 C 
ATOM      9  O   UNL     1       6.478  14.744  19.441  0.00  0.00    +0.000 OA
ATOM     10  N   UNL     1       8.562  15.073  20.434  0.00  0.00    +0.000 N 
ATOM     11  C   UNL     1       9.040  15.591  21.641  0.00  0.00    +0.000 A 
ATOM     12  C   UNL     1      10.343  15.607  22.107  0.00  0.00    +0.000 A 
ATOM     13  C   UNL     1      10.595  16.219  23.336  0.00  0.00    +0.000 A 
ATOM     14  C   UNL     1       9.555  16.824  24.060  0.00  0.00    +0.000 A 
ATOM     15  C   UNL     1       8.244  16.795  23.582  0.00  0.00    +0.000 A 
ATOM     16  C   UNL     1       7.986  16.144  22.379  0.00  0.00    +0.000 A 
ENDROOT
BRANCH   1  20
ATOM     17  C   UNL     1       6.085  13.522  26.180  0.00  0.00    +0.000 A 
ATOM     18  C   UNL     1       6.621  12.901  25.048  0.00  0.00    +0.000 A 
ATOM     19  C   UNL     1       6.473  13.472  23.782  0.00  0.00    +0.000 A 
ATOM     20  C   UNL     1       5.758  14.664  23.619  0.00  0.00    +0.000 A 
ATOM     21  C   UNL     1       5.248  15.309  24.745  0.00  0.00    +0.000 A 
ATOM     22  C   UNL     1       5.427  14.753  26.025  0.00  0.00    +0.000 A 
ATOM     23 CL   UNL     1       4.885  15.720  27.352  0.00  0.00    +0.000 Cl
BRANCH  17  25
ATOM     24  C   UNL     1       6.667  11.468  27.230  0.00  0.00    +0.000 C 
ATOM     25  O   UNL     1       6.359  12.852  27.341  0.00  0.00    +0.000 OA
ENDBRANCH  17  25
ENDBRANCH   1  20
BRANCH  10  26
ATOM     26  C   UNL     1       9.383  14.516  19.382  0.00  0.00    +0.000 C 
BRANCH  26  27
ATOM     27  C   UNL     1       9.291  13.012  19.301  0.00  0.00    +0.000 A 
ATOM     28  C   UNL     1       9.477  12.231  20.453  0.00  0.00    +0.000 A 
ATOM     29  C   UNL     1       9.433  10.840  20.379  0.00  0.00    +0.000 A 
ATOM     30  C   UNL     1       9.203  10.229  19.153  0.00  0.00    +0.000 A 
ATOM     31  F   UNL     1       9.182   8.893  19.077  0.00  0.00    +0.000 F 
ATOM     32  C   UNL     1       8.991  10.984  18.005  0.00  0.00    +0.000 A 
ATOM     33  C   UNL     1       9.030  12.376  18.079  0.00  0.00    +0.000 A 
ENDBRANCH  26  27
ENDBRANCH  10  26
TORSDOF 4
ENDMDL
MODEL 8
REMARK VINA RESULT:      -5.9      1.082      1.377
REMARK  Name = 
REMARK  5 active torsions:
REMARK  status: ('A' for Active; 'I' for Inactive)
REMARK    1  A    between atoms: C_1  and  O_2
REMARK    2  A    between atoms: O_2  and  C_3
REMARK    3  A    between atoms: C_6  and  N_7
REMARK    4  A    between atoms: N_16  and  C_17
REMARK    5  A    between atoms: C_17  and  C_18
REMARK                            x       y       z     vdW  Elec       q    Type
REMARK                         _______ _______ _______ _____ _____    ______ ____
ROOT
ATOM      1  N   UNL     1       5.705  15.270  21.786  0.00  0.00    +0.000 N 
ATOM      2  C   UNL     1       4.497  15.091  21.116  0.00  0.00    +0.000 C 
ATOM      3  O   UNL     1       3.785  14.098  21.291  0.00  0.00    +0.000 OA
ATOM      4  C   UNL     1       3.930  16.275  20.366  0.00  0.00    +0.000 C 
ATOM      5  C   UNL     1       4.894  17.097  19.554  0.00  0.00    +0.000 C 
ATOM      6  S   UNL     1       6.292  17.638  20.556  0.00  0.00    +0.000 S 
ATOM      7  C   UNL     1       6.831  15.982  21.161  0.00  0.00    +0.000 C 
ATOM      8  C   UNL     1       7.380  15.149  19.936  0.00  0.00    +0.000 C 
ATOM      9  O   UNL     1       6.729  14.705  18.999  0.00  0.00    +0.000 OA
ATOM     10  N   UNL     1       8.761  15.005  20.104  0.00  0.00    +0.000 N 
ATOM     11  C   UNL     1       9.183  15.551  21.319  0.00  0.00    +0.000 A 
ATOM     12  C   UNL     1      10.457  15.544  21.861  0.00  0.00    +0.000 A 
ATOM     13  C   UNL     1      10.656  16.192  23.081  0.00  0.00    +0.000 A 
ATOM     14  C   UNL     1       9.596  16.854  23.721  0.00  0.00    +0.000 A 
ATOM     15  C   UNL     1       8.315  16.848  23.167  0.00  0.00    +0.000 A 
ATOM     16  C   UNL     1       8.107  16.163  21.973  0.00  0.00    +0.000 A 
ENDROOT
BRANCH   1  20
ATOM     17  C   UNL     1       5.900  13.737  25.739  0.00  0.00    +0.000 A 
ATOM     18  C   UNL     1       6.478  13.058  24.664  0.00  0.00    +0.000 A 
ATOM     19  C   UNL     1       6.425  13.588  23.372  0.00  0.00    +0.000 A 
ATOM     20  C   UNL     1       5.762  14.796  23.127  0.00  0.00    +0.000 A 
ATOM     21  C   UNL     1       5.212  15.499  24.198  0.00  0.00    +0.000 A 
ATOM     22  C   UNL     1       5.297  14.983  25.505  0.00  0.00    +0.000 A 
ATOM     23 CL   UNL     1       4.713  16.015  26.764  0.00  0.00    +0.000 Cl
BRANCH  17  25
ATOM     24  C   UNL     1       7.280  13.393  27.647  0.00  0.00    +0.000 C 
ATOM     25  O   UNL     1       6.083  13.100  26.937  0.00  0.00    +0.000 OA
ENDBRANCH  17  25
ENDBRANCH   1  20
BRANCH  10  26
ATOM     26  C   UNL     1       9.624  14.387  19.122  0.00  0.00    +0.000 C 
BRANCH  26  27
ATOM     27  C   UNL     1       9.495  12.883  19.094  0.00  0.00    +0.000 A 
ATOM     28  C   UNL     1       9.105  12.230  17.913  0.00  0.00    +0.000 A 
ATOM     29  C   UNL     1       8.945  10.847  17.890  0.00  0.00    +0.000 A 
ATOM     30  C   UNL     1       9.173  10.114  19.048  0.00  0.00    +0.000 A 
ATOM     31  F   UNL     1       8.999   8.787  19.032  0.00  0.00    +0.000 F 
ATOM     32  C   UNL     1       9.584  10.737  20.220  0.00  0.00    +0.000 A 
ATOM     33  C   UNL     1       9.749  12.122  20.244  0.00  0.00    +0.000 A 
ENDBRANCH  26  27
ENDBRANCH  10  26
TORSDOF 4
ENDMDL
MODEL 9
REMARK VINA RESULT:      -5.8      8.275     10.197
REMARK  Name = 
REMARK  5 active torsions:
REMARK  status: ('A' for Active; 'I' for Inactive)
REMARK    1  A    between atoms: C_1  and  O_2
REMARK    2  A    between atoms: O_2  and  C_3
REMARK    3  A    between atoms: C_6  and  N_7
REMARK    4  A    between atoms: N_16  and  C_17
REMARK    5  A    between atoms: C_17  and  C_18
REMARK                            x       y       z     vdW  Elec       q    Type
REMARK                         _______ _______ _______ _____ _____    ______ ____
ROOT
ATOM      1  N   UNL     1      -3.528  13.950  21.634  0.00  0.00    +0.000 N 
ATOM      2  C   UNL     1      -4.525  13.496  20.774  0.00  0.00    +0.000 C 
ATOM      3  O   UNL     1      -4.285  12.755  19.816  0.00  0.00    +0.000 OA
ATOM      4  C   UNL     1      -5.962  13.704  21.196  0.00  0.00    +0.000 C 
ATOM      5  C   UNL     1      -6.315  15.040  21.792  0.00  0.00    +0.000 C 
ATOM      6  S   UNL     1      -5.222  15.448  23.168  0.00  0.00    +0.000 S 
ATOM      7  C   UNL     1      -3.616  15.268  22.282  0.00  0.00    +0.000 C 
ATOM      8  C   UNL     1      -3.506  16.410  21.194  0.00  0.00    +0.000 C 
ATOM      9  O   UNL     1      -4.171  16.517  20.172  0.00  0.00    +0.000 OA
ATOM     10  N   UNL     1      -2.506  17.296  21.607  0.00  0.00    +0.000 N 
ATOM     11  C   UNL     1      -1.878  16.845  22.771  0.00  0.00    +0.000 A 
ATOM     12  C   UNL     1      -0.808  17.414  23.440  0.00  0.00    +0.000 A 
ATOM     13  C   UNL     1      -0.368  16.807  24.617  0.00  0.00    +0.000 A 
ATOM     14  C   UNL     1      -1.016  15.666  25.118  0.00  0.00    +0.000 A 
ATOM     15  C   UNL     1      -2.090  15.098  24.430  0.00  0.00    +0.000 A 
ATOM     16  C   UNL     1      -2.498  15.678  23.233  0.00  0.00    +0.000 A 
ENDROOT
BRANCH   1  20
ATOM     17  C   UNL     1      -0.417  11.217  22.564  0.00  0.00    +0.000 A 
ATOM     18  C   UNL     1      -1.666  11.140  23.185  0.00  0.00    +0.000 A 
ATOM     19  C   UNL     1      -2.687  12.033  22.851  0.00  0.00    +0.000 A 
ATOM     20  C   UNL     1      -2.466  13.044  21.908  0.00  0.00    +0.000 A 
ATOM     21  C   UNL     1      -1.233  13.109  21.258  0.00  0.00    +0.000 A 
ATOM     22  C   UNL     1      -0.217  12.187  21.568  0.00  0.00    +0.000 A 
ATOM     23 CL   UNL     1       1.206  12.274  20.591  0.00  0.00    +0.000 Cl
BRANCH  17  25
ATOM     24  C   UNL     1       0.545   9.077  22.165  0.00  0.00    +0.000 C 
ATOM     25  O   UNL     1       0.450  10.241  22.977  0.00  0.00    +0.000 OA
ENDBRANCH  17  25
ENDBRANCH   1  20
BRANCH  10  26
ATOM     26  C   UNL     1      -2.194  18.526  20.914  0.00  0.00    +0.000 C 
BRANCH  26  27
ATOM     27  C   UNL     1      -1.161  18.340  19.829  0.00  0.00    +0.000 A 
ATOM     28  C   UNL     1      -1.563  18.114  18.503  0.00  0.00    +0.000 A 
ATOM     29  C   UNL     1      -0.617  17.902  17.503  0.00  0.00    +0.000 A 
ATOM     30  C   UNL     1       0.734  17.915  17.828  0.00  0.00    +0.000 A 
ATOM     31  F   UNL     1       1.644  17.690  16.872  0.00  0.00    +0.000 F 
ATOM     32  C   UNL     1       1.155  18.162  19.130  0.00  0.00    +0.000 A 
ATOM     33  C   UNL     1       0.208  18.379  20.131  0.00  0.00    +0.000 A 
ENDBRANCH  26  27
ENDBRANCH  10  26
TORSDOF 4
ENDMDL
