MODEL 1
REMARK VINA RESULT:      -7.7      0.000      0.000
REMARK  Name = 
REMARK  8 active torsions:
REMARK  status: ('A' for Active; 'I' for Inactive)
REMARK    1  A    between atoms: C_2  and  C_3
REMARK    2  A    between atoms: C_2  and  C_13
REMARK    3  A    between atoms: C_3  and  C_5
REMARK    4  A    between atoms: C_8  and  O_9
REMARK    5  A    between atoms: O_9  and  C_10
REMARK    6  A    between atoms: C_13  and  O_14
REMARK    7  A    between atoms: C_13  and  C_15
REMARK    8  A    between atoms: C_18  and  N_19
REMARK                            x       y       z     vdW  Elec       q    Type
REMARK                         _______ _______ _______ _____ _____    ______ ____
ROOT
ATOM      1  C   UNL     1       0.672   3.005  19.248  0.00  0.00    +0.000 C 
ATOM      2  C   UNL     1       1.916   3.373  19.613  0.00  0.00    +0.000 C 
ENDROOT
BRANCH   2   3
ATOM      3  C   UNL     1       2.153   4.582  20.468  0.00  0.00    +0.000 C 
ATOM      4  O   UNL     1       2.414   4.445  21.661  0.00  0.00    +0.000 OA
BRANCH   3   5
ATOM      5  C   UNL     1       2.055   5.952  19.896  0.00  0.00    +0.000 A 
ATOM      6  C   UNL     1       2.370   6.233  18.562  0.00  0.00    +0.000 A 
ATOM      7  C   UNL     1       2.300   7.547  18.085  0.00  0.00    +0.000 A 
ATOM      8  C   UNL     1       1.862   8.579  18.914  0.00  0.00    +0.000 A 
ATOM      9  C   UNL     1       1.507   8.297  20.234  0.00  0.00    +0.000 A 
ATOM     10  C   UNL     1       1.599   6.988  20.721  0.00  0.00    +0.000 A 
BRANCH   8  11
ATOM     11  O   UNL     1       1.861   9.822  18.345  0.00  0.00    +0.000 OA
ATOM     12  C   UNL     1       0.961  10.760  18.921  0.00  0.00    +0.000 C 
ENDBRANCH   8  11
ENDBRANCH   3   5
ENDBRANCH   2   3
BRANCH   2  13
ATOM     13  C   UNL     1       3.143   2.651  19.094  0.00  0.00    +0.000 C 
BRANCH  13  14
ATOM     14  C   UNL     1       4.198   3.461  18.350  0.00  0.00    +0.000 A 
ATOM     15  C   UNL     1       5.325   4.035  18.960  0.00  0.00    +0.000 A 
ATOM     16  C   UNL     1       6.287   4.713  18.204  0.00  0.00    +0.000 A 
ATOM     17  C   UNL     1       6.129   4.820  16.817  0.00  0.00    +0.000 A 
ATOM     18  C   UNL     1       5.001   4.286  16.190  0.00  0.00    +0.000 A 
ATOM     19  C   UNL     1       4.045   3.616  16.957  0.00  0.00    +0.000 A 
BRANCH  17  20
ATOM     20  N   UNL     1       7.170   5.473  16.017  0.00  0.00    +0.000 N 
ATOM     21  O   UNL     1       7.559   4.892  14.993  0.00  0.00    +0.000 OA
ATOM     22  O   UNL     1       7.589   6.574  16.402  0.00  0.00    +0.000 OA
ENDBRANCH  17  20
ENDBRANCH  13  14
BRANCH  13  23
ATOM     23  O   UNL     1       2.758   1.540  18.285  0.00  0.00    +0.000 OA
ATOM     24  H   UNL     1       3.539   1.337  17.731  0.00  0.00    +0.000 HD
ENDBRANCH  13  23
ENDBRANCH   2  13
TORSDOF 7
ENDMDL
MODEL 2
REMARK VINA RESULT:      -7.5      1.038      1.175
REMARK  Name = 
REMARK  8 active torsions:
REMARK  status: ('A' for Active; 'I' for Inactive)
REMARK    1  A    between atoms: C_2  and  C_3
REMARK    2  A    between atoms: C_2  and  C_13
REMARK    3  A    between atoms: C_3  and  C_5
REMARK    4  A    between atoms: C_8  and  O_9
REMARK    5  A    between atoms: O_9  and  C_10
REMARK    6  A    between atoms: C_13  and  O_14
REMARK    7  A    between atoms: C_13  and  C_15
REMARK    8  A    between atoms: C_18  and  N_19
REMARK                            x       y       z     vdW  Elec       q    Type
REMARK                         _______ _______ _______ _____ _____    ______ ____
ROOT
ATOM      1  C   UNL     1       2.807   2.472  21.568  0.00  0.00    +0.000 C 
ATOM      2  C   UNL     1       2.682   2.821  20.272  0.00  0.00    +0.000 C 
ENDROOT
BRANCH   2   3
ATOM      3  C   UNL     1       1.556   3.694  19.806  0.00  0.00    +0.000 C 
ATOM      4  O   UNL     1       0.423   3.228  19.703  0.00  0.00    +0.000 OA
BRANCH   3   5
ATOM      5  C   UNL     1       1.793   5.117  19.441  0.00  0.00    +0.000 A 
ATOM      6  C   UNL     1       2.030   5.525  18.123  0.00  0.00    +0.000 A 
ATOM      7  C   UNL     1       2.287   6.871  17.839  0.00  0.00    +0.000 A 
ATOM      8  C   UNL     1       2.253   7.827  18.854  0.00  0.00    +0.000 A 
ATOM      9  C   UNL     1       1.976   7.432  20.163  0.00  0.00    +0.000 A 
ATOM     10  C   UNL     1       1.742   6.082  20.454  0.00  0.00    +0.000 A 
BRANCH   8  11
ATOM     11  O   UNL     1       2.546   9.103  18.460  0.00  0.00    +0.000 OA
ATOM     12  C   UNL     1       1.446   9.865  17.978  0.00  0.00    +0.000 C 
ENDBRANCH   8  11
ENDBRANCH   3   5
ENDBRANCH   2   3
BRANCH   2  13
ATOM     13  C   UNL     1       3.605   2.267  19.206  0.00  0.00    +0.000 C 
BRANCH  13  14
ATOM     14  C   UNL     1       4.508   3.236  18.454  0.00  0.00    +0.000 A 
ATOM     15  C   UNL     1       5.390   4.135  19.077  0.00  0.00    +0.000 A 
ATOM     16  C   UNL     1       6.236   4.953  18.321  0.00  0.00    +0.000 A 
ATOM     17  C   UNL     1       6.210   4.876  16.925  0.00  0.00    +0.000 A 
ATOM     18  C   UNL     1       5.320   4.014  16.280  0.00  0.00    +0.000 A 
ATOM     19  C   UNL     1       4.476   3.206  17.045  0.00  0.00    +0.000 A 
BRANCH  17  20
ATOM     20  N   UNL     1       7.144   5.686  16.136  0.00  0.00    +0.000 N 
ATOM     21  O   UNL     1       7.481   5.257  15.022  0.00  0.00    +0.000 OA
ATOM     22  O   UNL     1       7.529   6.759  16.621  0.00  0.00    +0.000 OA
ENDBRANCH  17  20
ENDBRANCH  13  14
BRANCH  13  23
ATOM     23  O   UNL     1       2.861   1.500  18.259  0.00  0.00    +0.000 OA
ATOM     24  H   UNL     1       2.718   2.095  17.496  0.00  0.00    +0.000 HD
ENDBRANCH  13  23
ENDBRANCH   2  13
TORSDOF 7
ENDMDL
MODEL 3
REMARK VINA RESULT:      -7.5      0.476      1.628
REMARK  Name = 
REMARK  8 active torsions:
REMARK  status: ('A' for Active; 'I' for Inactive)
REMARK    1  A    between atoms: C_2  and  C_3
REMARK    2  A    between atoms: C_2  and  C_13
REMARK    3  A    between atoms: C_3  and  C_5
REMARK    4  A    between atoms: C_8  and  O_9
REMARK    5  A    between atoms: O_9  and  C_10
REMARK    6  A    between atoms: C_13  and  O_14
REMARK    7  A    between atoms: C_13  and  C_15
REMARK    8  A    between atoms: C_18  and  N_19
REMARK                            x       y       z     vdW  Elec       q    Type
REMARK                         _______ _______ _______ _____ _____    ______ ____
ROOT
ATOM      1  C   UNL     1       0.973   2.575  18.779  0.00  0.00    +0.000 C 
ATOM      2  C   UNL     1       2.095   3.030  19.370  0.00  0.00    +0.000 C 
ENDROOT
BRANCH   2   3
ATOM      3  C   UNL     1       2.063   4.199  20.308  0.00  0.00    +0.000 C 
ATOM      4  O   UNL     1       2.020   4.009  21.522  0.00  0.00    +0.000 OA
BRANCH   3   5
ATOM      5  C   UNL     1       2.059   5.594  19.789  0.00  0.00    +0.000 A 
ATOM      6  C   UNL     1       1.811   6.700  20.611  0.00  0.00    +0.000 A 
ATOM      7  C   UNL     1       1.780   7.988  20.065  0.00  0.00    +0.000 A 
ATOM      8  C   UNL     1       2.052   8.191  18.713  0.00  0.00    +0.000 A 
ATOM      9  C   UNL     1       2.341   7.096  17.897  0.00  0.00    +0.000 A 
ATOM     10  C   UNL     1       2.350   5.803  18.435  0.00  0.00    +0.000 A 
BRANCH   8  11
ATOM     11  O   UNL     1       1.965   9.488  18.290  0.00  0.00    +0.000 OA
ATOM     12  C   UNL     1       1.156  10.341  19.091  0.00  0.00    +0.000 C 
ENDBRANCH   8  11
ENDBRANCH   3   5
ENDBRANCH   2   3
BRANCH   2  13
ATOM     13  C   UNL     1       3.458   2.457  19.038  0.00  0.00    +0.000 C 
BRANCH  13  14
ATOM     14  C   UNL     1       4.430   3.317  18.240  0.00  0.00    +0.000 A 
ATOM     15  C   UNL     1       4.377   3.478  16.846  0.00  0.00    +0.000 A 
ATOM     16  C   UNL     1       5.264   4.335  16.186  0.00  0.00    +0.000 A 
ATOM     17  C   UNL     1       6.218   5.046  16.921  0.00  0.00    +0.000 A 
ATOM     18  C   UNL     1       6.313   4.880  18.305  0.00  0.00    +0.000 A 
ATOM     19  C   UNL     1       5.425   4.017  18.952  0.00  0.00    +0.000 A 
BRANCH  17  20
ATOM     20  N   UNL     1       7.103   5.993  16.237  0.00  0.00    +0.000 N 
ATOM     21  O   UNL     1       7.206   7.134  16.712  0.00  0.00    +0.000 OA
ATOM     22  O   UNL     1       7.710   5.594  15.233  0.00  0.00    +0.000 OA
ENDBRANCH  17  20
ENDBRANCH  13  14
BRANCH  13  23
ATOM     23  O   UNL     1       3.318   1.194  18.389  0.00  0.00    +0.000 OA
ATOM     24  H   UNL     1       2.959   1.394  17.501  0.00  0.00    +0.000 HD
ENDBRANCH  13  23
ENDBRANCH   2  13
TORSDOF 7
ENDMDL
MODEL 4
REMARK VINA RESULT:      -7.4      1.920      2.515
REMARK  Name = 
REMARK  8 active torsions:
REMARK  status: ('A' for Active; 'I' for Inactive)
REMARK    1  A    between atoms: C_2  and  C_3
REMARK    2  A    between atoms: C_2  and  C_13
REMARK    3  A    between atoms: C_3  and  C_5
REMARK    4  A    between atoms: C_8  and  O_9
REMARK    5  A    between atoms: O_9  and  C_10
REMARK    6  A    between atoms: C_13  and  O_14
REMARK    7  A    between atoms: C_13  and  C_15
REMARK    8  A    between atoms: C_18  and  N_19
REMARK                            x       y       z     vdW  Elec       q    Type
REMARK                         _______ _______ _______ _____ _____    ______ ____
ROOT
ATOM      1  C   UNL     1       3.396   1.916  18.180  0.00  0.00    +0.000 C 
ATOM      2  C   UNL     1       3.455   3.262  18.224  0.00  0.00    +0.000 C 
ENDROOT
BRANCH   2   3
ATOM      3  C   UNL     1       2.225   4.102  18.055  0.00  0.00    +0.000 C 
ATOM      4  O   UNL     1       1.333   3.735  17.294  0.00  0.00    +0.000 OA
BRANCH   3   5
ATOM      5  C   UNL     1       2.076   5.393  18.781  0.00  0.00    +0.000 A 
ATOM      6  C   UNL     1       2.266   6.631  18.157  0.00  0.00    +0.000 A 
ATOM      7  C   UNL     1       2.154   7.815  18.895  0.00  0.00    +0.000 A 
ATOM      8  C   UNL     1       1.795   7.778  20.242  0.00  0.00    +0.000 A 
ATOM      9  C   UNL     1       1.564   6.548  20.859  0.00  0.00    +0.000 A 
ATOM     10  C   UNL     1       1.700   5.360  20.129  0.00  0.00    +0.000 A 
BRANCH   8  11
ATOM     11  O   UNL     1       1.744   8.994  20.864  0.00  0.00    +0.000 OA
ATOM     12  C   UNL     1       1.233   8.984  22.191  0.00  0.00    +0.000 C 
ENDBRANCH   8  11
ENDBRANCH   3   5
ENDBRANCH   2   3
BRANCH   2  13
ATOM     13  C   UNL     1       4.775   3.997  18.338  0.00  0.00    +0.000 C 
BRANCH  13  14
ATOM     14  C   UNL     1       5.526   4.339  17.057  0.00  0.00    +0.000 A 
ATOM     15  C   UNL     1       6.842   4.827  17.022  0.00  0.00    +0.000 A 
ATOM     16  C   UNL     1       7.491   5.061  15.805  0.00  0.00    +0.000 A 
ATOM     17  C   UNL     1       6.824   4.803  14.603  0.00  0.00    +0.000 A 
ATOM     18  C   UNL     1       5.504   4.349  14.609  0.00  0.00    +0.000 A 
ATOM     19  C   UNL     1       4.864   4.125  15.831  0.00  0.00    +0.000 A 
BRANCH  17  20
ATOM     20  N   UNL     1       7.528   4.986  13.329  0.00  0.00    +0.000 N 
ATOM     21  O   UNL     1       7.113   4.356  12.345  0.00  0.00    +0.000 OA
ATOM     22  O   UNL     1       8.486   5.772  13.307  0.00  0.00    +0.000 OA
ENDBRANCH  17  20
ENDBRANCH  13  14
BRANCH  13  23
ATOM     23  O   UNL     1       5.656   3.297  19.216  0.00  0.00    +0.000 OA
ATOM     24  H   UNL     1       6.541   3.685  19.062  0.00  0.00    +0.000 HD
ENDBRANCH  13  23
ENDBRANCH   2  13
TORSDOF 7
ENDMDL
MODEL 5
REMARK VINA RESULT:      -7.4      2.975      5.258
REMARK  Name = 
REMARK  8 active torsions:
REMARK  status: ('A' for Active; 'I' for Inactive)
REMARK    1  A    between atoms: C_2  and  C_3
REMARK    2  A    between atoms: C_2  and  C_13
REMARK    3  A    between atoms: C_3  and  C_5
REMARK    4  A    between atoms: C_8  and  O_9
REMARK    5  A    between atoms: O_9  and  C_10
REMARK    6  A    between atoms: C_13  and  O_14
REMARK    7  A    between atoms: C_13  and  C_15
REMARK    8  A    between atoms: C_18  and  N_19
REMARK                            x       y       z     vdW  Elec       q    Type
REMARK                         _______ _______ _______ _____ _____    ______ ____
ROOT
ATOM      1  C   UNL     1       5.961   7.268  17.386  0.00  0.00    +0.000 C 
ATOM      2  C   UNL     1       6.449   6.045  17.670  0.00  0.00    +0.000 C 
ENDROOT
BRANCH   2   3
ATOM      3  C   UNL     1       6.171   5.381  18.985  0.00  0.00    +0.000 C 
ATOM      4  O   UNL     1       7.021   5.403  19.873  0.00  0.00    +0.000 OA
BRANCH   3   5
ATOM      5  C   UNL     1       4.885   4.671  19.226  0.00  0.00    +0.000 A 
ATOM      6  C   UNL     1       3.748   5.324  19.715  0.00  0.00    +0.000 A 
ATOM      7  C   UNL     1       2.575   4.603  19.963  0.00  0.00    +0.000 A 
ATOM      8  C   UNL     1       2.507   3.241  19.672  0.00  0.00    +0.000 A 
ATOM      9  C   UNL     1       3.626   2.593  19.146  0.00  0.00    +0.000 A 
ATOM     10  C   UNL     1       4.809   3.307  18.920  0.00  0.00    +0.000 A 
BRANCH   8  11
ATOM     11  O   UNL     1       1.320   2.639  19.982  0.00  0.00    +0.000 OA
ATOM     12  C   UNL     1       0.509   2.274  18.872  0.00  0.00    +0.000 C 
ENDBRANCH   8  11
ENDBRANCH   3   5
ENDBRANCH   2   3
BRANCH   2  13
ATOM     13  C   UNL     1       7.388   5.324  16.724  0.00  0.00    +0.000 C 
BRANCH  13  14
ATOM     14  C   UNL     1       6.828   4.796  15.409  0.00  0.00    +0.000 A 
ATOM     15  C   UNL     1       7.475   4.924  14.169  0.00  0.00    +0.000 A 
ATOM     16  C   UNL     1       6.931   4.360  13.012  0.00  0.00    +0.000 A 
ATOM     17  C   UNL     1       5.726   3.653  13.085  0.00  0.00    +0.000 A 
ATOM     18  C   UNL     1       5.046   3.539  14.299  0.00  0.00    +0.000 A 
ATOM     19  C   UNL     1       5.596   4.112  15.448  0.00  0.00    +0.000 A 
BRANCH  17  20
ATOM     20  N   UNL     1       5.191   3.006  11.883  0.00  0.00    +0.000 N 
ATOM     21  O   UNL     1       5.817   2.040  11.421  0.00  0.00    +0.000 OA
ATOM     22  O   UNL     1       4.136   3.450  11.409  0.00  0.00    +0.000 OA
ENDBRANCH  17  20
ENDBRANCH  13  14
BRANCH  13  23
ATOM     23  O   UNL     1       8.052   4.259  17.404  0.00  0.00    +0.000 OA
ATOM     24  H   UNL     1       7.426   3.506  17.385  0.00  0.00    +0.000 HD
ENDBRANCH  13  23
ENDBRANCH   2  13
TORSDOF 7
ENDMDL
MODEL 6
REMARK VINA RESULT:      -7.4      0.981      1.658
REMARK  Name = 
REMARK  8 active torsions:
REMARK  status: ('A' for Active; 'I' for Inactive)
REMARK    1  A    between atoms: C_2  and  C_3
REMARK    2  A    between atoms: C_2  and  C_13
REMARK    3  A    between atoms: C_3  and  C_5
REMARK    4  A    between atoms: C_8  and  O_9
REMARK    5  A    between atoms: O_9  and  C_10
REMARK    6  A    between atoms: C_13  and  O_14
REMARK    7  A    between atoms: C_13  and  C_15
REMARK    8  A    between atoms: C_18  and  N_19
REMARK                            x       y       z     vdW  Elec       q    Type
REMARK                         _______ _______ _______ _____ _____    ______ ____
ROOT
ATOM      1  C   UNL     1       2.602   2.648  21.613  0.00  0.00    +0.000 C 
ATOM      2  C   UNL     1       2.651   2.939  20.298  0.00  0.00    +0.000 C 
ENDROOT
BRANCH   2   3
ATOM      3  C   UNL     1       1.577   3.749  19.638  0.00  0.00    +0.000 C 
ATOM      4  O   UNL     1       0.563   3.195  19.219  0.00  0.00    +0.000 OA
BRANCH   3   5
ATOM      5  C   UNL     1       1.728   5.220  19.461  0.00  0.00    +0.000 A 
ATOM      6  C   UNL     1       1.583   6.122  20.521  0.00  0.00    +0.000 A 
ATOM      7  C   UNL     1       1.696   7.498  20.292  0.00  0.00    +0.000 A 
ATOM      8  C   UNL     1       2.011   7.982  19.023  0.00  0.00    +0.000 A 
ATOM      9  C   UNL     1       2.198   7.084  17.972  0.00  0.00    +0.000 A 
ATOM     10  C   UNL     1       2.062   5.707  18.192  0.00  0.00    +0.000 A 
BRANCH   8  11
ATOM     11  O   UNL     1       2.067   9.343  18.918  0.00  0.00    +0.000 OA
ATOM     12  C   UNL     1       1.025  10.054  19.575  0.00  0.00    +0.000 C 
ENDBRANCH   8  11
ENDBRANCH   3   5
ENDBRANCH   2   3
BRANCH   2  13
ATOM     13  C   UNL     1       3.732   2.375  19.398  0.00  0.00    +0.000 C 
BRANCH  13  14
ATOM     14  C   UNL     1       4.589   3.347  18.598  0.00  0.00    +0.000 A 
ATOM     15  C   UNL     1       5.424   4.319  19.174  0.00  0.00    +0.000 A 
ATOM     16  C   UNL     1       6.231   5.138  18.378  0.00  0.00    +0.000 A 
ATOM     17  C   UNL     1       6.214   4.988  16.987  0.00  0.00    +0.000 A 
ATOM     18  C   UNL     1       5.369   4.051  16.388  0.00  0.00    +0.000 A 
ATOM     19  C   UNL     1       4.562   3.243  17.193  0.00  0.00    +0.000 A 
BRANCH  17  20
ATOM     20  N   UNL     1       7.109   5.801  16.159  0.00  0.00    +0.000 N 
ATOM     21  O   UNL     1       7.578   6.834  16.659  0.00  0.00    +0.000 OA
ATOM     22  O   UNL     1       7.359   5.400  15.013  0.00  0.00    +0.000 OA
ENDBRANCH  17  20
ENDBRANCH  13  14
BRANCH  13  23
ATOM     23  O   UNL     1       3.178   1.407  18.507  0.00  0.00    +0.000 OA
ATOM     24  H   UNL     1       3.300   1.777  17.610  0.00  0.00    +0.000 HD
ENDBRANCH  13  23
ENDBRANCH   2  13
TORSDOF 7
ENDMDL
MODEL 7
REMARK VINA RESULT:      -7.3      1.193      1.526
REMARK  Name = 
REMARK  8 active torsions:
REMARK  status: ('A' for Active; 'I' for Inactive)
REMARK    1  A    between atoms: C_2  and  C_3
REMARK    2  A    between atoms: C_2  and  C_13
REMARK    3  A    between atoms: C_3  and  C_5
REMARK    4  A    between atoms: C_8  and  O_9
REMARK    5  A    between atoms: O_9  and  C_10
REMARK    6  A    between atoms: C_13  and  O_14
REMARK    7  A    between atoms: C_13  and  C_15
REMARK    8  A    between atoms: C_18  and  N_19
REMARK                            x       y       z     vdW  Elec       q    Type
REMARK                         _______ _______ _______ _____ _____    ______ ____
ROOT
ATOM      1  C   UNL     1       2.266   3.210  18.576  0.00  0.00    +0.000 C 
ATOM      2  C   UNL     1       3.113   3.966  19.302  0.00  0.00    +0.000 C 
ENDROOT
BRANCH   2   3
ATOM      3  C   UNL     1       2.614   5.089  20.161  0.00  0.00    +0.000 C 
ATOM      4  O   UNL     1       2.387   4.893  21.353  0.00  0.00    +0.000 OA
BRANCH   3   5
ATOM      5  C   UNL     1       2.366   6.440  19.585  0.00  0.00    +0.000 A 
ATOM      6  C   UNL     1       2.700   6.766  18.266  0.00  0.00    +0.000 A 
ATOM      7  C   UNL     1       2.483   8.063  17.787  0.00  0.00    +0.000 A 
ATOM      8  C   UNL     1       1.881   9.025  18.596  0.00  0.00    +0.000 A 
ATOM      9  C   UNL     1       1.508   8.693  19.899  0.00  0.00    +0.000 A 
ATOM     10  C   UNL     1       1.745   7.403  20.390  0.00  0.00    +0.000 A 
BRANCH   8  11
ATOM     11  O   UNL     1       1.746  10.261  18.027  0.00  0.00    +0.000 OA
ATOM     12  C   UNL     1       1.089  11.237  18.827  0.00  0.00    +0.000 C 
ENDBRANCH   8  11
ENDBRANCH   3   5
ENDBRANCH   2   3
BRANCH   2  13
ATOM     13  C   UNL     1       4.615   3.795  19.206  0.00  0.00    +0.000 C 
BRANCH  13  14
ATOM     14  C   UNL     1       5.306   4.177  17.903  0.00  0.00    +0.000 A 
ATOM     15  C   UNL     1       6.537   4.849  17.831  0.00  0.00    +0.000 A 
ATOM     16  C   UNL     1       7.143   5.113  16.599  0.00  0.00    +0.000 A 
ATOM     17  C   UNL     1       6.520   4.699  15.417  0.00  0.00    +0.000 A 
ATOM     18  C   UNL     1       5.279   4.058  15.458  0.00  0.00    +0.000 A 
ATOM     19  C   UNL     1       4.681   3.806  16.695  0.00  0.00    +0.000 A 
BRANCH  17  20
ATOM     20  N   UNL     1       7.187   4.917  14.130  0.00  0.00    +0.000 N 
ATOM     21  O   UNL     1       8.165   5.679  14.110  0.00  0.00    +0.000 OA
ATOM     22  O   UNL     1       6.747   4.314  13.141  0.00  0.00    +0.000 OA
ENDBRANCH  17  20
ENDBRANCH  13  14
BRANCH  13  23
ATOM     23  O   UNL     1       4.983   2.459  19.549  0.00  0.00    +0.000 OA
ATOM     24  H   UNL     1       4.144   2.005  19.768  0.00  0.00    +0.000 HD
ENDBRANCH  13  23
ENDBRANCH   2  13
TORSDOF 7
ENDMDL
MODEL 8
REMARK VINA RESULT:      -7.2      1.176      1.785
REMARK  Name = 
REMARK  8 active torsions:
REMARK  status: ('A' for Active; 'I' for Inactive)
REMARK    1  A    between atoms: C_2  and  C_3
REMARK    2  A    between atoms: C_2  and  C_13
REMARK    3  A    between atoms: C_3  and  C_5
REMARK    4  A    between atoms: C_8  and  O_9
REMARK    5  A    between atoms: O_9  and  C_10
REMARK    6  A    between atoms: C_13  and  O_14
REMARK    7  A    between atoms: C_13  and  C_15
REMARK    8  A    between atoms: C_18  and  N_19
REMARK                            x       y       z     vdW  Elec       q    Type
REMARK                         _______ _______ _______ _____ _____    ______ ____
ROOT
ATOM      1  C   UNL     1       2.471   2.372  18.609  0.00  0.00    +0.000 C 
ATOM      2  C   UNL     1       3.035   3.358  19.335  0.00  0.00    +0.000 C 
ENDROOT
BRANCH   2   3
ATOM      3  C   UNL     1       2.198   4.359  20.073  0.00  0.00    +0.000 C 
ATOM      4  O   UNL     1       1.541   4.005  21.050  0.00  0.00    +0.000 OA
BRANCH   3   5
ATOM      5  C   UNL     1       2.132   5.777  19.627  0.00  0.00    +0.000 A 
ATOM      6  C   UNL     1       1.848   6.828  20.506  0.00  0.00    +0.000 A 
ATOM      7  C   UNL     1       1.758   8.140  20.027  0.00  0.00    +0.000 A 
ATOM      8  C   UNL     1       2.007   8.422  18.685  0.00  0.00    +0.000 A 
ATOM      9  C   UNL     1       2.332   7.383  17.812  0.00  0.00    +0.000 A 
ATOM     10  C   UNL     1       2.400   6.066  18.283  0.00  0.00    +0.000 A 
BRANCH   8  11
ATOM     11  O   UNL     1       1.862   9.735  18.330  0.00  0.00    +0.000 OA
ATOM     12  C   UNL     1       1.071  10.524  19.210  0.00  0.00    +0.000 C 
ENDBRANCH   8  11
ENDBRANCH   3   5
ENDBRANCH   2   3
BRANCH   2  13
ATOM     13  C   UNL     1       4.535   3.572  19.356  0.00  0.00    +0.000 C 
BRANCH  13  14
ATOM     14  C   UNL     1       5.227   3.975  18.060  0.00  0.00    +0.000 A 
ATOM     15  C   UNL     1       6.543   4.461  17.988  0.00  0.00    +0.000 A 
ATOM     16  C   UNL     1       7.137   4.752  16.756  0.00  0.00    +0.000 A 
ATOM     17  C   UNL     1       6.414   4.556  15.574  0.00  0.00    +0.000 A 
ATOM     18  C   UNL     1       5.093   4.105  15.620  0.00  0.00    +0.000 A 
ATOM     19  C   UNL     1       4.509   3.823  16.857  0.00  0.00    +0.000 A 
BRANCH  17  20
ATOM     20  N   UNL     1       7.059   4.799  14.280  0.00  0.00    +0.000 N 
ATOM     21  O   UNL     1       7.980   5.629  14.242  0.00  0.00    +0.000 OA
ATOM     22  O   UNL     1       6.659   4.149  13.304  0.00  0.00    +0.000 OA
ENDBRANCH  17  20
ENDBRANCH  13  14
BRANCH  13  23
ATOM     23  O   UNL     1       5.191   2.423  19.892  0.00  0.00    +0.000 OA
ATOM     24  H   UNL     1       5.596   2.721  20.732  0.00  0.00    +0.000 HD
ENDBRANCH  13  23
ENDBRANCH   2  13
TORSDOF 7
ENDMDL
MODEL 9
REMARK VINA RESULT:      -7.1      1.156      1.882
REMARK  Name = 
REMARK  8 active torsions:
REMARK  status: ('A' for Active; 'I' for Inactive)
REMARK    1  A    between atoms: C_2  and  C_3
REMARK    2  A    between atoms: C_2  and  C_13
REMARK    3  A    between atoms: C_3  and  C_5
REMARK    4  A    between atoms: C_8  and  O_9
REMARK    5  A    between atoms: O_9  and  C_10
REMARK    6  A    between atoms: C_13  and  O_14
REMARK    7  A    between atoms: C_13  and  C_15
REMARK    8  A    between atoms: C_18  and  N_19
REMARK                            x       y       z     vdW  Elec       q    Type
REMARK                         _______ _______ _______ _____ _____    ______ ____
ROOT
ATOM      1  C   UNL     1       1.934   2.493  21.150  0.00  0.00    +0.000 C 
ATOM      2  C   UNL     1       2.377   2.898  19.943  0.00  0.00    +0.000 C 
ENDROOT
BRANCH   2   3
ATOM      3  C   UNL     1       1.569   3.827  19.088  0.00  0.00    +0.000 C 
ATOM      4  O   UNL     1       0.800   3.370  18.245  0.00  0.00    +0.000 OA
BRANCH   3   5
ATOM      5  C   UNL     1       1.700   5.303  19.229  0.00  0.00    +0.000 A 
ATOM      6  C   UNL     1       1.454   5.967  20.436  0.00  0.00    +0.000 A 
ATOM      7  C   UNL     1       1.552   7.361  20.505  0.00  0.00    +0.000 A 
ATOM      8  C   UNL     1       1.952   8.098  19.391  0.00  0.00    +0.000 A 
ATOM      9  C   UNL     1       2.239   7.438  18.195  0.00  0.00    +0.000 A 
ATOM     10  C   UNL     1       2.118   6.045  18.117  0.00  0.00    +0.000 A 
BRANCH   8  11
ATOM     11  O   UNL     1       1.985   9.453  19.571  0.00  0.00    +0.000 OA
ATOM     12  C   UNL     1       0.722  10.107  19.543  0.00  0.00    +0.000 C 
ENDBRANCH   8  11
ENDBRANCH   3   5
ENDBRANCH   2   3
BRANCH   2  13
ATOM     13  C   UNL     1       3.656   2.354  19.341  0.00  0.00    +0.000 C 
BRANCH  13  14
ATOM     14  C   UNL     1       4.544   3.303  18.546  0.00  0.00    +0.000 A 
ATOM     15  C   UNL     1       4.553   3.385  17.144  0.00  0.00    +0.000 A 
ATOM     16  C   UNL     1       5.349   4.326  16.483  0.00  0.00    +0.000 A 
ATOM     17  C   UNL     1       6.147   5.203  17.226  0.00  0.00    +0.000 A 
ATOM     18  C   UNL     1       6.181   5.121  18.620  0.00  0.00    +0.000 A 
ATOM     19  C   UNL     1       5.386   4.173  19.268  0.00  0.00    +0.000 A 
BRANCH  17  20
ATOM     20  N   UNL     1       6.931   6.231  16.535  0.00  0.00    +0.000 N 
ATOM     21  O   UNL     1       7.658   5.870  15.597  0.00  0.00    +0.000 OA
ATOM     22  O   UNL     1       6.809   7.404  16.917  0.00  0.00    +0.000 OA
ENDBRANCH  17  20
ENDBRANCH  13  14
BRANCH  13  23
ATOM     23  O   UNL     1       3.376   1.205  18.542  0.00  0.00    +0.000 OA
ATOM     24  H   UNL     1       3.668   1.438  17.637  0.00  0.00    +0.000 HD
ENDBRANCH  13  23
ENDBRANCH   2  13
TORSDOF 7
ENDMDL
