MODEL 1
REMARK VINA RESULT:      -9.2      0.000      0.000
REMARK  Name = 
REMARK  5 active torsions:
REMARK  status: ('A' for Active; 'I' for Inactive)
REMARK    1  A    between atoms: C_5  and  N_6
REMARK    2  A    between atoms: C_10  and  C_11
REMARK    3  A    between atoms: N_14  and  C_15
REMARK    4  A    between atoms: C_15  and  C_16
REMARK    5  A    between atoms: C_15  and  C_22
REMARK                            x       y       z     vdW  Elec       q    Type
REMARK                         _______ _______ _______ _____ _____    ______ ____
ROOT
ATOM      1  N   UNL     1       4.170   5.628  18.330  0.00  0.00    +0.000 N 
ATOM      2  C   UNL     1       4.054   6.761  17.416  0.00  0.00    +0.000 C 
ATOM      3  C   UNL     1       3.017   7.609  18.090  0.00  0.00    +0.000 A 
ATOM      4  C   UNL     1       2.446   8.822  17.735  0.00  0.00    +0.000 A 
ATOM      5  C   UNL     1       1.474   9.402  18.587  0.00  0.00    +0.000 A 
ATOM      6  C   UNL     1       1.126   8.725  19.786  0.00  0.00    +0.000 A 
ATOM      7  C   UNL     1       1.696   7.515  20.140  0.00  0.00    +0.000 A 
ATOM      8  C   UNL     1       2.641   7.006  19.279  0.00  0.00    +0.000 A 
ATOM      9  C   UNL     1       3.419   5.800  19.469  0.00  0.00    +0.000 C 
ATOM     10  O   UNL     1       3.386   5.136  20.483  0.00  0.00    +0.000 OA
ENDROOT
BRANCH   1  15
ATOM     11  O   UNL     1       7.559   5.367  14.887  0.00  0.00    +0.000 OA
ATOM     12  C   UNL     1       6.883   5.079  15.874  0.00  0.00    +0.000 C 
ATOM     13  C   UNL     1       7.215   5.611  17.251  0.00  0.00    +0.000 C 
ATOM     14  C   UNL     1       6.547   4.823  18.366  0.00  0.00    +0.000 C 
ATOM     15  C   UNL     1       5.074   4.505  18.108  0.00  0.00    +0.000 C 
ATOM     16  C   UNL     1       4.850   3.938  16.705  0.00  0.00    +0.000 C 
ATOM     17  O   UNL     1       3.832   3.315  16.403  0.00  0.00    +0.000 OA
ATOM     18  N   UNL     1       5.789   4.258  15.754  0.00  0.00    +0.000 N 
ATOM     19  H   UNL     1       5.572   3.970  14.811  0.00  0.00    +0.000 HD
ENDBRANCH   1  15
BRANCH   5  20
ATOM     20  C   UNL     1       0.877  10.774  18.255  0.00  0.00    +0.000 C 
ATOM     21  C   UNL     1       1.520  11.973  18.969  0.00  0.00    +0.000 C 
ATOM     22  C   UNL     1       1.169  12.016  20.461  0.00  0.00    +0.000 C 
ATOM     23  N   UNL     1      -0.281  12.002  20.737  0.00  0.00    +0.000 NA
ATOM     24  C   UNL     1      -0.971  10.931  19.997  0.00  0.00    +0.000 C 
ATOM     25  C   UNL     1      -0.632  10.881  18.506  0.00  0.00    +0.000 C 
BRANCH  23  26
ATOM     26  C   UNL     1      -0.516  11.857  22.227  0.00  0.00    +0.000 C 
BRANCH  26  27
ATOM     27  C   UNL     1      -1.622  12.807  22.695  0.00  0.00    +0.000 A 
ATOM     28  C   UNL     1      -2.931  12.685  22.198  0.00  0.00    +0.000 A 
ATOM     29  C   UNL     1      -3.918  13.594  22.573  0.00  0.00    +0.000 A 
ATOM     30  C   UNL     1      -3.614  14.636  23.447  0.00  0.00    +0.000 A 
ATOM     31  C   UNL     1      -2.323  14.764  23.955  0.00  0.00    +0.000 A 
ATOM     32  C   UNL     1      -1.332  13.854  23.586  0.00  0.00    +0.000 A 
ENDBRANCH  26  27
BRANCH  26  33
ATOM     33  C   UNL     1      -0.846  10.424  22.739  0.00  0.00    +0.000 C 
ATOM     34  F   UNL     1       0.261   9.835  23.270  0.00  0.00    +0.000 F 
ATOM     35  F   UNL     1      -1.737  10.484  23.767  0.00  0.00    +0.000 F 
ENDBRANCH  26  33
ENDBRANCH  23  26
ENDBRANCH   5  20
TORSDOF 5
ENDMDL
MODEL 2
REMARK VINA RESULT:      -9.0      2.838      3.694
REMARK  Name = 
REMARK  5 active torsions:
REMARK  status: ('A' for Active; 'I' for Inactive)
REMARK    1  A    between atoms: C_5  and  N_6
REMARK    2  A    between atoms: C_10  and  C_11
REMARK    3  A    between atoms: N_14  and  C_15
REMARK    4  A    between atoms: C_15  and  C_16
REMARK    5  A    between atoms: C_15  and  C_22
REMARK                            x       y       z     vdW  Elec       q    Type
REMARK                         _______ _______ _______ _____ _____    ______ ____
ROOT
ATOM      1  N   UNL     1       4.115   5.531  18.839  0.00  0.00    +0.000 N 
ATOM      2  C   UNL     1       3.267   5.790  20.000  0.00  0.00    +0.000 C 
ATOM      3  C   UNL     1       2.547   7.042  19.596  0.00  0.00    +0.000 A 
ATOM      4  C   UNL     1       1.603   7.815  20.254  0.00  0.00    +0.000 A 
ATOM      5  C   UNL     1       1.085   8.966  19.611  0.00  0.00    +0.000 A 
ATOM      6  C   UNL     1       1.541   9.281  18.303  0.00  0.00    +0.000 A 
ATOM      7  C   UNL     1       2.482   8.509  17.646  0.00  0.00    +0.000 A 
ATOM      8  C   UNL     1       2.942   7.399  18.317  0.00  0.00    +0.000 A 
ATOM      9  C   UNL     1       3.870   6.409  17.810  0.00  0.00    +0.000 C 
ATOM     10  O   UNL     1       4.283   6.402  16.670  0.00  0.00    +0.000 OA
ENDROOT
BRANCH   1  15
ATOM     11  O   UNL     1       7.544   4.921  15.480  0.00  0.00    +0.000 OA
ATOM     12  C   UNL     1       6.858   4.736  16.485  0.00  0.00    +0.000 C 
ATOM     13  C   UNL     1       7.172   5.411  17.801  0.00  0.00    +0.000 C 
ATOM     14  C   UNL     1       6.494   4.743  18.986  0.00  0.00    +0.000 C 
ATOM     15  C   UNL     1       5.025   4.395  18.747  0.00  0.00    +0.000 C 
ATOM     16  C   UNL     1       4.818   3.682  17.409  0.00  0.00    +0.000 C 
ATOM     17  O   UNL     1       3.805   3.026  17.162  0.00  0.00    +0.000 OA
ATOM     18  N   UNL     1       5.768   3.903  16.440  0.00  0.00    +0.000 N 
ATOM     19  H   UNL     1       5.561   3.516  15.530  0.00  0.00    +0.000 HD
ENDBRANCH   1  15
BRANCH   5  20
ATOM     20  C   UNL     1      -0.010   9.800  20.286  0.00  0.00    +0.000 C 
ATOM     21  C   UNL     1      -1.004  10.491  19.340  0.00  0.00    +0.000 C 
ATOM     22  C   UNL     1      -0.366  11.665  18.587  0.00  0.00    +0.000 C 
ATOM     23  N   UNL     1       0.256  12.675  19.466  0.00  0.00    +0.000 NA
ATOM     24  C   UNL     1       1.147  12.059  20.465  0.00  0.00    +0.000 C 
ATOM     25  C   UNL     1       0.520  10.889  21.226  0.00  0.00    +0.000 C 
BRANCH  23  26
ATOM     26  C   UNL     1       1.014  13.685  18.627  0.00  0.00    +0.000 C 
BRANCH  26  27
ATOM     27  C   UNL     1       0.766  15.107  19.138  0.00  0.00    +0.000 A 
ATOM     28  C   UNL     1       1.482  15.608  20.239  0.00  0.00    +0.000 A 
ATOM     29  C   UNL     1       1.205  16.877  20.744  0.00  0.00    +0.000 A 
ATOM     30  C   UNL     1       0.211  17.661  20.160  0.00  0.00    +0.000 A 
ATOM     31  C   UNL     1      -0.500  17.181  19.062  0.00  0.00    +0.000 A 
ATOM     32  C   UNL     1      -0.224  15.912  18.550  0.00  0.00    +0.000 A 
ENDBRANCH  26  27
BRANCH  26  33
ATOM     33  C   UNL     1       2.550  13.465  18.500  0.00  0.00    +0.000 C 
ATOM     34  F   UNL     1       2.819  12.320  17.814  0.00  0.00    +0.000 F 
ATOM     35  F   UNL     1       3.108  14.458  17.754  0.00  0.00    +0.000 F 
ENDBRANCH  26  33
ENDBRANCH  23  26
ENDBRANCH   5  20
TORSDOF 5
ENDMDL
MODEL 3
REMARK VINA RESULT:      -8.9      0.669      1.001
REMARK  Name = 
REMARK  5 active torsions:
REMARK  status: ('A' for Active; 'I' for Inactive)
REMARK    1  A    between atoms: C_5  and  N_6
REMARK    2  A    between atoms: C_10  and  C_11
REMARK    3  A    between atoms: N_14  and  C_15
REMARK    4  A    between atoms: C_15  and  C_16
REMARK    5  A    between atoms: C_15  and  C_22
REMARK                            x       y       z     vdW  Elec       q    Type
REMARK                         _______ _______ _______ _____ _____    ______ ____
ROOT
ATOM      1  N   UNL     1       4.551   5.566  18.206  0.00  0.00    +0.000 N 
ATOM      2  C   UNL     1       4.381   6.748  17.365  0.00  0.00    +0.000 C 
ATOM      3  C   UNL     1       3.233   7.449  18.028  0.00  0.00    +0.000 A 
ATOM      4  C   UNL     1       2.573   8.628  17.720  0.00  0.00    +0.000 A 
ATOM      5  C   UNL     1       1.504   9.055  18.546  0.00  0.00    +0.000 A 
ATOM      6  C   UNL     1       1.154   8.265  19.673  0.00  0.00    +0.000 A 
ATOM      7  C   UNL     1       1.814   7.088  19.980  0.00  0.00    +0.000 A 
ATOM      8  C   UNL     1       2.849   6.730  19.148  0.00  0.00    +0.000 A 
ATOM      9  C   UNL     1       3.725   5.587  19.304  0.00  0.00    +0.000 C 
ATOM     10  O   UNL     1       3.697   4.851  20.268  0.00  0.00    +0.000 OA
ENDROOT
BRANCH   1  15
ATOM     11  O   UNL     1       7.497   5.360  14.373  0.00  0.00    +0.000 OA
ATOM     12  C   UNL     1       6.993   5.098  15.464  0.00  0.00    +0.000 C 
ATOM     13  C   UNL     1       7.414   5.813  16.729  0.00  0.00    +0.000 C 
ATOM     14  C   UNL     1       7.003   5.073  17.992  0.00  0.00    +0.000 C 
ATOM     15  C   UNL     1       5.568   4.548  17.966  0.00  0.00    +0.000 C 
ATOM     16  C   UNL     1       5.254   3.809  16.664  0.00  0.00    +0.000 C 
ATOM     17  O   UNL     1       4.302   3.034  16.560  0.00  0.00    +0.000 OA
ATOM     18  N   UNL     1       6.017   4.139  15.569  0.00  0.00    +0.000 N 
ATOM     19  H   UNL     1       5.727   3.726  14.694  0.00  0.00    +0.000 HD
ENDBRANCH   1  15
BRANCH   5  20
ATOM     20  C   UNL     1       0.801  10.390  18.270  0.00  0.00    +0.000 C 
ATOM     21  C   UNL     1       1.426  11.625  18.938  0.00  0.00    +0.000 C 
ATOM     22  C   UNL     1       1.193  11.645  20.452  0.00  0.00    +0.000 C 
ATOM     23  N   UNL     1      -0.227  11.543  20.844  0.00  0.00    +0.000 NA
ATOM     24  C   UNL     1      -0.908  10.432  20.154  0.00  0.00    +0.000 C 
ATOM     25  C   UNL     1      -0.686  10.405  18.641  0.00  0.00    +0.000 C 
BRANCH  23  26
ATOM     26  C   UNL     1      -0.334  11.383  22.346  0.00  0.00    +0.000 C 
BRANCH  26  27
ATOM     27  C   UNL     1      -1.376  12.346  22.921  0.00  0.00    +0.000 A 
ATOM     28  C   UNL     1      -1.051  13.693  23.164  0.00  0.00    +0.000 A 
ATOM     29  C   UNL     1      -1.981  14.549  23.752  0.00  0.00    +0.000 A 
ATOM     30  C   UNL     1      -3.243  14.075  24.106  0.00  0.00    +0.000 A 
ATOM     31  C   UNL     1      -3.582  12.746  23.862  0.00  0.00    +0.000 A 
ATOM     32  C   UNL     1      -2.656  11.885  23.270  0.00  0.00    +0.000 A 
ENDBRANCH  26  27
BRANCH  26  33
ATOM     33  C   UNL     1      -0.644   9.950  22.869  0.00  0.00    +0.000 C 
ATOM     34  F   UNL     1       0.092   9.021  22.198  0.00  0.00    +0.000 F 
ATOM     35  F   UNL     1      -0.257   9.828  24.169  0.00  0.00    +0.000 F 
ENDBRANCH  26  33
ENDBRANCH  23  26
ENDBRANCH   5  20
TORSDOF 5
ENDMDL
MODEL 4
REMARK VINA RESULT:      -8.8      3.883     10.136
REMARK  Name = 
REMARK  5 active torsions:
REMARK  status: ('A' for Active; 'I' for Inactive)
REMARK    1  A    between atoms: C_5  and  N_6
REMARK    2  A    between atoms: C_10  and  C_11
REMARK    3  A    between atoms: N_14  and  C_15
REMARK    4  A    between atoms: C_15  and  C_16
REMARK    5  A    between atoms: C_15  and  C_22
REMARK                            x       y       z     vdW  Elec       q    Type
REMARK                         _______ _______ _______ _____ _____    ______ ____
ROOT
ATOM      1  N   UNL     1       1.255   9.718  18.813  0.00  0.00    +0.000 N 
ATOM      2  C   UNL     1       1.862   8.838  17.818  0.00  0.00    +0.000 C 
ATOM      3  C   UNL     1       2.097   7.582  18.605  0.00  0.00    +0.000 A 
ATOM      4  C   UNL     1       2.652   6.363  18.249  0.00  0.00    +0.000 A 
ATOM      5  C   UNL     1       2.742   5.337  19.222  0.00  0.00    +0.000 A 
ATOM      6  C   UNL     1       2.245   5.588  20.528  0.00  0.00    +0.000 A 
ATOM      7  C   UNL     1       1.689   6.805  20.882  0.00  0.00    +0.000 A 
ATOM      8  C   UNL     1       1.620   7.759  19.894  0.00  0.00    +0.000 A 
ATOM      9  C   UNL     1       1.023   9.074  20.005  0.00  0.00    +0.000 C 
ATOM     10  O   UNL     1       0.418   9.452  20.986  0.00  0.00    +0.000 OA
ENDROOT
BRANCH   1  15
ATOM     11  O   UNL     1       0.161  13.090  22.107  0.00  0.00    +0.000 OA
ATOM     12  C   UNL     1       0.390  12.561  21.020  0.00  0.00    +0.000 C 
ATOM     13  C   UNL     1       1.796  12.437  20.474  0.00  0.00    +0.000 C 
ATOM     14  C   UNL     1       1.828  12.157  18.981  0.00  0.00    +0.000 C 
ATOM     15  C   UNL     1       0.836  11.086  18.527  0.00  0.00    +0.000 C 
ATOM     16  C   UNL     1      -0.562  11.322  19.100  0.00  0.00    +0.000 C 
ATOM     17  O   UNL     1      -1.568  10.800  18.618  0.00  0.00    +0.000 OA
ATOM     18  N   UNL     1      -0.636  12.057  20.260  0.00  0.00    +0.000 N 
ATOM     19  H   UNL     1      -1.550  12.111  20.685  0.00  0.00    +0.000 HD
ENDBRANCH   1  15
BRANCH   5  20
ATOM     20  C   UNL     1       3.288   3.956  18.838  0.00  0.00    +0.000 C 
ATOM     21  C   UNL     1       4.743   3.676  19.246  0.00  0.00    +0.000 C 
ATOM     22  C   UNL     1       5.746   4.473  18.404  0.00  0.00    +0.000 C 
ATOM     23  N   UNL     1       5.600   4.274  16.949  0.00  0.00    +0.000 NA
ATOM     24  C   UNL     1       4.202   4.432  16.510  0.00  0.00    +0.000 C 
ATOM     25  C   UNL     1       3.192   3.637  17.341  0.00  0.00    +0.000 C 
BRANCH  23  26
ATOM     26  C   UNL     1       6.503   5.239  16.208  0.00  0.00    +0.000 C 
BRANCH  26  27
ATOM     27  C   UNL     1       6.691   4.796  14.754  0.00  0.00    +0.000 A 
ATOM     28  C   UNL     1       7.639   5.427  13.929  0.00  0.00    +0.000 A 
ATOM     29  C   UNL     1       7.759   5.069  12.588  0.00  0.00    +0.000 A 
ATOM     30  C   UNL     1       6.936   4.081  12.051  0.00  0.00    +0.000 A 
ATOM     31  C   UNL     1       5.999   3.440  12.859  0.00  0.00    +0.000 A 
ATOM     32  C   UNL     1       5.877   3.792  14.204  0.00  0.00    +0.000 A 
ENDBRANCH  26  27
BRANCH  26  33
ATOM     33  C   UNL     1       6.072   6.735  16.217  0.00  0.00    +0.000 C 
ATOM     34  F   UNL     1       4.975   6.927  15.434  0.00  0.00    +0.000 F 
ATOM     35  F   UNL     1       5.677   7.104  17.467  0.00  0.00    +0.000 F 
ENDBRANCH  26  33
ENDBRANCH  23  26
ENDBRANCH   5  20
TORSDOF 5
ENDMDL
MODEL 5
REMARK VINA RESULT:      -8.8      2.829      3.752
REMARK  Name = 
REMARK  5 active torsions:
REMARK  status: ('A' for Active; 'I' for Inactive)
REMARK    1  A    between atoms: C_5  and  N_6
REMARK    2  A    between atoms: C_10  and  C_11
REMARK    3  A    between atoms: N_14  and  C_15
REMARK    4  A    between atoms: C_15  and  C_16
REMARK    5  A    between atoms: C_15  and  C_22
REMARK                            x       y       z     vdW  Elec       q    Type
REMARK                         _______ _______ _______ _____ _____    ______ ____
ROOT
ATOM      1  N   UNL     1       3.935   5.690  18.956  0.00  0.00    +0.000 N 
ATOM      2  C   UNL     1       3.020   6.029  20.043  0.00  0.00    +0.000 C 
ATOM      3  C   UNL     1       2.357   7.271  19.527  0.00  0.00    +0.000 A 
ATOM      4  C   UNL     1       1.391   8.098  20.080  0.00  0.00    +0.000 A 
ATOM      5  C   UNL     1       0.943   9.222  19.344  0.00  0.00    +0.000 A 
ATOM      6  C   UNL     1       1.490   9.457  18.055  0.00  0.00    +0.000 A 
ATOM      7  C   UNL     1       2.454   8.631  17.503  0.00  0.00    +0.000 A 
ATOM      8  C   UNL     1       2.843   7.551  18.259  0.00  0.00    +0.000 A 
ATOM      9  C   UNL     1       3.778   6.516  17.869  0.00  0.00    +0.000 C 
ATOM     10  O   UNL     1       4.264   6.439  16.760  0.00  0.00    +0.000 OA
ENDROOT
BRANCH   1  15
ATOM     11  O   UNL     1       7.593   4.857  15.900  0.00  0.00    +0.000 OA
ATOM     12  C   UNL     1       6.828   4.732  16.856  0.00  0.00    +0.000 C 
ATOM     13  C   UNL     1       7.058   5.461  18.162  0.00  0.00    +0.000 C 
ATOM     14  C   UNL     1       6.276   4.862  19.319  0.00  0.00    +0.000 C 
ATOM     15  C   UNL     1       4.822   4.533  18.984  0.00  0.00    +0.000 C 
ATOM     16  C   UNL     1       4.700   3.764  17.667  0.00  0.00    +0.000 C 
ATOM     17  O   UNL     1       3.693   3.118  17.373  0.00  0.00    +0.000 OA
ATOM     18  N   UNL     1       5.725   3.920  16.765  0.00  0.00    +0.000 N 
ATOM     19  H   UNL     1       5.579   3.497  15.860  0.00  0.00    +0.000 HD
ENDBRANCH   1  15
BRANCH   5  20
ATOM     20  C   UNL     1      -0.174  10.113  19.901  0.00  0.00    +0.000 C 
ATOM     21  C   UNL     1      -0.769  11.133  18.917  0.00  0.00    +0.000 C 
ATOM     22  C   UNL     1       0.201  12.281  18.615  0.00  0.00    +0.000 C 
ATOM     23  N   UNL     1       0.689  12.988  19.817  0.00  0.00    +0.000 NA
ATOM     24  C   UNL     1       1.182  12.050  20.842  0.00  0.00    +0.000 C 
ATOM     25  C   UNL     1       0.220  10.902  21.155  0.00  0.00    +0.000 C 
BRANCH  23  26
ATOM     26  C   UNL     1       1.774  13.970  19.427  0.00  0.00    +0.000 C 
BRANCH  26  27
ATOM     27  C   UNL     1       1.168  15.320  19.034  0.00  0.00    +0.000 A 
ATOM     28  C   UNL     1      -0.171  15.621  19.341  0.00  0.00    +0.000 A 
ATOM     29  C   UNL     1      -0.740  16.821  18.922  0.00  0.00    +0.000 A 
ATOM     30  C   UNL     1       0.016  17.736  18.190  0.00  0.00    +0.000 A 
ATOM     31  C   UNL     1       1.347  17.455  17.887  0.00  0.00    +0.000 A 
ATOM     32  C   UNL     1       1.922  16.256  18.308  0.00  0.00    +0.000 A 
ENDBRANCH  26  27
BRANCH  26  33
ATOM     33  C   UNL     1       2.894  14.218  20.480  0.00  0.00    +0.000 C 
ATOM     34  F   UNL     1       4.084  14.471  19.870  0.00  0.00    +0.000 F 
ATOM     35  F   UNL     1       2.624  15.344  21.198  0.00  0.00    +0.000 F 
ENDBRANCH  26  33
ENDBRANCH  23  26
ENDBRANCH   5  20
TORSDOF 5
ENDMDL
MODEL 6
REMARK VINA RESULT:      -8.8      3.003      4.024
REMARK  Name = 
REMARK  5 active torsions:
REMARK  status: ('A' for Active; 'I' for Inactive)
REMARK    1  A    between atoms: C_5  and  N_6
REMARK    2  A    between atoms: C_10  and  C_11
REMARK    3  A    between atoms: N_14  and  C_15
REMARK    4  A    between atoms: C_15  and  C_16
REMARK    5  A    between atoms: C_15  and  C_22
REMARK                            x       y       z     vdW  Elec       q    Type
REMARK                         _______ _______ _______ _____ _____    ______ ____
ROOT
ATOM      1  N   UNL     1       4.063   6.159  18.078  0.00  0.00    +0.000 N 
ATOM      2  C   UNL     1       3.226   6.158  19.275  0.00  0.00    +0.000 C 
ATOM      3  C   UNL     1       2.478   7.451  19.143  0.00  0.00    +0.000 A 
ATOM      4  C   UNL     1       1.529   8.053  19.954  0.00  0.00    +0.000 A 
ATOM      5  C   UNL     1       0.981   9.301  19.565  0.00  0.00    +0.000 A 
ATOM      6  C   UNL     1       1.414   9.886  18.346  0.00  0.00    +0.000 A 
ATOM      7  C   UNL     1       2.361   9.284  17.536  0.00  0.00    +0.000 A 
ATOM      8  C   UNL     1       2.849   8.070  17.960  0.00  0.00    +0.000 A 
ATOM      9  C   UNL     1       3.789   7.224  17.253  0.00  0.00    +0.000 C 
ATOM     10  O   UNL     1       4.187   7.459  16.132  0.00  0.00    +0.000 OA
ENDROOT
BRANCH   1  15
ATOM     11  O   UNL     1       3.554   1.504  19.295  0.00  0.00    +0.000 OA
ATOM     12  C   UNL     1       4.003   2.525  18.776  0.00  0.00    +0.000 C 
ATOM     13  C   UNL     1       3.481   3.043  17.454  0.00  0.00    +0.000 C 
ATOM     14  C   UNL     1       4.425   4.034  16.792  0.00  0.00    +0.000 C 
ATOM     15  C   UNL     1       4.992   5.085  17.746  0.00  0.00    +0.000 C 
ATOM     16  C   UNL     1       5.528   4.457  19.035  0.00  0.00    +0.000 C 
ATOM     17  O   UNL     1       6.311   5.048  19.778  0.00  0.00    +0.000 OA
ATOM     18  N   UNL     1       5.002   3.238  19.390  0.00  0.00    +0.000 N 
ATOM     19  H   UNL     1       5.283   2.888  20.295  0.00  0.00    +0.000 HD
ENDBRANCH   1  15
BRANCH   5  20
ATOM     20  C   UNL     1      -0.120   9.956  20.407  0.00  0.00    +0.000 C 
ATOM     21  C   UNL     1      -1.215  10.691  19.620  0.00  0.00    +0.000 C 
ATOM     22  C   UNL     1      -0.706  11.997  18.999  0.00  0.00    +0.000 C 
ATOM     23  N   UNL     1      -0.095  12.926  19.970  0.00  0.00    +0.000 NA
ATOM     24  C   UNL     1       0.897  12.251  20.826  0.00  0.00    +0.000 C 
ATOM     25  C   UNL     1       0.398  10.948  21.455  0.00  0.00    +0.000 C 
BRANCH  23  26
ATOM     26  C   UNL     1       0.539  14.090  19.236  0.00  0.00    +0.000 C 
BRANCH  26  27
ATOM     27  C   UNL     1      -0.378  15.315  19.269  0.00  0.00    +0.000 A 
ATOM     28  C   UNL     1      -0.252  16.332  18.306  0.00  0.00    +0.000 A 
ATOM     29  C   UNL     1      -1.041  17.478  18.381  0.00  0.00    +0.000 A 
ATOM     30  C   UNL     1      -1.964  17.626  19.415  0.00  0.00    +0.000 A 
ATOM     31  C   UNL     1      -2.107  16.623  20.370  0.00  0.00    +0.000 A 
ATOM     32  C   UNL     1      -1.322  15.471  20.298  0.00  0.00    +0.000 A 
ENDBRANCH  26  27
BRANCH  26  33
ATOM     33  C   UNL     1       1.957  14.520  19.714  0.00  0.00    +0.000 C 
ATOM     34  F   UNL     1       2.698  14.984  18.671  0.00  0.00    +0.000 F 
ATOM     35  F   UNL     1       1.865  15.574  20.572  0.00  0.00    +0.000 F 
ENDBRANCH  26  33
ENDBRANCH  23  26
ENDBRANCH   5  20
TORSDOF 5
ENDMDL
MODEL 7
REMARK VINA RESULT:      -8.8      6.337      9.343
REMARK  Name = 
REMARK  5 active torsions:
REMARK  status: ('A' for Active; 'I' for Inactive)
REMARK    1  A    between atoms: C_5  and  N_6
REMARK    2  A    between atoms: C_10  and  C_11
REMARK    3  A    between atoms: N_14  and  C_15
REMARK    4  A    between atoms: C_15  and  C_16
REMARK    5  A    between atoms: C_15  and  C_22
REMARK                            x       y       z     vdW  Elec       q    Type
REMARK                         _______ _______ _______ _____ _____    ______ ____
ROOT
ATOM      1  N   UNL     1       9.374  11.691  18.966  0.00  0.00    +0.000 N 
ATOM      2  C   UNL     1       9.795  10.442  19.596  0.00  0.00    +0.000 C 
ATOM      3  C   UNL     1       8.919   9.431  18.918  0.00  0.00    +0.000 A 
ATOM      4  C   UNL     1       8.813   8.057  19.066  0.00  0.00    +0.000 A 
ATOM      5  C   UNL     1       7.879   7.348  18.270  0.00  0.00    +0.000 A 
ATOM      6  C   UNL     1       7.092   8.070  17.334  0.00  0.00    +0.000 A 
ATOM      7  C   UNL     1       7.199   9.442  17.186  0.00  0.00    +0.000 A 
ATOM      8  C   UNL     1       8.128  10.074  17.979  0.00  0.00    +0.000 A 
ATOM      9  C   UNL     1       8.466  11.482  17.955  0.00  0.00    +0.000 C 
ATOM     10  O   UNL     1       8.018  12.263  17.142  0.00  0.00    +0.000 OA
ENDROOT
BRANCH   1  15
ATOM     11  O   UNL     1       7.377  15.990  17.997  0.00  0.00    +0.000 OA
ATOM     12  C   UNL     1       8.152  15.145  18.443  0.00  0.00    +0.000 C 
ATOM     13  C   UNL     1       7.904  14.454  19.766  0.00  0.00    +0.000 C 
ATOM     14  C   UNL     1       9.149  13.787  20.328  0.00  0.00    +0.000 C 
ATOM     15  C   UNL     1       9.947  12.991  19.296  0.00  0.00    +0.000 C 
ATOM     16  C   UNL     1      10.177  13.789  18.011  0.00  0.00    +0.000 C 
ATOM     17  O   UNL     1      11.053  13.490  17.199  0.00  0.00    +0.000 OA
ATOM     18  N   UNL     1       9.279  14.794  17.742  0.00  0.00    +0.000 N 
ATOM     19  H   UNL     1       9.378  15.238  16.840  0.00  0.00    +0.000 HD
ENDBRANCH   1  15
BRANCH   5  20
ATOM     20  C   UNL     1       7.790   5.820  18.363  0.00  0.00    +0.000 C 
ATOM     21  C   UNL     1       7.277   5.102  17.105  0.00  0.00    +0.000 C 
ATOM     22  C   UNL     1       5.777   5.326  16.881  0.00  0.00    +0.000 C 
ATOM     23  N   UNL     1       4.935   4.952  18.035  0.00  0.00    +0.000 NA
ATOM     24  C   UNL     1       5.439   5.532  19.293  0.00  0.00    +0.000 C 
ATOM     25  C   UNL     1       6.934   5.312  19.530  0.00  0.00    +0.000 C 
BRANCH  23  26
ATOM     26  C   UNL     1       3.504   5.383  17.785  0.00  0.00    +0.000 C 
BRANCH  26  27
ATOM     27  C   UNL     1       2.525   4.456  18.511  0.00  0.00    +0.000 A 
ATOM     28  C   UNL     1       2.126   3.239  17.931  0.00  0.00    +0.000 A 
ATOM     29  C   UNL     1       1.181   2.432  18.562  0.00  0.00    +0.000 A 
ATOM     30  C   UNL     1       0.622   2.826  19.776  0.00  0.00    +0.000 A 
ATOM     31  C   UNL     1       1.015   4.025  20.367  0.00  0.00    +0.000 A 
ATOM     32  C   UNL     1       1.964   4.836  19.741  0.00  0.00    +0.000 A 
ENDBRANCH  26  27
BRANCH  26  33
ATOM     33  C   UNL     1       3.152   6.856  18.148  0.00  0.00    +0.000 C 
ATOM     34  F   UNL     1       3.903   7.726  17.417  0.00  0.00    +0.000 F 
ATOM     35  F   UNL     1       1.864   7.132  17.801  0.00  0.00    +0.000 F 
ENDBRANCH  26  33
ENDBRANCH  23  26
ENDBRANCH   5  20
TORSDOF 5
ENDMDL
MODEL 8
REMARK VINA RESULT:      -8.8      1.491      2.318
REMARK  Name = 
REMARK  5 active torsions:
REMARK  status: ('A' for Active; 'I' for Inactive)
REMARK    1  A    between atoms: C_5  and  N_6
REMARK    2  A    between atoms: C_10  and  C_11
REMARK    3  A    between atoms: N_14  and  C_15
REMARK    4  A    between atoms: C_15  and  C_16
REMARK    5  A    between atoms: C_15  and  C_22
REMARK                            x       y       z     vdW  Elec       q    Type
REMARK                         _______ _______ _______ _____ _____    ______ ____
ROOT
ATOM      1  N   UNL     1       4.004   6.007  17.913  0.00  0.00    +0.000 N 
ATOM      2  C   UNL     1       3.788   7.205  17.106  0.00  0.00    +0.000 C 
ATOM      3  C   UNL     1       2.814   7.981  17.941  0.00  0.00    +0.000 A 
ATOM      4  C   UNL     1       2.200   9.208  17.739  0.00  0.00    +0.000 A 
ATOM      5  C   UNL     1       1.310   9.703  18.724  0.00  0.00    +0.000 A 
ATOM      6  C   UNL     1       1.087   8.930  19.894  0.00  0.00    +0.000 A 
ATOM      7  C   UNL     1       1.700   7.706  20.095  0.00  0.00    +0.000 A 
ATOM      8  C   UNL     1       2.562   7.282  19.110  0.00  0.00    +0.000 A 
ATOM      9  C   UNL     1       3.366   6.077  19.128  0.00  0.00    +0.000 C 
ATOM     10  O   UNL     1       3.438   5.337  20.086  0.00  0.00    +0.000 OA
ENDROOT
BRANCH   1  15
ATOM     11  O   UNL     1       3.798   1.451  19.530  0.00  0.00    +0.000 OA
ATOM     12  C   UNL     1       4.136   2.435  18.873  0.00  0.00    +0.000 C 
ATOM     13  C   UNL     1       3.401   2.846  17.617  0.00  0.00    +0.000 C 
ATOM     14  C   UNL     1       4.207   3.795  16.744  0.00  0.00    +0.000 C 
ATOM     15  C   UNL     1       4.893   4.921  17.517  0.00  0.00    +0.000 C 
ATOM     16  C   UNL     1       5.639   4.397  18.746  0.00  0.00    +0.000 C 
ATOM     17  O   UNL     1       6.516   5.051  19.311  0.00  0.00    +0.000 OA
ATOM     18  N   UNL     1       5.203   3.203  19.268  0.00  0.00    +0.000 N 
ATOM     19  H   UNL     1       5.630   2.926  20.140  0.00  0.00    +0.000 HD
ENDBRANCH   1  15
BRANCH   5  20
ATOM     20  C   UNL     1       0.671  11.087  18.559  0.00  0.00    +0.000 C 
ATOM     21  C   UNL     1       1.315  12.222  19.371  0.00  0.00    +0.000 C 
ATOM     22  C   UNL     1       1.022  12.100  20.871  0.00  0.00    +0.000 C 
ATOM     23  N   UNL     1      -0.415  12.020  21.198  0.00  0.00    +0.000 NA
ATOM     24  C   UNL     1      -1.110  11.014  20.375  0.00  0.00    +0.000 C 
ATOM     25  C   UNL     1      -0.829  11.128  18.876  0.00  0.00    +0.000 C 
BRANCH  23  26
ATOM     26  C   UNL     1      -0.588  11.715  22.672  0.00  0.00    +0.000 C 
BRANCH  26  27
ATOM     27  C   UNL     1      -1.743  12.529  23.261  0.00  0.00    +0.000 A 
ATOM     28  C   UNL     1      -1.544  13.856  23.683  0.00  0.00    +0.000 A 
ATOM     29  C   UNL     1      -2.580  14.570  24.283  0.00  0.00    +0.000 A 
ATOM     30  C   UNL     1      -3.825  13.972  24.471  0.00  0.00    +0.000 A 
ATOM     31  C   UNL     1      -4.039  12.662  24.049  0.00  0.00    +0.000 A 
ATOM     32  C   UNL     1      -3.007  11.943  23.444  0.00  0.00    +0.000 A 
ENDBRANCH  26  27
BRANCH  26  33
ATOM     33  C   UNL     1      -0.795  10.219  23.049  0.00  0.00    +0.000 C 
ATOM     34  F   UNL     1      -0.916   9.451  21.931  0.00  0.00    +0.000 F 
ATOM     35  F   UNL     1       0.308   9.736  23.685  0.00  0.00    +0.000 F 
ENDBRANCH  26  33
ENDBRANCH  23  26
ENDBRANCH   5  20
TORSDOF 5
ENDMDL
MODEL 9
REMARK VINA RESULT:      -8.7      3.109      4.313
REMARK  Name = 
REMARK  5 active torsions:
REMARK  status: ('A' for Active; 'I' for Inactive)
REMARK    1  A    between atoms: C_5  and  N_6
REMARK    2  A    between atoms: C_10  and  C_11
REMARK    3  A    between atoms: N_14  and  C_15
REMARK    4  A    between atoms: C_15  and  C_16
REMARK    5  A    between atoms: C_15  and  C_22
REMARK                            x       y       z     vdW  Elec       q    Type
REMARK                         _______ _______ _______ _____ _____    ______ ____
ROOT
ATOM      1  N   UNL     1       2.528   6.672  18.637  0.00  0.00    +0.000 N 
ATOM      2  C   UNL     1       2.394   7.924  17.897  0.00  0.00    +0.000 C 
ATOM      3  C   UNL     1       1.695   8.807  18.887  0.00  0.00    +0.000 A 
ATOM      4  C   UNL     1       1.267  10.123  18.807  0.00  0.00    +0.000 A 
ATOM      5  C   UNL     1       0.626  10.709  19.926  0.00  0.00    +0.000 A 
ATOM      6  C   UNL     1       0.456   9.930  21.101  0.00  0.00    +0.000 A 
ATOM      7  C   UNL     1       0.884   8.617  21.181  0.00  0.00    +0.000 A 
ATOM      8  C   UNL     1       1.508   8.105  20.067  0.00  0.00    +0.000 A 
ATOM      9  C   UNL     1       2.098   6.789  19.937  0.00  0.00    +0.000 C 
ATOM     10  O   UNL     1       2.190   6.004  20.858  0.00  0.00    +0.000 OA
ENDROOT
BRANCH   1  15
ATOM     11  O   UNL     1       2.116   2.188  20.408  0.00  0.00    +0.000 OA
ATOM     12  C   UNL     1       2.419   3.117  19.660  0.00  0.00    +0.000 C 
ATOM     13  C   UNL     1       1.477   3.617  18.587  0.00  0.00    +0.000 C 
ATOM     14  C   UNL     1       2.177   4.449  17.525  0.00  0.00    +0.000 C 
ATOM     15  C   UNL     1       3.158   5.477  18.087  0.00  0.00    +0.000 C 
ATOM     16  C   UNL     1       4.091   4.864  19.134  0.00  0.00    +0.000 C 
ATOM     17  O   UNL     1       5.149   5.399  19.466  0.00  0.00    +0.000 OA
ATOM     18  N   UNL     1       3.637   3.739  19.779  0.00  0.00    +0.000 N 
ATOM     19  H   UNL     1       4.212   3.411  20.542  0.00  0.00    +0.000 HD
ENDBRANCH   1  15
BRANCH   5  20
ATOM     20  C   UNL     1       0.205  12.183  19.889  0.00  0.00    +0.000 C 
ATOM     21  C   UNL     1      -0.904  12.586  20.874  0.00  0.00    +0.000 C 
ATOM     22  C   UNL     1      -2.272  12.030  20.465  0.00  0.00    +0.000 C 
ATOM     23  N   UNL     1      -2.682  12.391  19.093  0.00  0.00    +0.000 NA
ATOM     24  C   UNL     1      -1.616  12.118  18.113  0.00  0.00    +0.000 C 
ATOM     25  C   UNL     1      -0.246  12.673  18.508  0.00  0.00    +0.000 C 
BRANCH  23  26
ATOM     26  C   UNL     1      -3.948  11.644  18.725  0.00  0.00    +0.000 C 
BRANCH  26  27
ATOM     27  C   UNL     1      -5.154  12.223  19.469  0.00  0.00    +0.000 A 
ATOM     28  C   UNL     1      -6.147  11.377  19.995  0.00  0.00    +0.000 A 
ATOM     29  C   UNL     1      -7.277  11.911  20.610  0.00  0.00    +0.000 A 
ATOM     30  C   UNL     1      -7.435  13.293  20.706  0.00  0.00    +0.000 A 
ATOM     31  C   UNL     1      -6.456  14.143  20.197  0.00  0.00    +0.000 A 
ATOM     32  C   UNL     1      -5.319  13.614  19.584  0.00  0.00    +0.000 A 
ENDBRANCH  26  27
BRANCH  26  33
ATOM     33  C   UNL     1      -4.291  11.570  17.208  0.00  0.00    +0.000 C 
ATOM     34  F   UNL     1      -4.046  10.323  16.718  0.00  0.00    +0.000 F 
ATOM     35  F   UNL     1      -5.625  11.764  17.016  0.00  0.00    +0.000 F 
ENDBRANCH  26  33
ENDBRANCH  23  26
ENDBRANCH   5  20
TORSDOF 5
ENDMDL
