MODEL 1
REMARK VINA RESULT:      -7.1      0.000      0.000
REMARK  Name = 
REMARK  7 active torsions:
REMARK  status: ('A' for Active; 'I' for Inactive)
REMARK    1  A    between atoms: C_1  and  N_2
REMARK    2  A    between atoms: N_2  and  C_3
REMARK    3  A    between atoms: C_9  and  C_10
REMARK    4  A    between atoms: C_9  and  N_20
REMARK    5  A    between atoms: N_14  and  C_15
REMARK    6  A    between atoms: N_20  and  C_21
REMARK    7  A    between atoms: N_20  and  C_22
REMARK                            x       y       z     vdW  Elec       q    Type
REMARK                         _______ _______ _______ _____ _____    ______ ____
ROOT
ATOM      1  C   UNL     1      -0.315  10.353  20.641  0.00  0.00    +0.000 C 
ATOM      2  N   UNL     1       0.584   9.591  19.780  0.00  0.00    +0.000 N 
ATOM      3  C   UNL     1       0.408   9.840  18.362  0.00  0.00    +0.000 C 
ATOM      4  C   UNL     1       1.252   8.531  20.376  0.00  0.00    +0.000 C 
ATOM      5  O   UNL     1       1.048   8.272  21.567  0.00  0.00    +0.000 OA
ATOM      6  N   UNL     1       2.120   7.743  19.665  0.00  0.00    +0.000 N 
ATOM      7  C   UNL     1       2.671   7.831  18.334  0.00  0.00    +0.000 C 
ATOM      8  C   UNL     1       2.507   6.402  17.844  0.00  0.00    +0.000 C 
ATOM      9  C   UNL     1       2.899   5.493  19.078  0.00  0.00    +0.000 C 
ATOM     10  C   UNL     1       2.695   6.526  20.271  0.00  0.00    +0.000 C 
ENDROOT
BRANCH   9  11
ATOM     11  C   UNL     1       4.391   5.170  18.932  0.00  0.00    +0.000 A 
ATOM     12  N   UNL     1       5.219   5.151  19.969  0.00  0.00    +0.000 NA
ATOM     13  N   UNL     1       6.472   4.921  19.495  0.00  0.00    +0.000 NA
ATOM     14  N   UNL     1       6.449   4.770  18.187  0.00  0.00    +0.000 NA
ATOM     15  N   UNL     1       5.153   4.890  17.815  0.00  0.00    +0.000 N 
BRANCH  15  16
ATOM     16  C   UNL     1       4.847   4.666  16.412  0.00  0.00    +0.000 C 
ATOM     17  C   UNL     1       5.276   5.839  15.508  0.00  0.00    +0.000 C 
ATOM     18  C   UNL     1       5.890   5.239  14.252  0.00  0.00    +0.000 C 
ATOM     19  C   UNL     1       6.327   3.832  14.608  0.00  0.00    +0.000 C 
ATOM     20  C   UNL     1       5.574   3.426  15.868  0.00  0.00    +0.000 C 
ENDBRANCH  15  16
ENDBRANCH   9  11
BRANCH   9  21
ATOM     21  N   UNL     1       2.053   4.258  19.132  0.00  0.00    +0.000 NA
ATOM     22  C   UNL     1       1.540   3.804  17.837  0.00  0.00    +0.000 C 
ATOM     23  C   UNL     1       0.998   4.297  20.150  0.00  0.00    +0.000 C 
ENDBRANCH   9  21
TORSDOF 3
ENDMDL
MODEL 2
REMARK VINA RESULT:      -6.8      1.220      1.464
REMARK  Name = 
REMARK  7 active torsions:
REMARK  status: ('A' for Active; 'I' for Inactive)
REMARK    1  A    between atoms: C_1  and  N_2
REMARK    2  A    between atoms: N_2  and  C_3
REMARK    3  A    between atoms: C_9  and  C_10
REMARK    4  A    between atoms: C_9  and  N_20
REMARK    5  A    between atoms: N_14  and  C_15
REMARK    6  A    between atoms: N_20  and  C_21
REMARK    7  A    between atoms: N_20  and  C_22
REMARK                            x       y       z     vdW  Elec       q    Type
REMARK                         _______ _______ _______ _____ _____    ______ ____
ROOT
ATOM      1  C   UNL     1       0.109   9.017  21.088  0.00  0.00    +0.000 C 
ATOM      2  N   UNL     1       1.113   8.649  20.096  0.00  0.00    +0.000 N 
ATOM      3  C   UNL     1       1.036   9.403  18.859  0.00  0.00    +0.000 C 
ATOM      4  C   UNL     1       1.789   7.459  20.321  0.00  0.00    +0.000 C 
ATOM      5  O   UNL     1       1.506   6.772  21.308  0.00  0.00    +0.000 OA
ATOM      6  N   UNL     1       2.752   7.010  19.454  0.00  0.00    +0.000 N 
ATOM      7  C   UNL     1       3.401   7.598  18.306  0.00  0.00    +0.000 C 
ATOM      8  C   UNL     1       3.355   6.450  17.312  0.00  0.00    +0.000 C 
ATOM      9  C   UNL     1       3.698   5.156  18.156  0.00  0.00    +0.000 C 
ATOM     10  C   UNL     1       3.344   5.668  19.621  0.00  0.00    +0.000 C 
ENDROOT
BRANCH   9  11
ATOM     11  C   UNL     1       5.212   4.943  18.042  0.00  0.00    +0.000 A 
ATOM     12  N   UNL     1       5.966   4.624  19.086  0.00  0.00    +0.000 NA
ATOM     13  N   UNL     1       7.260   4.596  18.670  0.00  0.00    +0.000 NA
ATOM     14  N   UNL     1       7.336   4.865  17.384  0.00  0.00    +0.000 NA
ATOM     15  N   UNL     1       6.064   5.055  16.961  0.00  0.00    +0.000 N 
BRANCH  15  16
ATOM     16  C   UNL     1       5.869   5.275  15.538  0.00  0.00    +0.000 C 
ATOM     17  C   UNL     1       7.196   5.377  14.759  0.00  0.00    +0.000 C 
ATOM     18  C   UNL     1       7.018   4.602  13.462  0.00  0.00    +0.000 C 
ATOM     19  C   UNL     1       5.881   3.625  13.689  0.00  0.00    +0.000 C 
ATOM     20  C   UNL     1       5.087   4.122  14.891  0.00  0.00    +0.000 C 
ENDBRANCH  15  16
ENDBRANCH   9  11
BRANCH   9  21
ATOM     21  N   UNL     1       2.919   3.972  17.673  0.00  0.00    +0.000 NA
ATOM     22  C   UNL     1       1.475   4.044  17.907  0.00  0.00    +0.000 C 
ATOM     23  C   UNL     1       3.472   2.678  18.090  0.00  0.00    +0.000 C 
ENDBRANCH   9  21
TORSDOF 3
ENDMDL
MODEL 3
REMARK VINA RESULT:      -6.5      1.149      1.375
REMARK  Name = 
REMARK  7 active torsions:
REMARK  status: ('A' for Active; 'I' for Inactive)
REMARK    1  A    between atoms: C_1  and  N_2
REMARK    2  A    between atoms: N_2  and  C_3
REMARK    3  A    between atoms: C_9  and  C_10
REMARK    4  A    between atoms: C_9  and  N_20
REMARK    5  A    between atoms: N_14  and  C_15
REMARK    6  A    between atoms: N_20  and  C_21
REMARK    7  A    between atoms: N_20  and  C_22
REMARK                            x       y       z     vdW  Elec       q    Type
REMARK                         _______ _______ _______ _____ _____    ______ ____
ROOT
ATOM      1  C   UNL     1       0.419  10.509  20.405  0.00  0.00    +0.000 C 
ATOM      2  N   UNL     1       1.146   9.499  19.644  0.00  0.00    +0.000 N 
ATOM      3  C   UNL     1       1.177   9.737  18.213  0.00  0.00    +0.000 C 
ATOM      4  C   UNL     1       1.437   8.318  20.311  0.00  0.00    +0.000 C 
ATOM      5  O   UNL     1       1.061   8.167  21.478  0.00  0.00    +0.000 OA
ATOM      6  N   UNL     1       2.113   7.297  19.695  0.00  0.00    +0.000 N 
ATOM      7  C   UNL     1       2.786   7.183  18.423  0.00  0.00    +0.000 C 
ATOM      8  C   UNL     1       2.279   5.838  17.932  0.00  0.00    +0.000 C 
ATOM      9  C   UNL     1       2.288   4.900  19.207  0.00  0.00    +0.000 C 
ATOM     10  C   UNL     1       2.270   5.992  20.365  0.00  0.00    +0.000 C 
ENDROOT
BRANCH   9  11
ATOM     11  C   UNL     1       3.639   4.174  19.210  0.00  0.00    +0.000 A 
ATOM     12  N   UNL     1       3.970   3.292  20.144  0.00  0.00    +0.000 NA
ATOM     13  N   UNL     1       5.251   2.902  19.911  0.00  0.00    +0.000 NA
ATOM     14  N   UNL     1       5.727   3.501  18.839  0.00  0.00    +0.000 NA
ATOM     15  N   UNL     1       4.725   4.278  18.364  0.00  0.00    +0.000 N 
BRANCH  15  16
ATOM     16  C   UNL     1       4.972   4.978  17.115  0.00  0.00    +0.000 C 
ATOM     17  C   UNL     1       6.281   5.793  17.130  0.00  0.00    +0.000 C 
ATOM     18  C   UNL     1       6.954   5.590  15.781  0.00  0.00    +0.000 C 
ATOM     19  C   UNL     1       6.400   4.302  15.205  0.00  0.00    +0.000 C 
ATOM     20  C   UNL     1       5.098   3.999  15.936  0.00  0.00    +0.000 C 
ENDBRANCH  15  16
ENDBRANCH   9  11
BRANCH   9  21
ATOM     21  N   UNL     1       1.132   3.949  19.188  0.00  0.00    +0.000 NA
ATOM     22  C   UNL     1       0.762   3.401  20.495  0.00  0.00    +0.000 C 
ATOM     23  C   UNL     1       1.234   2.899  18.169  0.00  0.00    +0.000 C 
ENDBRANCH   9  21
TORSDOF 3
ENDMDL
MODEL 4
REMARK VINA RESULT:      -6.5      3.043      4.650
REMARK  Name = 
REMARK  7 active torsions:
REMARK  status: ('A' for Active; 'I' for Inactive)
REMARK    1  A    between atoms: C_1  and  N_2
REMARK    2  A    between atoms: N_2  and  C_3
REMARK    3  A    between atoms: C_9  and  C_10
REMARK    4  A    between atoms: C_9  and  N_20
REMARK    5  A    between atoms: N_14  and  C_15
REMARK    6  A    between atoms: N_20  and  C_21
REMARK    7  A    between atoms: N_20  and  C_22
REMARK                            x       y       z     vdW  Elec       q    Type
REMARK                         _______ _______ _______ _____ _____    ______ ____
ROOT
ATOM      1  C   UNL     1       1.090   2.733  21.615  0.00  0.00    +0.000 C 
ATOM      2  N   UNL     1       1.731   2.854  20.310  0.00  0.00    +0.000 N 
ATOM      3  C   UNL     1       1.709   1.638  19.518  0.00  0.00    +0.000 C 
ATOM      4  C   UNL     1       2.528   3.973  20.119  0.00  0.00    +0.000 C 
ATOM      5  O   UNL     1       2.675   4.783  21.040  0.00  0.00    +0.000 OA
ATOM      6  N   UNL     1       3.183   4.190  18.934  0.00  0.00    +0.000 N 
ATOM      7  C   UNL     1       3.141   3.537  17.647  0.00  0.00    +0.000 C 
ATOM      8  C   UNL     1       4.619   3.423  17.318  0.00  0.00    +0.000 C 
ATOM      9  C   UNL     1       5.253   4.800  17.770  0.00  0.00    +0.000 C 
ATOM     10  C   UNL     1       4.151   5.297  18.805  0.00  0.00    +0.000 C 
ENDROOT
BRANCH   9  11
ATOM     11  C   UNL     1       5.246   5.714  16.538  0.00  0.00    +0.000 A 
ATOM     12  N   UNL     1       4.865   6.984  16.597  0.00  0.00    +0.000 NA
ATOM     13  N   UNL     1       4.890   7.483  15.334  0.00  0.00    +0.000 NA
ATOM     14  N   UNL     1       5.300   6.565  14.484  0.00  0.00    +0.000 NA
ATOM     15  N   UNL     1       5.559   5.458  15.218  0.00  0.00    +0.000 N 
BRANCH  15  16
ATOM     16  C   UNL     1       6.123   4.319  14.514  0.00  0.00    +0.000 C 
ATOM     17  C   UNL     1       5.117   3.644  13.560  0.00  0.00    +0.000 C 
ATOM     18  C   UNL     1       5.868   3.305  12.281  0.00  0.00    +0.000 C 
ATOM     19  C   UNL     1       7.079   4.215  12.230  0.00  0.00    +0.000 C 
ATOM     20  C   UNL     1       7.320   4.731  13.643  0.00  0.00    +0.000 C 
ENDBRANCH  15  16
ENDBRANCH   9  11
BRANCH   9  21
ATOM     21  N   UNL     1       6.630   4.607  18.326  0.00  0.00    +0.000 NA
ATOM     22  C   UNL     1       7.000   5.535  19.397  0.00  0.00    +0.000 C 
ATOM     23  C   UNL     1       7.681   4.508  17.307  0.00  0.00    +0.000 C 
ENDBRANCH   9  21
TORSDOF 3
ENDMDL
MODEL 5
REMARK VINA RESULT:      -6.3      2.876      4.376
REMARK  Name = 
REMARK  7 active torsions:
REMARK  status: ('A' for Active; 'I' for Inactive)
REMARK    1  A    between atoms: C_1  and  N_2
REMARK    2  A    between atoms: N_2  and  C_3
REMARK    3  A    between atoms: C_9  and  C_10
REMARK    4  A    between atoms: C_9  and  N_20
REMARK    5  A    between atoms: N_14  and  C_15
REMARK    6  A    between atoms: N_20  and  C_21
REMARK    7  A    between atoms: N_20  and  C_22
REMARK                            x       y       z     vdW  Elec       q    Type
REMARK                         _______ _______ _______ _____ _____    ______ ____
ROOT
ATOM      1  C   UNL     1       0.136   2.306  20.003  0.00  0.00    +0.000 C 
ATOM      2  N   UNL     1       1.499   2.828  20.025  0.00  0.00    +0.000 N 
ATOM      3  C   UNL     1       1.943   3.282  21.329  0.00  0.00    +0.000 C 
ATOM      4  C   UNL     1       2.068   3.109  18.792  0.00  0.00    +0.000 C 
ATOM      5  O   UNL     1       1.411   2.933  17.761  0.00  0.00    +0.000 OA
ATOM      6  N   UNL     1       3.342   3.608  18.690  0.00  0.00    +0.000 N 
ATOM      7  C   UNL     1       4.402   3.813  19.648  0.00  0.00    +0.000 C 
ATOM      8  C   UNL     1       4.873   5.210  19.282  0.00  0.00    +0.000 C 
ATOM      9  C   UNL     1       4.873   5.247  17.700  0.00  0.00    +0.000 C 
ATOM     10  C   UNL     1       3.870   4.052  17.386  0.00  0.00    +0.000 C 
ENDROOT
BRANCH   9  11
ATOM     11  C   UNL     1       6.286   4.859  17.249  0.00  0.00    +0.000 A 
ATOM     12  N   UNL     1       7.227   4.480  18.105  0.00  0.00    +0.000 NA
ATOM     13  N   UNL     1       8.375   4.293  17.403  0.00  0.00    +0.000 NA
ATOM     14  N   UNL     1       8.174   4.522  16.122  0.00  0.00    +0.000 NA
ATOM     15  N   UNL     1       6.866   4.847  15.996  0.00  0.00    +0.000 N 
BRANCH  15  16
ATOM     16  C   UNL     1       6.367   5.055  14.647  0.00  0.00    +0.000 C 
ATOM     17  C   UNL     1       7.494   5.255  13.614  0.00  0.00    +0.000 C 
ATOM     18  C   UNL     1       7.106   4.471  12.368  0.00  0.00    +0.000 C 
ATOM     19  C   UNL     1       6.113   3.414  12.808  0.00  0.00    +0.000 C 
ATOM     20  C   UNL     1       5.551   3.849  14.156  0.00  0.00    +0.000 C 
ENDBRANCH  15  16
ENDBRANCH   9  11
BRANCH   9  21
ATOM     21  N   UNL     1       4.463   6.594  17.190  0.00  0.00    +0.000 NA
ATOM     22  C   UNL     1       5.533   7.594  17.156  0.00  0.00    +0.000 C 
ATOM     23  C   UNL     1       3.243   7.125  17.808  0.00  0.00    +0.000 C 
ENDBRANCH   9  21
TORSDOF 3
ENDMDL
MODEL 6
REMARK VINA RESULT:      -5.9      3.077      9.038
REMARK  Name = 
REMARK  7 active torsions:
REMARK  status: ('A' for Active; 'I' for Inactive)
REMARK    1  A    between atoms: C_1  and  N_2
REMARK    2  A    between atoms: N_2  and  C_3
REMARK    3  A    between atoms: C_9  and  C_10
REMARK    4  A    between atoms: C_9  and  N_20
REMARK    5  A    between atoms: N_14  and  C_15
REMARK    6  A    between atoms: N_20  and  C_21
REMARK    7  A    between atoms: N_20  and  C_22
REMARK                            x       y       z     vdW  Elec       q    Type
REMARK                         _______ _______ _______ _____ _____    ______ ____
ROOT
ATOM      1  C   UNL     1       3.231   6.106  17.911  0.00  0.00    +0.000 C 
ATOM      2  N   UNL     1       2.524   6.889  18.919  0.00  0.00    +0.000 N 
ATOM      3  C   UNL     1       1.912   6.097  19.970  0.00  0.00    +0.000 C 
ATOM      4  C   UNL     1       2.262   8.212  18.596  0.00  0.00    +0.000 C 
ATOM      5  O   UNL     1       2.608   8.652  17.494  0.00  0.00    +0.000 OA
ATOM      6  N   UNL     1       1.601   9.043  19.464  0.00  0.00    +0.000 N 
ATOM      7  C   UNL     1       1.176   8.902  20.836  0.00  0.00    +0.000 C 
ATOM      8  C   UNL     1      -0.240   9.447  20.771  0.00  0.00    +0.000 C 
ATOM      9  C   UNL     1      -0.154  10.716  19.829  0.00  0.00    +0.000 C 
ATOM     10  C   UNL     1       1.190  10.395  19.040  0.00  0.00    +0.000 C 
ENDROOT
BRANCH   9  11
ATOM     11  C   UNL     1       0.067  11.928  20.742  0.00  0.00    +0.000 A 
ATOM     12  N   UNL     1       1.236  12.549  20.829  0.00  0.00    +0.000 NA
ATOM     13  N   UNL     1       1.123  13.515  21.778  0.00  0.00    +0.000 NA
ATOM     14  N   UNL     1      -0.096  13.532  22.275  0.00  0.00    +0.000 NA
ATOM     15  N   UNL     1      -0.785  12.569  21.619  0.00  0.00    +0.000 N 
BRANCH  15  16
ATOM     16  C   UNL     1      -2.202  12.451  21.923  0.00  0.00    +0.000 C 
ATOM     17  C   UNL     1      -2.469  11.861  23.323  0.00  0.00    +0.000 C 
ATOM     18  C   UNL     1      -3.611  12.657  23.937  0.00  0.00    +0.000 C 
ATOM     19  C   UNL     1      -3.652  13.989  23.215  0.00  0.00    +0.000 C 
ATOM     20  C   UNL     1      -2.899  13.820  21.902  0.00  0.00    +0.000 C 
ENDBRANCH  15  16
ENDBRANCH   9  11
BRANCH   9  21
ATOM     21  N   UNL     1      -1.387  10.852  18.991  0.00  0.00    +0.000 NA
ATOM     22  C   UNL     1      -1.643   9.734  18.080  0.00  0.00    +0.000 C 
ATOM     23  C   UNL     1      -1.510  12.146  18.310  0.00  0.00    +0.000 C 
ENDBRANCH   9  21
TORSDOF 3
ENDMDL
MODEL 7
REMARK VINA RESULT:      -5.7      3.132      7.942
REMARK  Name = 
REMARK  7 active torsions:
REMARK  status: ('A' for Active; 'I' for Inactive)
REMARK    1  A    between atoms: C_1  and  N_2
REMARK    2  A    between atoms: N_2  and  C_3
REMARK    3  A    between atoms: C_9  and  C_10
REMARK    4  A    between atoms: C_9  and  N_20
REMARK    5  A    between atoms: N_14  and  C_15
REMARK    6  A    between atoms: N_20  and  C_21
REMARK    7  A    between atoms: N_20  and  C_22
REMARK                            x       y       z     vdW  Elec       q    Type
REMARK                         _______ _______ _______ _____ _____    ______ ____
ROOT
ATOM      1  C   UNL     1       3.150   5.408  18.791  0.00  0.00    +0.000 C 
ATOM      2  N   UNL     1       2.408   6.281  19.694  0.00  0.00    +0.000 N 
ATOM      3  C   UNL     1       1.685   5.583  20.740  0.00  0.00    +0.000 C 
ATOM      4  C   UNL     1       2.232   7.591  19.275  0.00  0.00    +0.000 C 
ATOM      5  O   UNL     1       2.678   7.947  18.178  0.00  0.00    +0.000 OA
ATOM      6  N   UNL     1       1.548   8.501  20.039  0.00  0.00    +0.000 N 
ATOM      7  C   UNL     1       1.018   8.464  21.381  0.00  0.00    +0.000 C 
ATOM      8  C   UNL     1      -0.363   9.062  21.177  0.00  0.00    +0.000 C 
ATOM      9  C   UNL     1      -0.150  10.265  20.171  0.00  0.00    +0.000 C 
ATOM     10  C   UNL     1       1.233   9.840  19.506  0.00  0.00    +0.000 C 
ENDROOT
BRANCH   9  11
ATOM     11  C   UNL     1       0.059  11.522  21.024  0.00  0.00    +0.000 A 
ATOM     12  N   UNL     1      -0.265  11.571  22.310  0.00  0.00    +0.000 NA
ATOM     13  N   UNL     1      -0.038  12.837  22.747  0.00  0.00    +0.000 NA
ATOM     14  N   UNL     1       0.444  13.581  21.773  0.00  0.00    +0.000 NA
ATOM     15  N   UNL     1       0.543  12.772  20.693  0.00  0.00    +0.000 N 
BRANCH  15  16
ATOM     16  C   UNL     1       1.147  13.340  19.499  0.00  0.00    +0.000 C 
ATOM     17  C   UNL     1       0.663  14.775  19.205  0.00  0.00    +0.000 C 
ATOM     18  C   UNL     1       1.878  15.580  18.770  0.00  0.00    +0.000 C 
ATOM     19  C   UNL     1       3.097  14.857  19.308  0.00  0.00    +0.000 C 
ATOM     20  C   UNL     1       2.676  13.428  19.627  0.00  0.00    +0.000 C 
ENDBRANCH  15  16
ENDBRANCH   9  11
BRANCH   9  21
ATOM     21  N   UNL     1      -1.310  10.401  19.234  0.00  0.00    +0.000 NA
ATOM     22  C   UNL     1      -1.006  10.121  17.829  0.00  0.00    +0.000 C 
ATOM     23  C   UNL     1      -2.064  11.650  19.388  0.00  0.00    +0.000 C 
ENDBRANCH   9  21
TORSDOF 3
ENDMDL
MODEL 8
REMARK VINA RESULT:      -5.7      1.882      3.081
REMARK  Name = 
REMARK  7 active torsions:
REMARK  status: ('A' for Active; 'I' for Inactive)
REMARK    1  A    between atoms: C_1  and  N_2
REMARK    2  A    between atoms: N_2  and  C_3
REMARK    3  A    between atoms: C_9  and  C_10
REMARK    4  A    between atoms: C_9  and  N_20
REMARK    5  A    between atoms: N_14  and  C_15
REMARK    6  A    between atoms: N_20  and  C_21
REMARK    7  A    between atoms: N_20  and  C_22
REMARK                            x       y       z     vdW  Elec       q    Type
REMARK                         _______ _______ _______ _____ _____    ______ ____
ROOT
ATOM      1  C   UNL     1       0.783  10.472  19.040  0.00  0.00    +0.000 C 
ATOM      2  N   UNL     1       1.307   9.126  19.248  0.00  0.00    +0.000 N 
ATOM      3  C   UNL     1       1.127   8.617  20.594  0.00  0.00    +0.000 C 
ATOM      4  C   UNL     1       2.158   8.641  18.267  0.00  0.00    +0.000 C 
ATOM      5  O   UNL     1       2.445   9.354  17.299  0.00  0.00    +0.000 OA
ATOM      6  N   UNL     1       2.714   7.390  18.357  0.00  0.00    +0.000 N 
ATOM      7  C   UNL     1       2.507   6.280  19.256  0.00  0.00    +0.000 C 
ATOM      8  C   UNL     1       3.938   5.871  19.564  0.00  0.00    +0.000 C 
ATOM      9  C   UNL     1       4.705   5.969  18.184  0.00  0.00    +0.000 C 
ATOM     10  C   UNL     1       3.739   6.955  17.390  0.00  0.00    +0.000 C 
ENDROOT
BRANCH   9  11
ATOM     11  C   UNL     1       4.646   4.575  17.547  0.00  0.00    +0.000 A 
ATOM     12  N   UNL     1       4.210   3.510  18.207  0.00  0.00    +0.000 NA
ATOM     13  N   UNL     1       4.367   2.428  17.399  0.00  0.00    +0.000 NA
ATOM     14  N   UNL     1       4.868   2.791  16.237  0.00  0.00    +0.000 NA
ATOM     15  N   UNL     1       5.023   4.134  16.294  0.00  0.00    +0.000 N 
BRANCH  15  16
ATOM     16  C   UNL     1       5.478   4.796  15.083  0.00  0.00    +0.000 C 
ATOM     17  C   UNL     1       7.014   4.916  15.006  0.00  0.00    +0.000 C 
ATOM     18  C   UNL     1       7.419   4.601  13.573  0.00  0.00    +0.000 C 
ATOM     19  C   UNL     1       6.289   3.792  12.968  0.00  0.00    +0.000 C 
ATOM     20  C   UNL     1       5.051   4.026  13.824  0.00  0.00    +0.000 C 
ENDBRANCH  15  16
ENDBRANCH   9  11
BRANCH   9  21
ATOM     21  N   UNL     1       6.110   6.447  18.377  0.00  0.00    +0.000 NA
ATOM     22  C   UNL     1       6.583   7.399  17.370  0.00  0.00    +0.000 C 
ATOM     23  C   UNL     1       7.083   5.373  18.608  0.00  0.00    +0.000 C 
ENDBRANCH   9  21
TORSDOF 3
ENDMDL
MODEL 9
REMARK VINA RESULT:      -5.6      6.997      9.856
REMARK  Name = 
REMARK  7 active torsions:
REMARK  status: ('A' for Active; 'I' for Inactive)
REMARK    1  A    between atoms: C_1  and  N_2
REMARK    2  A    between atoms: N_2  and  C_3
REMARK    3  A    between atoms: C_9  and  C_10
REMARK    4  A    between atoms: C_9  and  N_20
REMARK    5  A    between atoms: N_14  and  C_15
REMARK    6  A    between atoms: N_20  and  C_21
REMARK    7  A    between atoms: N_20  and  C_22
REMARK                            x       y       z     vdW  Elec       q    Type
REMARK                         _______ _______ _______ _____ _____    ______ ____
ROOT
ATOM      1  C   UNL     1      -3.701  10.032  14.939  0.00  0.00    +0.000 C 
ATOM      2  N   UNL     1      -3.595  10.629  16.266  0.00  0.00    +0.000 N 
ATOM      3  C   UNL     1      -4.540  11.701  16.516  0.00  0.00    +0.000 C 
ATOM      4  C   UNL     1      -2.446  10.330  16.982  0.00  0.00    +0.000 C 
ATOM      5  O   UNL     1      -1.578   9.612  16.475  0.00  0.00    +0.000 OA
ATOM      6  N   UNL     1      -2.235  10.838  18.239  0.00  0.00    +0.000 N 
ATOM      7  C   UNL     1      -3.063  11.585  19.155  0.00  0.00    +0.000 C 
ATOM      8  C   UNL     1      -2.102  12.667  19.617  0.00  0.00    +0.000 C 
ATOM      9  C   UNL     1      -0.717  11.931  19.825  0.00  0.00    +0.000 C 
ATOM     10  C   UNL     1      -0.939  10.642  18.918  0.00  0.00    +0.000 C 
ENDROOT
BRANCH   9  11
ATOM     11  C   UNL     1      -0.656  11.513  21.299  0.00  0.00    +0.000 A 
ATOM     12  N   UNL     1       0.123  10.528  21.728  0.00  0.00    +0.000 NA
ATOM     13  N   UNL     1      -0.120  10.354  23.053  0.00  0.00    +0.000 NA
ATOM     14  N   UNL     1      -1.016  11.222  23.475  0.00  0.00    +0.000 NA
ATOM     15  N   UNL     1      -1.344  11.979  22.402  0.00  0.00    +0.000 N 
BRANCH  15  16
ATOM     16  C   UNL     1      -2.257  13.086  22.632  0.00  0.00    +0.000 C 
ATOM     17  C   UNL     1      -3.605  12.638  23.232  0.00  0.00    +0.000 C 
ATOM     18  C   UNL     1      -3.980  13.650  24.303  0.00  0.00    +0.000 C 
ATOM     19  C   UNL     1      -2.696  14.335  24.727  0.00  0.00    +0.000 C 
ATOM     20  C   UNL     1      -1.671  14.104  23.624  0.00  0.00    +0.000 C 
ENDBRANCH  15  16
ENDBRANCH   9  11
BRANCH   9  21
ATOM     21  N   UNL     1       0.429  12.813  19.436  0.00  0.00    +0.000 NA
ATOM     22  C   UNL     1       0.052  14.046  18.742  0.00  0.00    +0.000 C 
ATOM     23  C   UNL     1       1.519  12.113  18.746  0.00  0.00    +0.000 C 
ENDBRANCH   9  21
TORSDOF 3
ENDMDL
