MODEL 1
REMARK VINA RESULT:      -8.0      0.000      0.000
REMARK  Name = 
REMARK  5 active torsions:
REMARK  status: ('A' for Active; 'I' for Inactive)
REMARK    1  A    between atoms: C_1  and  C_2
REMARK    2  A    between atoms: C_6  and  C_7
REMARK    3  A    between atoms: C_17  and  C_18
REMARK    4  A    between atoms: C_17  and  C_19
REMARK    5  A    between atoms: C_23  and  O_24
REMARK                            x       y       z     vdW  Elec       q    Type
REMARK                         _______ _______ _______ _____ _____    ______ ____
ROOT
ATOM      1  C   UNL     1      -0.384  11.052  21.352  0.00  0.00    +0.000 C 
ATOM      2  C   UNL     1       0.669  10.711  20.281  0.00  0.00    +0.000 C 
ATOM      3  C   UNL     1       0.981   9.188  20.163  0.00  0.00    +0.000 C 
ATOM      4  C   UNL     1       1.319   8.502  21.492  0.00  0.00    +0.000 C 
ATOM      5  C   UNL     1       1.314   6.997  21.290  0.00  0.00    +0.000 C 
ATOM      6  C   UNL     1       2.260   6.543  20.174  0.00  0.00    +0.000 C 
ATOM      7  C   UNL     1       2.548   7.583  19.065  0.00  0.00    +0.000 C 
ATOM      8  N   UNL     1       2.091   8.973  19.223  0.00  0.00    +0.000 NA
ATOM      9  C   UNL     1       1.907   9.564  17.889  0.00  0.00    +0.000 C 
ATOM     10  C   UNL     1       1.488  11.024  17.913  0.00  0.00    +0.000 C 
ATOM     11  C   UNL     1       0.323  11.362  18.878  0.00  0.00    +0.000 C 
ATOM     12  C   UNL     1       0.399  12.914  19.036  0.00  0.00    +0.000 C 
ENDROOT
BRANCH   6  13
ATOM     13  C   UNL     1       1.749   5.244  19.558  0.00  0.00    +0.000 A 
ATOM     14  C   UNL     1       1.119   4.269  20.354  0.00  0.00    +0.000 A 
ATOM     15  C   UNL     1       0.691   3.063  19.801  0.00  0.00    +0.000 A 
ATOM     16  C   UNL     1       0.877   2.818  18.445  0.00  0.00    +0.000 A 
ATOM     17  C   UNL     1       1.475   3.786  17.638  0.00  0.00    +0.000 A 
ATOM     18  C   UNL     1       1.907   4.994  18.189  0.00  0.00    +0.000 A 
ENDBRANCH   6  13
BRANCH  11  19
ATOM     19  C   UNL     1      -1.067  10.917  18.311  0.00  0.00    +0.000 A 
ATOM     20  C   UNL     1      -1.213   9.810  17.458  0.00  0.00    +0.000 A 
ATOM     21  C   UNL     1      -2.441   9.497  16.849  0.00  0.00    +0.000 A 
ATOM     22  C   UNL     1      -3.565  10.290  17.061  0.00  0.00    +0.000 A 
ATOM     23  C   UNL     1      -3.458  11.354  17.931  0.00  0.00    +0.000 A 
ATOM     24  C   UNL     1      -2.252  11.630  18.577  0.00  0.00    +0.000 A 
BRANCH  23  25
ATOM     25  O   UNL     1      -4.504  12.196  18.176  0.00  0.00    +0.000 OA
ATOM     26  H   UNL     1      -4.834  12.534  17.328  0.00  0.00    +0.000 HD
ENDBRANCH  23  25
ENDBRANCH  11  19
TORSDOF 3
ENDMDL
MODEL 2
REMARK VINA RESULT:      -7.3      3.351      7.753
REMARK  Name = 
REMARK  5 active torsions:
REMARK  status: ('A' for Active; 'I' for Inactive)
REMARK    1  A    between atoms: C_1  and  C_2
REMARK    2  A    between atoms: C_6  and  C_7
REMARK    3  A    between atoms: C_17  and  C_18
REMARK    4  A    between atoms: C_17  and  C_19
REMARK    5  A    between atoms: C_23  and  O_24
REMARK                            x       y       z     vdW  Elec       q    Type
REMARK                         _______ _______ _______ _____ _____    ______ ____
ROOT
ATOM      1  C   UNL     1       1.527  10.200  18.368  0.00  0.00    +0.000 C 
ATOM      2  C   UNL     1       1.087  11.169  19.480  0.00  0.00    +0.000 C 
ATOM      3  C   UNL     1       1.197  12.675  19.090  0.00  0.00    +0.000 C 
ATOM      4  C   UNL     1       2.560  13.086  18.521  0.00  0.00    +0.000 C 
ATOM      5  C   UNL     1       2.449  14.474  17.918  0.00  0.00    +0.000 C 
ATOM      6  C   UNL     1       1.924  15.515  18.913  0.00  0.00    +0.000 C 
ATOM      7  C   UNL     1       1.031  14.972  20.053  0.00  0.00    +0.000 C 
ATOM      8  N   UNL     1       0.893  13.520  20.253  0.00  0.00    +0.000 NA
ATOM      9  C   UNL     1      -0.398  13.253  20.903  0.00  0.00    +0.000 C 
ATOM     10  C   UNL     1      -0.640  11.787  21.218  0.00  0.00    +0.000 C 
ATOM     11  C   UNL     1      -0.344  10.804  20.056  0.00  0.00    +0.000 C 
ATOM     12  C   UNL     1      -0.241   9.411  20.755  0.00  0.00    +0.000 C 
ENDROOT
BRANCH   6  13
ATOM     13  C   UNL     1       1.201  16.631  18.163  0.00  0.00    +0.000 A 
ATOM     14  C   UNL     1      -0.151  16.916  18.425  0.00  0.00    +0.000 A 
ATOM     15  C   UNL     1      -0.825  17.906  17.710  0.00  0.00    +0.000 A 
ATOM     16  C   UNL     1      -0.153  18.630  16.731  0.00  0.00    +0.000 A 
ATOM     17  C   UNL     1       1.195  18.378  16.479  0.00  0.00    +0.000 A 
ATOM     18  C   UNL     1       1.871  17.385  17.192  0.00  0.00    +0.000 A 
ENDBRANCH   6  13
BRANCH  11  19
ATOM     19  C   UNL     1      -1.472  10.811  18.970  0.00  0.00    +0.000 A 
ATOM     20  C   UNL     1      -1.354  10.113  17.756  0.00  0.00    +0.000 A 
ATOM     21  C   UNL     1      -2.312  10.231  16.734  0.00  0.00    +0.000 A 
ATOM     22  C   UNL     1      -3.416  11.064  16.883  0.00  0.00    +0.000 A 
ATOM     23  C   UNL     1      -3.578  11.723  18.084  0.00  0.00    +0.000 A 
ATOM     24  C   UNL     1      -2.655  11.561  19.118  0.00  0.00    +0.000 A 
BRANCH  23  25
ATOM     25  O   UNL     1      -4.619  12.577  18.305  0.00  0.00    +0.000 OA
ATOM     26  H   UNL     1      -5.450  12.095  18.167  0.00  0.00    +0.000 HD
ENDBRANCH  23  25
ENDBRANCH  11  19
TORSDOF 3
ENDMDL
MODEL 3
REMARK VINA RESULT:      -6.9      3.422      7.768
REMARK  Name = 
REMARK  5 active torsions:
REMARK  status: ('A' for Active; 'I' for Inactive)
REMARK    1  A    between atoms: C_1  and  C_2
REMARK    2  A    between atoms: C_6  and  C_7
REMARK    3  A    between atoms: C_17  and  C_18
REMARK    4  A    between atoms: C_17  and  C_19
REMARK    5  A    between atoms: C_23  and  O_24
REMARK                            x       y       z     vdW  Elec       q    Type
REMARK                         _______ _______ _______ _____ _____    ______ ____
ROOT
ATOM      1  C   UNL     1       1.333  10.114  18.697  0.00  0.00    +0.000 C 
ATOM      2  C   UNL     1       0.929  11.126  19.785  0.00  0.00    +0.000 C 
ATOM      3  C   UNL     1       1.067  12.616  19.347  0.00  0.00    +0.000 C 
ATOM      4  C   UNL     1       2.430  12.979  18.748  0.00  0.00    +0.000 C 
ATOM      5  C   UNL     1       2.341  14.351  18.104  0.00  0.00    +0.000 C 
ATOM      6  C   UNL     1       1.852  15.433  19.073  0.00  0.00    +0.000 C 
ATOM      7  C   UNL     1       0.963  14.944  20.241  0.00  0.00    +0.000 C 
ATOM      8  N   UNL     1       0.797  13.503  20.487  0.00  0.00    +0.000 NA
ATOM      9  C   UNL     1      -0.490  13.283  21.162  0.00  0.00    +0.000 C 
ATOM     10  C   UNL     1      -0.759  11.834  21.525  0.00  0.00    +0.000 C 
ATOM     11  C   UNL     1      -0.501  10.810  20.389  0.00  0.00    +0.000 C 
ATOM     12  C   UNL     1      -0.418   9.437  21.129  0.00  0.00    +0.000 C 
ENDROOT
BRANCH   6  13
ATOM     13  C   UNL     1       1.144  16.541  18.299  0.00  0.00    +0.000 A 
ATOM     14  C   UNL     1       1.854  17.361  17.403  0.00  0.00    +0.000 A 
ATOM     15  C   UNL     1       1.218  18.401  16.728  0.00  0.00    +0.000 A 
ATOM     16  C   UNL     1      -0.139  18.631  16.931  0.00  0.00    +0.000 A 
ATOM     17  C   UNL     1      -0.863  17.809  17.794  0.00  0.00    +0.000 A 
ATOM     18  C   UNL     1      -0.227  16.768  18.474  0.00  0.00    +0.000 A 
ENDBRANCH   6  13
BRANCH  11  19
ATOM     19  C   UNL     1      -1.644  10.809  19.319  0.00  0.00    +0.000 A 
ATOM     20  C   UNL     1      -1.609   9.985  18.181  0.00  0.00    +0.000 A 
ATOM     21  C   UNL     1      -2.571  10.085  17.161  0.00  0.00    +0.000 A 
ATOM     22  C   UNL     1      -3.595  11.024  17.235  0.00  0.00    +0.000 A 
ATOM     23  C   UNL     1      -3.677  11.812  18.365  0.00  0.00    +0.000 A 
ATOM     24  C   UNL     1      -2.753  11.673  19.401  0.00  0.00    +0.000 A 
BRANCH  23  25
ATOM     25  O   UNL     1      -4.635  12.773  18.507  0.00  0.00    +0.000 OA
ATOM     26  H   UNL     1      -5.374  12.565  17.914  0.00  0.00    +0.000 HD
ENDBRANCH  23  25
ENDBRANCH  11  19
TORSDOF 3
ENDMDL
MODEL 4
REMARK VINA RESULT:      -6.9      3.411      7.807
REMARK  Name = 
REMARK  5 active torsions:
REMARK  status: ('A' for Active; 'I' for Inactive)
REMARK    1  A    between atoms: C_1  and  C_2
REMARK    2  A    between atoms: C_6  and  C_7
REMARK    3  A    between atoms: C_17  and  C_18
REMARK    4  A    between atoms: C_17  and  C_19
REMARK    5  A    between atoms: C_23  and  O_24
REMARK                            x       y       z     vdW  Elec       q    Type
REMARK                         _______ _______ _______ _____ _____    ______ ____
ROOT
ATOM      1  C   UNL     1       1.402  10.095  18.211  0.00  0.00    +0.000 C 
ATOM      2  C   UNL     1       1.052  11.059  19.359  0.00  0.00    +0.000 C 
ATOM      3  C   UNL     1       1.217  12.566  18.994  0.00  0.00    +0.000 C 
ATOM      4  C   UNL     1       2.574  12.926  18.378  0.00  0.00    +0.000 C 
ATOM      5  C   UNL     1       2.504  14.331  17.807  0.00  0.00    +0.000 C 
ATOM      6  C   UNL     1       2.068  15.373  18.843  0.00  0.00    +0.000 C 
ATOM      7  C   UNL     1       1.197  14.847  20.008  0.00  0.00    +0.000 C 
ATOM      8  N   UNL     1       1.000  13.399  20.185  0.00  0.00    +0.000 NA
ATOM      9  C   UNL     1      -0.275  13.178  20.881  0.00  0.00    +0.000 C 
ATOM     10  C   UNL     1      -0.572  11.718  21.177  0.00  0.00    +0.000 C 
ATOM     11  C   UNL     1      -0.370  10.748  19.985  0.00  0.00    +0.000 C 
ATOM     12  C   UNL     1      -0.304   9.337  20.651  0.00  0.00    +0.000 C 
ENDROOT
BRANCH   6  13
ATOM     13  C   UNL     1       1.370  16.537  18.145  0.00  0.00    +0.000 A 
ATOM     14  C   UNL     1       0.018  16.827  18.407  0.00  0.00    +0.000 A 
ATOM     15  C   UNL     1      -0.634  17.862  17.738  0.00  0.00    +0.000 A 
ATOM     16  C   UNL     1       0.059  18.628  16.806  0.00  0.00    +0.000 A 
ATOM     17  C   UNL     1       1.407  18.371  16.556  0.00  0.00    +0.000 A 
ATOM     18  C   UNL     1       2.061  17.332  17.223  0.00  0.00    +0.000 A 
ENDBRANCH   6  13
BRANCH  11  19
ATOM     19  C   UNL     1      -1.539  10.830  18.946  0.00  0.00    +0.000 A 
ATOM     20  C   UNL     1      -2.696  11.595  19.174  0.00  0.00    +0.000 A 
ATOM     21  C   UNL     1      -3.795  11.559  18.298  0.00  0.00    +0.000 A 
ATOM     22  C   UNL     1      -3.783  10.744  17.170  0.00  0.00    +0.000 A 
ATOM     23  C   UNL     1      -2.640  10.020  16.901  0.00  0.00    +0.000 A 
ATOM     24  C   UNL     1      -1.530  10.100  17.742  0.00  0.00    +0.000 A 
BRANCH  23  25
ATOM     25  O   UNL     1      -2.553   9.179  15.830  0.00  0.00    +0.000 OA
ATOM     26  H   UNL     1      -3.154   9.495  15.138  0.00  0.00    +0.000 HD
ENDBRANCH  23  25
ENDBRANCH  11  19
TORSDOF 3
ENDMDL
MODEL 5
REMARK VINA RESULT:      -6.8      3.898      8.033
REMARK  Name = 
REMARK  5 active torsions:
REMARK  status: ('A' for Active; 'I' for Inactive)
REMARK    1  A    between atoms: C_1  and  C_2
REMARK    2  A    between atoms: C_6  and  C_7
REMARK    3  A    between atoms: C_17  and  C_18
REMARK    4  A    between atoms: C_17  and  C_19
REMARK    5  A    between atoms: C_23  and  O_24
REMARK                            x       y       z     vdW  Elec       q    Type
REMARK                         _______ _______ _______ _____ _____    ______ ____
ROOT
ATOM      1  C   UNL     1      -1.359  10.302  17.839  0.00  0.00    +0.000 C 
ATOM      2  C   UNL     1      -1.337  11.655  18.574  0.00  0.00    +0.000 C 
ATOM      3  C   UNL     1      -2.652  11.977  19.348  0.00  0.00    +0.000 C 
ATOM      4  C   UNL     1      -3.932  11.832  18.516  0.00  0.00    +0.000 C 
ATOM      5  C   UNL     1      -5.134  11.884  19.441  0.00  0.00    +0.000 C 
ATOM      6  C   UNL     1      -5.170  13.152  20.301  0.00  0.00    +0.000 C 
ATOM      7  C   UNL     1      -3.801  13.812  20.591  0.00  0.00    +0.000 C 
ATOM      8  N   UNL     1      -2.593  13.340  19.895  0.00  0.00    +0.000 NA
ATOM      9  C   UNL     1      -1.421  13.630  20.733  0.00  0.00    +0.000 C 
ATOM     10  C   UNL     1      -0.096  13.240  20.100  0.00  0.00    +0.000 C 
ATOM     11  C   UNL     1      -0.051  11.817  19.485  0.00  0.00    +0.000 C 
ATOM     12  C   UNL     1       1.200  11.847  18.551  0.00  0.00    +0.000 C 
ENDROOT
BRANCH   6  13
ATOM     13  C   UNL     1      -5.909  12.873  21.606  0.00  0.00    +0.000 A 
ATOM     14  C   UNL     1      -7.222  12.367  21.596  0.00  0.00    +0.000 A 
ATOM     15  C   UNL     1      -7.915  12.153  22.787  0.00  0.00    +0.000 A 
ATOM     16  C   UNL     1      -7.301  12.431  24.004  0.00  0.00    +0.000 A 
ATOM     17  C   UNL     1      -5.990  12.906  24.031  0.00  0.00    +0.000 A 
ATOM     18  C   UNL     1      -5.295  13.124  22.840  0.00  0.00    +0.000 A 
ENDBRANCH   6  13
BRANCH  11  19
ATOM     19  C   UNL     1       0.083  10.703  20.577  0.00  0.00    +0.000 A 
ATOM     20  C   UNL     1      -0.497  10.823  21.851  0.00  0.00    +0.000 A 
ATOM     21  C   UNL     1      -0.263   9.880  22.867  0.00  0.00    +0.000 A 
ATOM     22  C   UNL     1       0.574   8.790  22.649  0.00  0.00    +0.000 A 
ATOM     23  C   UNL     1       1.118   8.625  21.392  0.00  0.00    +0.000 A 
ATOM     24  C   UNL     1       0.839   9.533  20.370  0.00  0.00    +0.000 A 
BRANCH  23  25
ATOM     25  O   UNL     1       1.968   7.598  21.101  0.00  0.00    +0.000 OA
ATOM     26  H   UNL     1       1.453   6.869  20.718  0.00  0.00    +0.000 HD
ENDBRANCH  23  25
ENDBRANCH  11  19
TORSDOF 3
ENDMDL
MODEL 6
REMARK VINA RESULT:      -6.8      4.264      6.349
REMARK  Name = 
REMARK  5 active torsions:
REMARK  status: ('A' for Active; 'I' for Inactive)
REMARK    1  A    between atoms: C_1  and  C_2
REMARK    2  A    between atoms: C_6  and  C_7
REMARK    3  A    between atoms: C_17  and  C_18
REMARK    4  A    between atoms: C_17  and  C_19
REMARK    5  A    between atoms: C_23  and  O_24
REMARK                            x       y       z     vdW  Elec       q    Type
REMARK                         _______ _______ _______ _____ _____    ______ ____
ROOT
ATOM      1  C   UNL     1       0.978  15.325  21.653  0.00  0.00    +0.000 C 
ATOM      2  C   UNL     1       1.591  14.300  20.680  0.00  0.00    +0.000 C 
ATOM      3  C   UNL     1       0.556  13.305  20.072  0.00  0.00    +0.000 C 
ATOM      4  C   UNL     1      -0.336  12.606  21.104  0.00  0.00    +0.000 C 
ATOM      5  C   UNL     1      -1.472  11.903  20.384  0.00  0.00    +0.000 C 
ATOM      6  C   UNL     1      -0.982  10.920  19.315  0.00  0.00    +0.000 C 
ATOM      7  C   UNL     1       0.401  11.228  18.695  0.00  0.00    +0.000 C 
ATOM      8  N   UNL     1       1.249  12.284  19.273  0.00  0.00    +0.000 NA
ATOM      9  C   UNL     1       2.137  12.804  18.224  0.00  0.00    +0.000 C 
ATOM     10  C   UNL     1       3.108  13.868  18.707  0.00  0.00    +0.000 C 
ATOM     11  C   UNL     1       2.479  14.995  19.566  0.00  0.00    +0.000 C 
ATOM     12  C   UNL     1       3.703  15.661  20.272  0.00  0.00    +0.000 C 
ENDROOT
BRANCH   6  13
ATOM     13  C   UNL     1      -2.033  10.782  18.217  0.00  0.00    +0.000 A 
ATOM     14  C   UNL     1      -1.812   9.940  17.111  0.00  0.00    +0.000 A 
ATOM     15  C   UNL     1      -2.752   9.846  16.086  0.00  0.00    +0.000 A 
ATOM     16  C   UNL     1      -3.929  10.584  16.156  0.00  0.00    +0.000 A 
ATOM     17  C   UNL     1      -4.175  11.401  17.260  0.00  0.00    +0.000 A 
ATOM     18  C   UNL     1      -3.234  11.498  18.287  0.00  0.00    +0.000 A 
ENDBRANCH   6  13
BRANCH  11  19
ATOM     19  C   UNL     1       1.690  16.034  18.699  0.00  0.00    +0.000 A 
ATOM     20  C   UNL     1       2.329  16.903  17.799  0.00  0.00    +0.000 A 
ATOM     21  C   UNL     1       1.631  17.919  17.124  0.00  0.00    +0.000 A 
ATOM     22  C   UNL     1       0.269  18.112  17.336  0.00  0.00    +0.000 A 
ATOM     23  C   UNL     1      -0.389  17.241  18.179  0.00  0.00    +0.000 A 
ATOM     24  C   UNL     1       0.296  16.199  18.806  0.00  0.00    +0.000 A 
BRANCH  23  25
ATOM     25  O   UNL     1      -1.718  17.373  18.462  0.00  0.00    +0.000 OA
ATOM     26  H   UNL     1      -1.924  18.318  18.543  0.00  0.00    +0.000 HD
ENDBRANCH  23  25
ENDBRANCH  11  19
TORSDOF 3
ENDMDL
MODEL 7
REMARK VINA RESULT:      -6.8      3.572      7.115
REMARK  Name = 
REMARK  5 active torsions:
REMARK  status: ('A' for Active; 'I' for Inactive)
REMARK    1  A    between atoms: C_1  and  C_2
REMARK    2  A    between atoms: C_6  and  C_7
REMARK    3  A    between atoms: C_17  and  C_18
REMARK    4  A    between atoms: C_17  and  C_19
REMARK    5  A    between atoms: C_23  and  O_24
REMARK                            x       y       z     vdW  Elec       q    Type
REMARK                         _______ _______ _______ _____ _____    ______ ____
ROOT
ATOM      1  C   UNL     1       0.251  13.501  18.567  0.00  0.00    +0.000 C 
ATOM      2  C   UNL     1       0.226  12.504  19.740  0.00  0.00    +0.000 C 
ATOM      3  C   UNL     1      -0.810  12.858  20.851  0.00  0.00    +0.000 C 
ATOM      4  C   UNL     1      -0.722  14.299  21.366  0.00  0.00    +0.000 C 
ATOM      5  C   UNL     1      -1.946  14.600  22.213  0.00  0.00    +0.000 C 
ATOM      6  C   UNL     1      -2.131  13.607  23.365  0.00  0.00    +0.000 C 
ATOM      7  C   UNL     1      -1.530  12.199  23.149  0.00  0.00    +0.000 C 
ATOM      8  N   UNL     1      -0.663  11.938  21.987  0.00  0.00    +0.000 NA
ATOM      9  C   UNL     1      -0.740  10.509  21.652  0.00  0.00    +0.000 C 
ATOM     10  C   UNL     1       0.157  10.095  20.498  0.00  0.00    +0.000 C 
ATOM     11  C   UNL     1       0.082  11.005  19.245  0.00  0.00    +0.000 C 
ATOM     12  C   UNL     1       1.368  10.641  18.435  0.00  0.00    +0.000 C 
ENDROOT
BRANCH   6  13
ATOM     13  C   UNL     1      -3.610  13.500  23.724  0.00  0.00    +0.000 A 
ATOM     14  C   UNL     1      -4.094  12.405  24.464  0.00  0.00    +0.000 A 
ATOM     15  C   UNL     1      -5.452  12.284  24.756  0.00  0.00    +0.000 A 
ATOM     16  C   UNL     1      -6.343  13.259  24.321  0.00  0.00    +0.000 A 
ATOM     17  C   UNL     1      -5.874  14.365  23.611  0.00  0.00    +0.000 A 
ATOM     18  C   UNL     1      -4.515  14.487  23.316  0.00  0.00    +0.000 A 
ENDBRANCH   6  13
BRANCH  11  19
ATOM     19  C   UNL     1      -1.211  10.750  18.400  0.00  0.00    +0.000 A 
ATOM     20  C   UNL     1      -1.241   9.848  17.322  0.00  0.00    +0.000 A 
ATOM     21  C   UNL     1      -2.366   9.722  16.489  0.00  0.00    +0.000 A 
ATOM     22  C   UNL     1      -3.497  10.505  16.694  0.00  0.00    +0.000 A 
ATOM     23  C   UNL     1      -3.509  11.364  17.773  0.00  0.00    +0.000 A 
ATOM     24  C   UNL     1      -2.412  11.447  18.632  0.00  0.00    +0.000 A 
BRANCH  23  25
ATOM     25  O   UNL     1      -4.568  12.185  18.032  0.00  0.00    +0.000 OA
ATOM     26  H   UNL     1      -5.353  11.827  17.589  0.00  0.00    +0.000 HD
ENDBRANCH  23  25
ENDBRANCH  11  19
TORSDOF 3
ENDMDL
MODEL 8
REMARK VINA RESULT:      -6.7      3.441      6.966
REMARK  Name = 
REMARK  5 active torsions:
REMARK  status: ('A' for Active; 'I' for Inactive)
REMARK    1  A    between atoms: C_1  and  C_2
REMARK    2  A    between atoms: C_6  and  C_7
REMARK    3  A    between atoms: C_17  and  C_18
REMARK    4  A    between atoms: C_17  and  C_19
REMARK    5  A    between atoms: C_23  and  O_24
REMARK                            x       y       z     vdW  Elec       q    Type
REMARK                         _______ _______ _______ _____ _____    ______ ____
ROOT
ATOM      1  C   UNL     1       0.276   9.263  17.999  0.00  0.00    +0.000 C 
ATOM      2  C   UNL     1      -0.377  10.652  18.130  0.00  0.00    +0.000 C 
ATOM      3  C   UNL     1      -1.927  10.611  18.295  0.00  0.00    +0.000 C 
ATOM      4  C   UNL     1      -2.656   9.766  17.243  0.00  0.00    +0.000 C 
ATOM      5  C   UNL     1      -4.098   9.569  17.676  0.00  0.00    +0.000 C 
ATOM      6  C   UNL     1      -4.828  10.892  17.932  0.00  0.00    +0.000 C 
ATOM      7  C   UNL     1      -3.938  12.089  18.339  0.00  0.00    +0.000 C 
ATOM      8  N   UNL     1      -2.472  11.975  18.269  0.00  0.00    +0.000 NA
ATOM      9  C   UNL     1      -1.878  12.907  19.238  0.00  0.00    +0.000 C 
ATOM     10  C   UNL     1      -0.360  12.928  19.225  0.00  0.00    +0.000 C 
ATOM     11  C   UNL     1       0.320  11.534  19.247  0.00  0.00    +0.000 C 
ATOM     12  C   UNL     1       1.785  11.821  18.789  0.00  0.00    +0.000 C 
ENDROOT
BRANCH   6  13
ATOM     13  C   UNL     1      -5.935  10.682  18.962  0.00  0.00    +0.000 A 
ATOM     14  C   UNL     1      -6.379  11.747  19.768  0.00  0.00    +0.000 A 
ATOM     15  C   UNL     1      -7.359  11.547  20.740  0.00  0.00    +0.000 A 
ATOM     16  C   UNL     1      -7.915  10.284  20.912  0.00  0.00    +0.000 A 
ATOM     17  C   UNL     1      -7.505   9.225  20.101  0.00  0.00    +0.000 A 
ATOM     18  C   UNL     1      -6.522   9.422  19.129  0.00  0.00    +0.000 A 
ENDBRANCH   6  13
BRANCH  11  19
ATOM     19  C   UNL     1       0.288  10.879  20.668  0.00  0.00    +0.000 A 
ATOM     20  C   UNL     1       1.172   9.853  21.045  0.00  0.00    +0.000 A 
ATOM     21  C   UNL     1       1.051   9.181  22.274  0.00  0.00    +0.000 A 
ATOM     22  C   UNL     1       0.032   9.501  23.165  0.00  0.00    +0.000 A 
ATOM     23  C   UNL     1      -0.820  10.536  22.838  0.00  0.00    +0.000 A 
ATOM     24  C   UNL     1      -0.664  11.238  21.642  0.00  0.00    +0.000 A 
BRANCH  23  25
ATOM     25  O   UNL     1      -1.860  10.898  23.643  0.00  0.00    +0.000 OA
ATOM     26  H   UNL     1      -2.490  11.420  23.120  0.00  0.00    +0.000 HD
ENDBRANCH  23  25
ENDBRANCH  11  19
TORSDOF 3
ENDMDL
MODEL 9
REMARK VINA RESULT:      -6.7      3.996      6.330
REMARK  Name = 
REMARK  5 active torsions:
REMARK  status: ('A' for Active; 'I' for Inactive)
REMARK    1  A    between atoms: C_1  and  C_2
REMARK    2  A    between atoms: C_6  and  C_7
REMARK    3  A    between atoms: C_17  and  C_18
REMARK    4  A    between atoms: C_17  and  C_19
REMARK    5  A    between atoms: C_23  and  O_24
REMARK                            x       y       z     vdW  Elec       q    Type
REMARK                         _______ _______ _______ _____ _____    ______ ____
ROOT
ATOM      1  C   UNL     1      -4.531  12.296  24.592  0.00  0.00    +0.000 C 
ATOM      2  C   UNL     1      -3.938  13.253  23.541  0.00  0.00    +0.000 C 
ATOM      3  C   UNL     1      -2.843  12.606  22.639  0.00  0.00    +0.000 C 
ATOM      4  C   UNL     1      -1.728  11.888  23.409  0.00  0.00    +0.000 C 
ATOM      5  C   UNL     1      -0.903  11.065  22.435  0.00  0.00    +0.000 C 
ATOM      6  C   UNL     1      -0.335  11.900  21.282  0.00  0.00    +0.000 C 
ATOM      7  C   UNL     1      -1.133  13.172  20.911  0.00  0.00    +0.000 C 
ATOM      8  N   UNL     1      -2.240  13.625  21.769  0.00  0.00    +0.000 NA
ATOM      9  C   UNL     1      -3.189  14.394  20.952  0.00  0.00    +0.000 C 
ATOM     10  C   UNL     1      -4.355  14.969  21.735  0.00  0.00    +0.000 C 
ATOM     11  C   UNL     1      -5.064  13.975  22.691  0.00  0.00    +0.000 C 
ATOM     12  C   UNL     1      -5.882  14.892  23.654  0.00  0.00    +0.000 C 
ENDROOT
BRANCH   6  13
ATOM     13  C   UNL     1      -0.142  11.020  20.051  0.00  0.00    +0.000 A 
ATOM     14  C   UNL     1       1.038  10.273  19.878  0.00  0.00    +0.000 A 
ATOM     15  C   UNL     1       1.235   9.503  18.733  0.00  0.00    +0.000 A 
ATOM     16  C   UNL     1       0.252   9.459  17.751  0.00  0.00    +0.000 A 
ATOM     17  C   UNL     1      -0.935  10.171  17.921  0.00  0.00    +0.000 A 
ATOM     18  C   UNL     1      -1.133  10.946  19.066  0.00  0.00    +0.000 A 
ENDBRANCH   6  13
BRANCH  11  19
ATOM     19  C   UNL     1      -6.000  12.980  21.925  0.00  0.00    +0.000 A 
ATOM     20  C   UNL     1      -7.156  12.432  22.509  0.00  0.00    +0.000 A 
ATOM     21  C   UNL     1      -7.916  11.441  21.865  0.00  0.00    +0.000 A 
ATOM     22  C   UNL     1      -7.540  10.950  20.618  0.00  0.00    +0.000 A 
ATOM     23  C   UNL     1      -6.435  11.505  20.005  0.00  0.00    +0.000 A 
ATOM     24  C   UNL     1      -5.714  12.527  20.623  0.00  0.00    +0.000 A 
BRANCH  23  25
ATOM     25  O   UNL     1      -5.983  11.065  18.795  0.00  0.00    +0.000 OA
ATOM     26  H   UNL     1      -5.824  11.835  18.226  0.00  0.00    +0.000 HD
ENDBRANCH  23  25
ENDBRANCH  11  19
TORSDOF 3
ENDMDL
