MODEL 1
REMARK VINA RESULT:      -8.7      0.000      0.000
REMARK  Name = 
REMARK  4 active torsions:
REMARK  status: ('A' for Active; 'I' for Inactive)
REMARK    1  A    between atoms: C_1  and  C_17
REMARK    2  A    between atoms: C_2  and  C_3
REMARK    3  A    between atoms: C_8  and  C_9
REMARK    4  A    between atoms: C_22  and  C_23
REMARK                            x       y       z     vdW  Elec       q    Type
REMARK                         _______ _______ _______ _____ _____    ______ ____
ROOT
ATOM      1  C   UNL     1       2.152   7.105  19.842  0.00  0.00    +0.000 C 
ATOM      2  C   UNL     1       1.780   8.338  19.444  0.00  0.00    +0.000 C 
ENDROOT
BRANCH   2   3
ATOM      3  C   UNL     1       0.967   9.159  20.271  0.00  0.00    +0.000 A 
ATOM      4  C   UNL     1       0.690   9.172  21.623  0.00  0.00    +0.000 A 
ATOM      5  C   UNL     1      -0.216  10.228  21.890  0.00  0.00    +0.000 A 
ATOM      6  C   UNL     1      -0.831  10.688  23.065  0.00  0.00    +0.000 A 
ATOM      7  C   UNL     1      -1.699  11.777  22.993  0.00  0.00    +0.000 A 
ATOM      8  C   UNL     1      -1.964  12.410  21.774  0.00  0.00    +0.000 A 
ATOM      9  C   UNL     1      -1.370  11.957  20.582  0.00  0.00    +0.000 A 
ATOM     10  C   UNL     1      -0.489  10.861  20.675  0.00  0.00    +0.000 A 
ATOM     11  N   UNL     1       0.243  10.195  19.710  0.00  0.00    +0.000 N 
ATOM     12  H   UNL     1       0.234  10.437  18.727  0.00  0.00    +0.000 HD
BRANCH   8  13
ATOM     13  C   UNL     1      -2.917  13.550  21.781  0.00  0.00    +0.000 C 
ATOM     14  N   UNL     1      -3.433  14.026  22.884  0.00  0.00    +0.000 NA
ATOM     15  C   UNL     1      -4.318  15.144  22.442  0.00  0.00    +0.000 C 
ATOM     16  C   UNL     1      -4.211  15.240  20.917  0.00  0.00    +0.000 C 
ATOM     17  N   UNL     1      -3.281  14.183  20.616  0.00  0.00    +0.000 N 
ATOM     18  H   UNL     1      -3.449  13.613  19.796  0.00  0.00    +0.000 HD
ENDBRANCH   8  13
ENDBRANCH   2   3
BRANCH   1  19
ATOM     19  C   UNL     1       2.932   6.257  19.011  0.00  0.00    +0.000 A 
ATOM     20  C   UNL     1       3.283   4.922  19.052  0.00  0.00    +0.000 A 
ATOM     21  C   UNL     1       4.099   4.636  17.928  0.00  0.00    +0.000 A 
ATOM     22  C   UNL     1       4.727   3.465  17.471  0.00  0.00    +0.000 A 
ATOM     23  C   UNL     1       5.480   3.506  16.295  0.00  0.00    +0.000 A 
ATOM     24  C   UNL     1       5.621   4.697  15.575  0.00  0.00    +0.000 A 
ATOM     25  C   UNL     1       5.018   5.885  16.024  0.00  0.00    +0.000 A 
ATOM     26  C   UNL     1       4.252   5.819  17.205  0.00  0.00    +0.000 A 
ATOM     27  N   UNL     1       3.538   6.788  17.886  0.00  0.00    +0.000 N 
ATOM     28  H   UNL     1       3.475   7.752  17.592  0.00  0.00    +0.000 HD
BRANCH  24  29
ATOM     29  C   UNL     1       6.450   4.668  14.338  0.00  0.00    +0.000 C 
ATOM     30  N   UNL     1       7.448   5.493  14.145  0.00  0.00    +0.000 NA
ATOM     31  C   UNL     1       7.995   5.127  12.807  0.00  0.00    +0.000 C 
ATOM     32  C   UNL     1       7.142   3.980  12.260  0.00  0.00    +0.000 C 
ATOM     33  N   UNL     1       6.211   3.755  13.337  0.00  0.00    +0.000 N 
ATOM     34  H   UNL     1       5.241   3.609  13.082  0.00  0.00    +0.000 HD
ENDBRANCH  24  29
ENDBRANCH   1  19
TORSDOF 4
ENDMDL
MODEL 2
REMARK VINA RESULT:      -8.6      7.621     11.093
REMARK  Name = 
REMARK  4 active torsions:
REMARK  status: ('A' for Active; 'I' for Inactive)
REMARK    1  A    between atoms: C_1  and  C_17
REMARK    2  A    between atoms: C_2  and  C_3
REMARK    3  A    between atoms: C_8  and  C_9
REMARK    4  A    between atoms: C_22  and  C_23
REMARK                            x       y       z     vdW  Elec       q    Type
REMARK                         _______ _______ _______ _____ _____    ______ ____
ROOT
ATOM      1  C   UNL     1       8.109   9.403  17.876  0.00  0.00    +0.000 C 
ATOM      2  C   UNL     1       8.317   8.114  18.208  0.00  0.00    +0.000 C 
ENDROOT
BRANCH   2   3
ATOM      3  C   UNL     1       7.371   7.109  17.869  0.00  0.00    +0.000 A 
ATOM      4  C   UNL     1       7.124   6.382  16.721  0.00  0.00    +0.000 A 
ATOM      5  C   UNL     1       6.030   5.516  16.961  0.00  0.00    +0.000 A 
ATOM      6  C   UNL     1       5.359   4.577  16.160  0.00  0.00    +0.000 A 
ATOM      7  C   UNL     1       4.288   3.867  16.703  0.00  0.00    +0.000 A 
ATOM      8  C   UNL     1       3.878   4.078  18.024  0.00  0.00    +0.000 A 
ATOM      9  C   UNL     1       4.526   5.023  18.839  0.00  0.00    +0.000 A 
ATOM     10  C   UNL     1       5.612   5.725  18.277  0.00  0.00    +0.000 A 
ATOM     11  N   UNL     1       6.443   6.694  18.805  0.00  0.00    +0.000 N 
ATOM     12  H   UNL     1       6.366   7.051  19.750  0.00  0.00    +0.000 HD
BRANCH   8  13
ATOM     13  C   UNL     1       2.714   3.296  18.518  0.00  0.00    +0.000 C 
ATOM     14  N   UNL     1       1.722   2.948  17.741  0.00  0.00    +0.000 NA
ATOM     15  C   UNL     1       0.790   2.190  18.627  0.00  0.00    +0.000 C 
ATOM     16  C   UNL     1       1.416   2.145  20.024  0.00  0.00    +0.000 C 
ATOM     17  N   UNL     1       2.642   2.872  19.824  0.00  0.00    +0.000 N 
ATOM     18  H   UNL     1       2.949   3.509  20.550  0.00  0.00    +0.000 HD
ENDBRANCH   8  13
ENDBRANCH   2   3
BRANCH   1  19
ATOM     19  C   UNL     1       9.025  10.425  18.243  0.00  0.00    +0.000 A 
ATOM     20  C   UNL     1      10.151  10.472  19.040  0.00  0.00    +0.000 A 
ATOM     21  C   UNL     1      10.657  11.797  19.029  0.00  0.00    +0.000 A 
ATOM     22  C   UNL     1      11.760  12.408  19.648  0.00  0.00    +0.000 A 
ATOM     23  C   UNL     1      12.001  13.767  19.431  0.00  0.00    +0.000 A 
ATOM     24  C   UNL     1      11.155  14.523  18.614  0.00  0.00    +0.000 A 
ATOM     25  C   UNL     1      10.034  13.938  18.002  0.00  0.00    +0.000 A 
ATOM     26  C   UNL     1       9.817  12.563  18.222  0.00  0.00    +0.000 A 
ATOM     27  N   UNL     1       8.832  11.707  17.762  0.00  0.00    +0.000 N 
ATOM     28  H   UNL     1       8.076  11.993  17.155  0.00  0.00    +0.000 HD
BRANCH  24  29
ATOM     29  C   UNL     1      11.465  15.969  18.441  0.00  0.00    +0.000 C 
ATOM     30  N   UNL     1      11.549  16.531  17.262  0.00  0.00    +0.000 NA
ATOM     31  C   UNL     1      11.869  17.961  17.539  0.00  0.00    +0.000 C 
ATOM     32  C   UNL     1      11.976  18.122  19.057  0.00  0.00    +0.000 C 
ATOM     33  N   UNL     1      11.668  16.793  19.525  0.00  0.00    +0.000 N 
ATOM     34  H   UNL     1      12.247  16.423  20.270  0.00  0.00    +0.000 HD
ENDBRANCH  24  29
ENDBRANCH   1  19
TORSDOF 4
ENDMDL
MODEL 3
REMARK VINA RESULT:      -8.6      1.380      1.407
REMARK  Name = 
REMARK  4 active torsions:
REMARK  status: ('A' for Active; 'I' for Inactive)
REMARK    1  A    between atoms: C_1  and  C_17
REMARK    2  A    between atoms: C_2  and  C_3
REMARK    3  A    between atoms: C_8  and  C_9
REMARK    4  A    between atoms: C_22  and  C_23
REMARK                            x       y       z     vdW  Elec       q    Type
REMARK                         _______ _______ _______ _____ _____    ______ ____
ROOT
ATOM      1  C   UNL     1       2.109   7.385  19.973  0.00  0.00    +0.000 C 
ATOM      2  C   UNL     1       1.619   8.562  19.537  0.00  0.00    +0.000 C 
ENDROOT
BRANCH   2   3
ATOM      3  C   UNL     1       0.905   9.426  20.411  0.00  0.00    +0.000 A 
ATOM      4  C   UNL     1      -0.005   9.213  21.427  0.00  0.00    +0.000 A 
ATOM      5  C   UNL     1      -0.402  10.469  21.949  0.00  0.00    +0.000 A 
ATOM      6  C   UNL     1      -1.294  10.843  22.967  0.00  0.00    +0.000 A 
ATOM      7  C   UNL     1      -1.473  12.198  23.246  0.00  0.00    +0.000 A 
ATOM      8  C   UNL     1      -0.780  13.179  22.529  0.00  0.00    +0.000 A 
ATOM      9  C   UNL     1       0.107  12.828  21.497  0.00  0.00    +0.000 A 
ATOM     10  C   UNL     1       0.282  11.454  21.234  0.00  0.00    +0.000 A 
ATOM     11  N   UNL     1       1.069  10.795  20.309  0.00  0.00    +0.000 N 
ATOM     12  H   UNL     1       1.674  11.263  19.646  0.00  0.00    +0.000 HD
BRANCH   8  13
ATOM     13  C   UNL     1      -1.043  14.601  22.875  0.00  0.00    +0.000 C 
ATOM     14  N   UNL     1      -0.623  15.141  23.989  0.00  0.00    +0.000 NA
ATOM     15  C   UNL     1      -1.096  16.556  23.932  0.00  0.00    +0.000 C 
ATOM     16  C   UNL     1      -1.834  16.740  22.603  0.00  0.00    +0.000 C 
ATOM     17  N   UNL     1      -1.722  15.431  22.015  0.00  0.00    +0.000 N 
ATOM     18  H   UNL     1      -2.523  15.054  21.521  0.00  0.00    +0.000 HD
ENDBRANCH   8  13
ENDBRANCH   2   3
BRANCH   1  19
ATOM     19  C   UNL     1       2.791   6.493  19.103  0.00  0.00    +0.000 A 
ATOM     20  C   UNL     1       2.914   5.120  19.031  0.00  0.00    +0.000 A 
ATOM     21  C   UNL     1       3.743   4.799  17.926  0.00  0.00    +0.000 A 
ATOM     22  C   UNL     1       4.198   3.583  17.389  0.00  0.00    +0.000 A 
ATOM     23  C   UNL     1       5.021   3.598  16.261  0.00  0.00    +0.000 A 
ATOM     24  C   UNL     1       5.402   4.805  15.667  0.00  0.00    +0.000 A 
ATOM     25  C   UNL     1       4.976   6.035  16.200  0.00  0.00    +0.000 A 
ATOM     26  C   UNL     1       4.134   5.997  17.329  0.00  0.00    +0.000 A 
ATOM     27  N   UNL     1       3.547   7.009  18.066  0.00  0.00    +0.000 N 
ATOM     28  H   UNL     1       3.663   7.992  17.865  0.00  0.00    +0.000 HD
BRANCH  24  29
ATOM     29  C   UNL     1       6.294   4.745  14.476  0.00  0.00    +0.000 C 
ATOM     30  N   UNL     1       7.383   5.463  14.379  0.00  0.00    +0.000 NA
ATOM     31  C   UNL     1       7.965   5.104  13.054  0.00  0.00    +0.000 C 
ATOM     32  C   UNL     1       7.027   4.085  12.402  0.00  0.00    +0.000 C 
ATOM     33  N   UNL     1       6.016   3.912  13.416  0.00  0.00    +0.000 N 
ATOM     34  H   UNL     1       5.052   3.887  13.103  0.00  0.00    +0.000 HD
ENDBRANCH  24  29
ENDBRANCH   1  19
TORSDOF 4
ENDMDL
MODEL 4
REMARK VINA RESULT:      -8.5      0.297     11.984
REMARK  Name = 
REMARK  4 active torsions:
REMARK  status: ('A' for Active; 'I' for Inactive)
REMARK    1  A    between atoms: C_1  and  C_17
REMARK    2  A    between atoms: C_2  and  C_3
REMARK    3  A    between atoms: C_8  and  C_9
REMARK    4  A    between atoms: C_22  and  C_23
REMARK                            x       y       z     vdW  Elec       q    Type
REMARK                         _______ _______ _______ _____ _____    ______ ____
ROOT
ATOM      1  C   UNL     1       1.556   8.446  19.396  0.00  0.00    +0.000 C 
ATOM      2  C   UNL     1       2.148   7.339  19.885  0.00  0.00    +0.000 C 
ENDROOT
BRANCH   2   3
ATOM      3  C   UNL     1       2.891   6.472  19.039  0.00  0.00    +0.000 A 
ATOM      4  C   UNL     1       3.179   5.122  19.076  0.00  0.00    +0.000 A 
ATOM      5  C   UNL     1       3.987   4.801  17.957  0.00  0.00    +0.000 A 
ATOM      6  C   UNL     1       4.568   3.604  17.508  0.00  0.00    +0.000 A 
ATOM      7  C   UNL     1       5.332   3.619  16.341  0.00  0.00    +0.000 A 
ATOM      8  C   UNL     1       5.525   4.802  15.620  0.00  0.00    +0.000 A 
ATOM      9  C   UNL     1       4.964   6.015  16.059  0.00  0.00    +0.000 A 
ATOM     10  C   UNL     1       4.188   5.980  17.235  0.00  0.00    +0.000 A 
ATOM     11  N   UNL     1       3.511   6.977  17.911  0.00  0.00    +0.000 N 
ATOM     12  H   UNL     1       3.487   7.945  17.615  0.00  0.00    +0.000 HD
BRANCH   8  13
ATOM     13  C   UNL     1       6.369   4.736  14.399  0.00  0.00    +0.000 C 
ATOM     14  N   UNL     1       6.059   3.989  13.372  0.00  0.00    +0.000 NA
ATOM     15  C   UNL     1       7.156   4.219  12.386  0.00  0.00    +0.000 C 
ATOM     16  C   UNL     1       8.129   5.227  13.005  0.00  0.00    +0.000 C 
ATOM     17  N   UNL     1       7.513   5.490  14.280  0.00  0.00    +0.000 N 
ATOM     18  H   UNL     1       8.110   5.582  15.094  0.00  0.00    +0.000 HD
ENDBRANCH   8  13
ENDBRANCH   2   3
BRANCH   1  19
ATOM     19  C   UNL     1       0.777   9.302  20.221  0.00  0.00    +0.000 A 
ATOM     20  C   UNL     1       0.565   9.401  21.581  0.00  0.00    +0.000 A 
ATOM     21  C   UNL     1      -0.336  10.470  21.820  0.00  0.00    +0.000 A 
ATOM     22  C   UNL     1      -0.892  11.012  22.990  0.00  0.00    +0.000 A 
ATOM     23  C   UNL     1      -1.769  12.096  22.893  0.00  0.00    +0.000 A 
ATOM     24  C   UNL     1      -2.103  12.638  21.649  0.00  0.00    +0.000 A 
ATOM     25  C   UNL     1      -1.575  12.098  20.463  0.00  0.00    +0.000 A 
ATOM     26  C   UNL     1      -0.682  11.015  20.584  0.00  0.00    +0.000 A 
ATOM     27  N   UNL     1       0.003  10.284  19.630  0.00  0.00    +0.000 N 
ATOM     28  H   UNL     1      -0.062  10.455  18.637  0.00  0.00    +0.000 HD
BRANCH  24  29
ATOM     29  C   UNL     1      -3.055  13.783  21.622  0.00  0.00    +0.000 C 
ATOM     30  N   UNL     1      -3.936  13.985  22.568  0.00  0.00    +0.000 NA
ATOM     31  C   UNL     1      -4.670  15.215  22.156  0.00  0.00    +0.000 C 
ATOM     32  C   UNL     1      -4.085  15.671  20.817  0.00  0.00    +0.000 C 
ATOM     33  N   UNL     1      -3.043  14.699  20.595  0.00  0.00    +0.000 N 
ATOM     34  H   UNL     1      -2.958  14.324  19.657  0.00  0.00    +0.000 HD
ENDBRANCH  24  29
ENDBRANCH   1  19
TORSDOF 4
ENDMDL
MODEL 5
REMARK VINA RESULT:      -8.5      1.272     11.963
REMARK  Name = 
REMARK  4 active torsions:
REMARK  status: ('A' for Active; 'I' for Inactive)
REMARK    1  A    between atoms: C_1  and  C_17
REMARK    2  A    between atoms: C_2  and  C_3
REMARK    3  A    between atoms: C_8  and  C_9
REMARK    4  A    between atoms: C_22  and  C_23
REMARK                            x       y       z     vdW  Elec       q    Type
REMARK                         _______ _______ _______ _____ _____    ______ ____
ROOT
ATOM      1  C   UNL     1       1.664   8.420  19.499  0.00  0.00    +0.000 C 
ATOM      2  C   UNL     1       2.216   7.261  19.909  0.00  0.00    +0.000 C 
ENDROOT
BRANCH   2   3
ATOM      3  C   UNL     1       2.901   6.415  18.996  0.00  0.00    +0.000 A 
ATOM      4  C   UNL     1       3.046   5.046  18.892  0.00  0.00    +0.000 A 
ATOM      5  C   UNL     1       3.865   4.760  17.772  0.00  0.00    +0.000 A 
ATOM      6  C   UNL     1       4.338   3.563  17.212  0.00  0.00    +0.000 A 
ATOM      7  C   UNL     1       5.150   3.620  16.080  0.00  0.00    +0.000 A 
ATOM      8  C   UNL     1       5.496   4.845  15.501  0.00  0.00    +0.000 A 
ATOM      9  C   UNL     1       5.045   6.057  16.053  0.00  0.00    +0.000 A 
ATOM     10  C   UNL     1       4.218   5.981  17.192  0.00  0.00    +0.000 A 
ATOM     11  N   UNL     1       3.619   6.967  17.952  0.00  0.00    +0.000 N 
ATOM     12  H   UNL     1       3.709   7.958  17.765  0.00  0.00    +0.000 HD
BRANCH   8  13
ATOM     13  C   UNL     1       6.383   4.819  14.308  0.00  0.00    +0.000 C 
ATOM     14  N   UNL     1       7.454   5.563  14.215  0.00  0.00    +0.000 NA
ATOM     15  C   UNL     1       8.038   5.229  12.882  0.00  0.00    +0.000 C 
ATOM     16  C   UNL     1       7.140   4.167  12.240  0.00  0.00    +0.000 C 
ATOM     17  N   UNL     1       6.130   3.981  13.248  0.00  0.00    +0.000 N 
ATOM     18  H   UNL     1       5.168   3.865  12.952  0.00  0.00    +0.000 HD
ENDBRANCH   8  13
ENDBRANCH   2   3
BRANCH   1  19
ATOM     19  C   UNL     1       0.941   9.259  20.390  0.00  0.00    +0.000 A 
ATOM     20  C   UNL     1       0.097   9.032  21.458  0.00  0.00    +0.000 A 
ATOM     21  C   UNL     1      -0.333  10.285  21.966  0.00  0.00    +0.000 A 
ATOM     22  C   UNL     1      -1.181  10.650  23.025  0.00  0.00    +0.000 A 
ATOM     23  C   UNL     1      -1.409  12.004  23.283  0.00  0.00    +0.000 A 
ATOM     24  C   UNL     1      -0.811  12.994  22.498  0.00  0.00    +0.000 A 
ATOM     25  C   UNL     1       0.024  12.651  21.420  0.00  0.00    +0.000 A 
ATOM     26  C   UNL     1       0.252  11.281  21.186  0.00  0.00    +0.000 A 
ATOM     27  N   UNL     1       1.017  10.631  20.233  0.00  0.00    +0.000 N 
ATOM     28  H   UNL     1       1.553  11.107  19.522  0.00  0.00    +0.000 HD
BRANCH  24  29
ATOM     29  C   UNL     1      -1.111  14.416  22.823  0.00  0.00    +0.000 C 
ATOM     30  N   UNL     1      -0.174  15.322  22.936  0.00  0.00    +0.000 NA
ATOM     31  C   UNL     1      -0.896  16.586  23.261  0.00  0.00    +0.000 C 
ATOM     32  C   UNL     1      -2.389  16.254  23.336  0.00  0.00    +0.000 C 
ATOM     33  N   UNL     1      -2.404  14.850  23.008  0.00  0.00    +0.000 N 
ATOM     34  H   UNL     1      -3.004  14.255  23.567  0.00  0.00    +0.000 HD
ENDBRANCH  24  29
ENDBRANCH   1  19
TORSDOF 4
ENDMDL
MODEL 6
REMARK VINA RESULT:      -8.4      7.475      9.687
REMARK  Name = 
REMARK  4 active torsions:
REMARK  status: ('A' for Active; 'I' for Inactive)
REMARK    1  A    between atoms: C_1  and  C_17
REMARK    2  A    between atoms: C_2  and  C_3
REMARK    3  A    between atoms: C_8  and  C_9
REMARK    4  A    between atoms: C_22  and  C_23
REMARK                            x       y       z     vdW  Elec       q    Type
REMARK                         _______ _______ _______ _____ _____    ______ ____
ROOT
ATOM      1  C   UNL     1       7.805   8.830  17.539  0.00  0.00    +0.000 C 
ATOM      2  C   UNL     1       8.473   9.103  18.676  0.00  0.00    +0.000 C 
ENDROOT
BRANCH   2   3
ATOM      3  C   UNL     1       9.218  10.305  18.818  0.00  0.00    +0.000 A 
ATOM      4  C   UNL     1      10.330  10.655  19.556  0.00  0.00    +0.000 A 
ATOM      5  C   UNL     1      10.628  12.017  19.309  0.00  0.00    +0.000 A 
ATOM      6  C   UNL     1      11.625  12.882  19.788  0.00  0.00    +0.000 A 
ATOM      7  C   UNL     1      11.646  14.204  19.343  0.00  0.00    +0.000 A 
ATOM      8  C   UNL     1      10.693  14.674  18.433  0.00  0.00    +0.000 A 
ATOM      9  C   UNL     1       9.677  13.830  17.951  0.00  0.00    +0.000 A 
ATOM     10  C   UNL     1       9.676  12.495  18.405  0.00  0.00    +0.000 A 
ATOM     11  N   UNL     1       8.835  11.436  18.121  0.00  0.00    +0.000 N 
ATOM     12  H   UNL     1       8.043  11.496  17.494  0.00  0.00    +0.000 HD
BRANCH   8  13
ATOM     13  C   UNL     1      10.773  16.101  18.026  0.00  0.00    +0.000 C 
ATOM     14  N   UNL     1      11.873  16.637  17.562  0.00  0.00    +0.000 NA
ATOM     15  C   UNL     1      11.516  18.059  17.281  0.00  0.00    +0.000 C 
ATOM     16  C   UNL     1      10.039  18.243  17.640  0.00  0.00    +0.000 C 
ATOM     17  N   UNL     1       9.675  16.925  18.090  0.00  0.00    +0.000 N 
ATOM     18  H   UNL     1       9.063  16.841  18.893  0.00  0.00    +0.000 HD
ENDBRANCH   8  13
ENDBRANCH   2   3
BRANCH   1  19
ATOM     19  C   UNL     1       7.089   7.615  17.367  0.00  0.00    +0.000 A 
ATOM     20  C   UNL     1       7.205   6.539  16.510  0.00  0.00    +0.000 A 
ATOM     21  C   UNL     1       6.181   5.606  16.818  0.00  0.00    +0.000 A 
ATOM     22  C   UNL     1       5.829   4.357  16.281  0.00  0.00    +0.000 A 
ATOM     23  C   UNL     1       4.743   3.662  16.819  0.00  0.00    +0.000 A 
ATOM     24  C   UNL     1       4.001   4.198  17.876  0.00  0.00    +0.000 A 
ATOM     25  C   UNL     1       4.323   5.456  18.415  0.00  0.00    +0.000 A 
ATOM     26  C   UNL     1       5.430   6.133  17.868  0.00  0.00    +0.000 A 
ATOM     27  N   UNL     1       5.999   7.355  18.179  0.00  0.00    +0.000 N 
ATOM     28  H   UNL     1       5.655   7.968  18.904  0.00  0.00    +0.000 HD
BRANCH  24  29
ATOM     29  C   UNL     1       2.848   3.408  18.388  0.00  0.00    +0.000 C 
ATOM     30  N   UNL     1       1.857   3.034  17.619  0.00  0.00    +0.000 NA
ATOM     31  C   UNL     1       0.936   2.279  18.517  0.00  0.00    +0.000 C 
ATOM     32  C   UNL     1       1.546   2.298  19.920  0.00  0.00    +0.000 C 
ATOM     33  N   UNL     1       2.776   3.018  19.707  0.00  0.00    +0.000 N 
ATOM     34  H   UNL     1       3.025   3.717  20.397  0.00  0.00    +0.000 HD
ENDBRANCH  24  29
ENDBRANCH   1  19
TORSDOF 4
ENDMDL
MODEL 7
REMARK VINA RESULT:      -8.4      7.916     12.310
REMARK  Name = 
REMARK  4 active torsions:
REMARK  status: ('A' for Active; 'I' for Inactive)
REMARK    1  A    between atoms: C_1  and  C_17
REMARK    2  A    between atoms: C_2  and  C_3
REMARK    3  A    between atoms: C_8  and  C_9
REMARK    4  A    between atoms: C_22  and  C_23
REMARK                            x       y       z     vdW  Elec       q    Type
REMARK                         _______ _______ _______ _____ _____    ______ ____
ROOT
ATOM      1  C   UNL     1       8.204   9.190  17.833  0.00  0.00    +0.000 C 
ATOM      2  C   UNL     1       8.189   7.944  18.346  0.00  0.00    +0.000 C 
ENDROOT
BRANCH   2   3
ATOM      3  C   UNL     1       7.508   6.888  17.684  0.00  0.00    +0.000 A 
ATOM      4  C   UNL     1       6.728   5.836  18.121  0.00  0.00    +0.000 A 
ATOM      5  C   UNL     1       6.316   5.080  16.996  0.00  0.00    +0.000 A 
ATOM      6  C   UNL     1       5.533   3.923  16.854  0.00  0.00    +0.000 A 
ATOM      7  C   UNL     1       5.309   3.409  15.577  0.00  0.00    +0.000 A 
ATOM      8  C   UNL     1       5.851   4.027  14.446  0.00  0.00    +0.000 A 
ATOM      9  C   UNL     1       6.650   5.178  14.565  0.00  0.00    +0.000 A 
ATOM     10  C   UNL     1       6.859   5.689  15.862  0.00  0.00    +0.000 A 
ATOM     11  N   UNL     1       7.575   6.784  16.307  0.00  0.00    +0.000 N 
ATOM     12  H   UNL     1       8.083   7.413  15.697  0.00  0.00    +0.000 HD
BRANCH   8  13
ATOM     13  C   UNL     1       5.582   3.404  13.123  0.00  0.00    +0.000 C 
ATOM     14  N   UNL     1       4.464   3.596  12.473  0.00  0.00    +0.000 NA
ATOM     15  C   UNL     1       4.610   2.803  11.217  0.00  0.00    +0.000 C 
ATOM     16  C   UNL     1       5.993   2.145  11.247  0.00  0.00    +0.000 C 
ATOM     17  N   UNL     1       6.519   2.613  12.502  0.00  0.00    +0.000 N 
ATOM     18  H   UNL     1       7.050   1.966  13.074  0.00  0.00    +0.000 HD
ENDBRANCH   8  13
ENDBRANCH   2   3
BRANCH   1  19
ATOM     19  C   UNL     1       8.848  10.265  18.503  0.00  0.00    +0.000 A 
ATOM     20  C   UNL     1       9.421  10.421  19.749  0.00  0.00    +0.000 A 
ATOM     21  C   UNL     1       9.911  11.749  19.856  0.00  0.00    +0.000 A 
ATOM     22  C   UNL     1      10.574  12.446  20.879  0.00  0.00    +0.000 A 
ATOM     23  C   UNL     1      10.939  13.779  20.674  0.00  0.00    +0.000 A 
ATOM     24  C   UNL     1      10.644  14.426  19.470  0.00  0.00    +0.000 A 
ATOM     25  C   UNL     1       9.962  13.753  18.440  0.00  0.00    +0.000 A 
ATOM     26  C   UNL     1       9.617  12.405  18.662  0.00  0.00    +0.000 A 
ATOM     27  N   UNL     1       8.967  11.484  17.860  0.00  0.00    +0.000 N 
ATOM     28  H   UNL     1       8.629  11.687  16.930  0.00  0.00    +0.000 HD
BRANCH  24  29
ATOM     29  C   UNL     1      11.050  15.851  19.327  0.00  0.00    +0.000 C 
ATOM     30  N   UNL     1      10.672  16.590  18.315  0.00  0.00    +0.000 NA
ATOM     31  C   UNL     1      11.288  17.925  18.561  0.00  0.00    +0.000 C 
ATOM     32  C   UNL     1      12.093  17.827  19.859  0.00  0.00    +0.000 C 
ATOM     33  N   UNL     1      11.839  16.468  20.271  0.00  0.00    +0.000 N 
ATOM     34  H   UNL     1      12.631  15.937  20.613  0.00  0.00    +0.000 HD
ENDBRANCH  24  29
ENDBRANCH   1  19
TORSDOF 4
ENDMDL
MODEL 8
REMARK VINA RESULT:      -8.4      7.889      8.973
REMARK  Name = 
REMARK  4 active torsions:
REMARK  status: ('A' for Active; 'I' for Inactive)
REMARK    1  A    between atoms: C_1  and  C_17
REMARK    2  A    between atoms: C_2  and  C_3
REMARK    3  A    between atoms: C_8  and  C_9
REMARK    4  A    between atoms: C_22  and  C_23
REMARK                            x       y       z     vdW  Elec       q    Type
REMARK                         _______ _______ _______ _____ _____    ______ ____
ROOT
ATOM      1  C   UNL     1       8.150   7.989  18.320  0.00  0.00    +0.000 C 
ATOM      2  C   UNL     1       8.178   9.227  17.788  0.00  0.00    +0.000 C 
ENDROOT
BRANCH   2   3
ATOM      3  C   UNL     1       8.825  10.298  18.462  0.00  0.00    +0.000 A 
ATOM      4  C   UNL     1       9.448  10.414  19.688  0.00  0.00    +0.000 A 
ATOM      5  C   UNL     1       9.907  11.746  19.839  0.00  0.00    +0.000 A 
ATOM      6  C   UNL     1      10.587  12.413  20.870  0.00  0.00    +0.000 A 
ATOM      7  C   UNL     1      10.901  13.763  20.711  0.00  0.00    +0.000 A 
ATOM      8  C   UNL     1      10.549  14.453  19.547  0.00  0.00    +0.000 A 
ATOM      9  C   UNL     1       9.855  13.808  18.507  0.00  0.00    +0.000 A 
ATOM     10  C   UNL     1       9.553  12.443  18.681  0.00  0.00    +0.000 A 
ATOM     11  N   UNL     1       8.901  11.541  17.862  0.00  0.00    +0.000 N 
ATOM     12  H   UNL     1       8.525  11.774  16.951  0.00  0.00    +0.000 HD
BRANCH   8  13
ATOM     13  C   UNL     1      10.902  15.895  19.466  0.00  0.00    +0.000 C 
ATOM     14  N   UNL     1      12.078  16.349  19.814  0.00  0.00    +0.000 NA
ATOM     15  C   UNL     1      12.005  17.821  19.577  0.00  0.00    +0.000 C 
ATOM     16  C   UNL     1      10.611  18.130  19.024  0.00  0.00    +0.000 C 
ATOM     17  N   UNL     1      10.009  16.823  18.987  0.00  0.00    +0.000 N 
ATOM     18  H   UNL     1       9.036  16.733  19.258  0.00  0.00    +0.000 HD
ENDBRANCH   8  13
ENDBRANCH   2   3
BRANCH   1  19
ATOM     19  C   UNL     1       7.474   6.917  17.678  0.00  0.00    +0.000 A 
ATOM     20  C   UNL     1       6.694   5.866  18.117  0.00  0.00    +0.000 A 
ATOM     21  C   UNL     1       6.291   5.103  16.991  0.00  0.00    +0.000 A 
ATOM     22  C   UNL     1       5.503   3.949  16.848  0.00  0.00    +0.000 A 
ATOM     23  C   UNL     1       5.280   3.427  15.571  0.00  0.00    +0.000 A 
ATOM     24  C   UNL     1       5.837   4.033  14.441  0.00  0.00    +0.000 A 
ATOM     25  C   UNL     1       6.645   5.177  14.563  0.00  0.00    +0.000 A 
ATOM     26  C   UNL     1       6.846   5.696  15.858  0.00  0.00    +0.000 A 
ATOM     27  N   UNL     1       7.563   6.792  16.303  0.00  0.00    +0.000 N 
ATOM     28  H   UNL     1       8.080   7.410  15.695  0.00  0.00    +0.000 HD
BRANCH  24  29
ATOM     29  C   UNL     1       5.568   3.413  13.114  0.00  0.00    +0.000 C 
ATOM     30  N   UNL     1       4.454   3.616  12.459  0.00  0.00    +0.000 NA
ATOM     31  C   UNL     1       4.597   2.824  11.203  0.00  0.00    +0.000 C 
ATOM     32  C   UNL     1       5.956   2.123  11.255  0.00  0.00    +0.000 C 
ATOM     33  N   UNL     1       6.496   2.600  12.504  0.00  0.00    +0.000 N 
ATOM     34  H   UNL     1       6.955   1.917  13.095  0.00  0.00    +0.000 HD
ENDBRANCH  24  29
ENDBRANCH   1  19
TORSDOF 4
ENDMDL
MODEL 9
REMARK VINA RESULT:      -8.4      1.453      2.039
REMARK  Name = 
REMARK  4 active torsions:
REMARK  status: ('A' for Active; 'I' for Inactive)
REMARK    1  A    between atoms: C_1  and  C_17
REMARK    2  A    between atoms: C_2  and  C_3
REMARK    3  A    between atoms: C_8  and  C_9
REMARK    4  A    between atoms: C_22  and  C_23
REMARK                            x       y       z     vdW  Elec       q    Type
REMARK                         _______ _______ _______ _____ _____    ______ ____
ROOT
ATOM      1  C   UNL     1       1.833   8.356  19.411  0.00  0.00    +0.000 C 
ATOM      2  C   UNL     1       1.076   9.201  18.683  0.00  0.00    +0.000 C 
ENDROOT
BRANCH   2   3
ATOM      3  C   UNL     1       0.231  10.154  19.312  0.00  0.00    +0.000 A 
ATOM      4  C   UNL     1      -0.924  10.804  18.926  0.00  0.00    +0.000 A 
ATOM      5  C   UNL     1      -1.328  11.669  19.973  0.00  0.00    +0.000 A 
ATOM      6  C   UNL     1      -2.405  12.558  20.118  0.00  0.00    +0.000 A 
ATOM      7  C   UNL     1      -2.526  13.288  21.301  0.00  0.00    +0.000 A 
ATOM      8  C   UNL     1      -1.594  13.145  22.334  0.00  0.00    +0.000 A 
ATOM      9  C   UNL     1      -0.500  12.271  22.205  0.00  0.00    +0.000 A 
ATOM     10  C   UNL     1      -0.399  11.535  21.007  0.00  0.00    +0.000 A 
ATOM     11  N   UNL     1       0.535  10.609  20.582  0.00  0.00    +0.000 N 
ATOM     12  H   UNL     1       1.334  10.319  21.131  0.00  0.00    +0.000 HD
BRANCH   8  13
ATOM     13  C   UNL     1      -1.784  13.974  23.553  0.00  0.00    +0.000 C 
ATOM     14  N   UNL     1      -0.827  14.711  24.055  0.00  0.00    +0.000 NA
ATOM     15  C   UNL     1      -1.435  15.365  25.251  0.00  0.00    +0.000 C 
ATOM     16  C   UNL     1      -2.891  14.900  25.340  0.00  0.00    +0.000 C 
ATOM     17  N   UNL     1      -2.996  14.029  24.199  0.00  0.00    +0.000 N 
ATOM     18  H   UNL     1      -3.524  13.169  24.295  0.00  0.00    +0.000 HD
ENDBRANCH   8  13
ENDBRANCH   2   3
BRANCH   1  19
ATOM     19  C   UNL     1       2.653   7.372  18.797  0.00  0.00    +0.000 A 
ATOM     20  C   UNL     1       3.042   6.092  19.136  0.00  0.00    +0.000 A 
ATOM     21  C   UNL     1       3.888   5.592  18.113  0.00  0.00    +0.000 A 
ATOM     22  C   UNL     1       4.558   4.370  17.934  0.00  0.00    +0.000 A 
ATOM     23  C   UNL     1       5.331   4.175  16.787  0.00  0.00    +0.000 A 
ATOM     24  C   UNL     1       5.451   5.181  15.823  0.00  0.00    +0.000 A 
ATOM     25  C   UNL     1       4.805   6.419  15.991  0.00  0.00    +0.000 A 
ATOM     26  C   UNL     1       4.019   6.590  17.148  0.00  0.00    +0.000 A 
ATOM     27  N   UNL     1       3.264   7.661  17.590  0.00  0.00    +0.000 N 
ATOM     28  H   UNL     1       3.179   8.534  17.090  0.00  0.00    +0.000 HD
BRANCH  24  29
ATOM     29  C   UNL     1       6.303   4.908  14.633  0.00  0.00    +0.000 C 
ATOM     30  N   UNL     1       7.454   5.501  14.445  0.00  0.00    +0.000 NA
ATOM     31  C   UNL     1       7.967   4.948  13.159  0.00  0.00    +0.000 C 
ATOM     32  C   UNL     1       6.920   3.963  12.633  0.00  0.00    +0.000 C 
ATOM     33  N   UNL     1       5.922   3.999  13.673  0.00  0.00    +0.000 N 
ATOM     34  H   UNL     1       4.953   4.035  13.378  0.00  0.00    +0.000 HD
ENDBRANCH  24  29
ENDBRANCH   1  19
TORSDOF 4
ENDMDL
