MODEL 1
REMARK VINA RESULT:      -7.2      0.000      0.000
REMARK  Name = 
REMARK  5 active torsions:
REMARK  status: ('A' for Active; 'I' for Inactive)
REMARK    1  A    between atoms: C_1  and  S_2
REMARK    2  A    between atoms: S_2  and  N_5
REMARK    3  A    between atoms: C_9  and  C_10
REMARK    4  A    between atoms: N_12  and  C_13
REMARK    5  A    between atoms: C_18  and  C_19
REMARK                            x       y       z     vdW  Elec       q    Type
REMARK                         _______ _______ _______ _____ _____    ______ ____
ROOT
ATOM      1  C   UNL     1       2.395   7.789  18.304  0.00  0.00    +0.000 C 
ATOM      2  O   UNL     1       3.147   7.959  17.350  0.00  0.00    +0.000 OA
ATOM      3  N   UNL     1       2.417   6.673  19.125  0.00  0.00    +0.000 N 
ATOM      4  H   UNL     1       1.528   6.422  19.552  0.00  0.00    +0.000 HD
ENDROOT
BRANCH   1   9
ATOM      5  N   UNL     1       0.417   9.828  20.812  0.00  0.00    +0.000 NA
ATOM      6  C   UNL     1       0.944  11.168  20.456  0.00  0.00    +0.000 C 
ATOM      7  C   UNL     1       0.989  11.320  18.943  0.00  0.00    +0.000 C 
ATOM      8  C   UNL     1       1.861  10.236  18.330  0.00  0.00    +0.000 C 
ATOM      9  C   UNL     1       1.365   8.836  18.712  0.00  0.00    +0.000 C 
ATOM     10  C   UNL     1       1.174   8.694  20.222  0.00  0.00    +0.000 C 
BRANCH   5  12
ATOM     11  C   UNL     1      -0.994  11.078  22.791  0.00  0.00    +0.000 C 
ATOM     12  S   UNL     1      -0.015   9.624  22.452  0.00  0.00    +0.000 S 
ATOM     13  O   UNL     1       1.196   9.710  23.238  0.00  0.00    +0.000 OA
ATOM     14  O   UNL     1      -0.887   8.472  22.550  0.00  0.00    +0.000 OA
ENDBRANCH   5  12
ENDBRANCH   1   9
BRANCH   3  15
ATOM     15  C   UNL     1       3.383   5.651  18.977  0.00  0.00    +0.000 A 
ATOM     16  C   UNL     1       4.742   5.944  19.177  0.00  0.00    +0.000 A 
ATOM     17  C   UNL     1       5.717   4.956  19.041  0.00  0.00    +0.000 A 
ATOM     18  C   UNL     1       5.346   3.661  18.697  0.00  0.00    +0.000 A 
ATOM     19  C   UNL     1       3.999   3.357  18.503  0.00  0.00    +0.000 A 
ATOM     20  C   UNL     1       2.999   4.341  18.649  0.00  0.00    +0.000 A 
BRANCH  20  21
ATOM     21  C   UNL     1       1.578   3.954  18.337  0.00  0.00    +0.000 C 
ATOM     22  F   UNL     1       0.717   4.097  19.391  0.00  0.00    +0.000 F 
ATOM     23  F   UNL     1       1.044   4.691  17.325  0.00  0.00    +0.000 F 
ATOM     24  F   UNL     1       1.463   2.653  17.954  0.00  0.00    +0.000 F 
ENDBRANCH  20  21
ENDBRANCH   3  15
TORSDOF 4
ENDMDL
MODEL 2
REMARK VINA RESULT:      -7.2      2.208      2.868
REMARK  Name = 
REMARK  5 active torsions:
REMARK  status: ('A' for Active; 'I' for Inactive)
REMARK    1  A    between atoms: C_1  and  S_2
REMARK    2  A    between atoms: S_2  and  N_5
REMARK    3  A    between atoms: C_9  and  C_10
REMARK    4  A    between atoms: N_12  and  C_13
REMARK    5  A    between atoms: C_18  and  C_19
REMARK                            x       y       z     vdW  Elec       q    Type
REMARK                         _______ _______ _______ _____ _____    ______ ____
ROOT
ATOM      1  C   UNL     1       1.739   8.088  19.977  0.00  0.00    +0.000 C 
ATOM      2  O   UNL     1       1.612   8.482  18.823  0.00  0.00    +0.000 OA
ATOM      3  N   UNL     1       2.242   6.845  20.327  0.00  0.00    +0.000 N 
ATOM      4  H   UNL     1       1.894   6.458  21.202  0.00  0.00    +0.000 HD
ENDROOT
BRANCH   1   9
ATOM      5  N   UNL     1       0.532  11.287  21.614  0.00  0.00    +0.000 NA
ATOM      6  C   UNL     1      -0.699  10.749  22.241  0.00  0.00    +0.000 C 
ATOM      7  C   UNL     1      -0.402   9.408  22.897  0.00  0.00    +0.000 C 
ATOM      8  C   UNL     1       0.131   8.425  21.868  0.00  0.00    +0.000 C 
ATOM      9  C   UNL     1       1.383   8.968  21.170  0.00  0.00    +0.000 C 
ATOM     10  C   UNL     1       1.162  10.377  20.620  0.00  0.00    +0.000 C 
BRANCH   5  12
ATOM     11  C   UNL     1       2.001  13.163  20.277  0.00  0.00    +0.000 C 
ATOM     12  S   UNL     1       0.455  12.925  21.136  0.00  0.00    +0.000 S 
ATOM     13  O   UNL     1       0.484  13.733  22.335  0.00  0.00    +0.000 OA
ATOM     14  O   UNL     1      -0.615  13.064  20.170  0.00  0.00    +0.000 OA
ENDBRANCH   5  12
ENDBRANCH   1   9
BRANCH   3  15
ATOM     15  C   UNL     1       2.736   5.936  19.362  0.00  0.00    +0.000 A 
ATOM     16  C   UNL     1       3.521   6.411  18.299  0.00  0.00    +0.000 A 
ATOM     17  C   UNL     1       4.025   5.539  17.333  0.00  0.00    +0.000 A 
ATOM     18  C   UNL     1       3.747   4.181  17.417  0.00  0.00    +0.000 A 
ATOM     19  C   UNL     1       2.974   3.697  18.472  0.00  0.00    +0.000 A 
ATOM     20  C   UNL     1       2.467   4.563  19.464  0.00  0.00    +0.000 A 
BRANCH  20  21
ATOM     21  C   UNL     1       1.570   3.975  20.521  0.00  0.00    +0.000 C 
ATOM     22  F   UNL     1       2.064   4.083  21.792  0.00  0.00    +0.000 F 
ATOM     23  F   UNL     1       0.343   4.564  20.553  0.00  0.00    +0.000 F 
ATOM     24  F   UNL     1       1.344   2.646  20.334  0.00  0.00    +0.000 F 
ENDBRANCH  20  21
ENDBRANCH   3  15
TORSDOF 4
ENDMDL
MODEL 3
REMARK VINA RESULT:      -7.1      3.599      7.104
REMARK  Name = 
REMARK  5 active torsions:
REMARK  status: ('A' for Active; 'I' for Inactive)
REMARK    1  A    between atoms: C_1  and  S_2
REMARK    2  A    between atoms: S_2  and  N_5
REMARK    3  A    between atoms: C_9  and  C_10
REMARK    4  A    between atoms: N_12  and  C_13
REMARK    5  A    between atoms: C_18  and  C_19
REMARK                            x       y       z     vdW  Elec       q    Type
REMARK                         _______ _______ _______ _____ _____    ______ ____
ROOT
ATOM      1  C   UNL     1       2.178   8.265  18.228  0.00  0.00    +0.000 C 
ATOM      2  O   UNL     1       2.183   9.004  17.249  0.00  0.00    +0.000 OA
ATOM      3  N   UNL     1       1.614   8.594  19.451  0.00  0.00    +0.000 N 
ATOM      4  H   UNL     1       2.041   8.157  20.265  0.00  0.00    +0.000 HD
ENDROOT
BRANCH   1   9
ATOM      5  N   UNL     1       4.974   5.765  17.684  0.00  0.00    +0.000 NA
ATOM      6  C   UNL     1       5.064   5.246  19.071  0.00  0.00    +0.000 C 
ATOM      7  C   UNL     1       3.667   4.994  19.619  0.00  0.00    +0.000 C 
ATOM      8  C   UNL     1       2.851   6.277  19.594  0.00  0.00    +0.000 C 
ATOM      9  C   UNL     1       2.772   6.862  18.179  0.00  0.00    +0.000 C 
ATOM     10  C   UNL     1       4.156   6.998  17.542  0.00  0.00    +0.000 C 
BRANCH   5  12
ATOM     11  C   UNL     1       7.316   7.162  17.518  0.00  0.00    +0.000 C 
ATOM     12  S   UNL     1       6.442   5.776  16.811  0.00  0.00    +0.000 S 
ATOM     13  O   UNL     1       6.132   6.101  15.436  0.00  0.00    +0.000 OA
ATOM     14  O   UNL     1       7.176   4.573  17.145  0.00  0.00    +0.000 OA
ENDBRANCH   5  12
ENDBRANCH   1   9
BRANCH   3  15
ATOM     15  C   UNL     1       0.911   9.805  19.652  0.00  0.00    +0.000 A 
ATOM     16  C   UNL     1       1.018  10.836  18.705  0.00  0.00    +0.000 A 
ATOM     17  C   UNL     1       0.334  12.040  18.874  0.00  0.00    +0.000 A 
ATOM     18  C   UNL     1      -0.462  12.230  19.997  0.00  0.00    +0.000 A 
ATOM     19  C   UNL     1      -0.581  11.211  20.941  0.00  0.00    +0.000 A 
ATOM     20  C   UNL     1       0.093   9.982  20.779  0.00  0.00    +0.000 A 
BRANCH  20  21
ATOM     21  C   UNL     1      -0.018   8.966  21.884  0.00  0.00    +0.000 C 
ATOM     22  F   UNL     1       1.187   8.523  22.356  0.00  0.00    +0.000 F 
ATOM     23  F   UNL     1      -0.684   9.445  22.971  0.00  0.00    +0.000 F 
ATOM     24  F   UNL     1      -0.687   7.845  21.499  0.00  0.00    +0.000 F 
ENDBRANCH  20  21
ENDBRANCH   3  15
TORSDOF 4
ENDMDL
MODEL 4
REMARK VINA RESULT:      -7.1      3.743      7.060
REMARK  Name = 
REMARK  5 active torsions:
REMARK  status: ('A' for Active; 'I' for Inactive)
REMARK    1  A    between atoms: C_1  and  S_2
REMARK    2  A    between atoms: S_2  and  N_5
REMARK    3  A    between atoms: C_9  and  C_10
REMARK    4  A    between atoms: N_12  and  C_13
REMARK    5  A    between atoms: C_18  and  C_19
REMARK                            x       y       z     vdW  Elec       q    Type
REMARK                         _______ _______ _______ _____ _____    ______ ____
ROOT
ATOM      1  C   UNL     1       2.298   6.730  19.451  0.00  0.00    +0.000 C 
ATOM      2  O   UNL     1       1.955   6.078  20.432  0.00  0.00    +0.000 OA
ATOM      3  N   UNL     1       1.980   8.064  19.251  0.00  0.00    +0.000 N 
ATOM      4  H   UNL     1       1.903   8.358  18.280  0.00  0.00    +0.000 HD
ENDROOT
BRANCH   1   9
ATOM      5  N   UNL     1       5.509   5.297  18.036  0.00  0.00    +0.000 NA
ATOM      6  C   UNL     1       5.019   3.925  17.754  0.00  0.00    +0.000 C 
ATOM      7  C   UNL     1       3.647   3.991  17.100  0.00  0.00    +0.000 C 
ATOM      8  C   UNL     1       2.666   4.718  18.004  0.00  0.00    +0.000 C 
ATOM      9  C   UNL     1       3.162   6.128  18.349  0.00  0.00    +0.000 C 
ATOM     10  C   UNL     1       4.595   6.112  18.880  0.00  0.00    +0.000 C 
BRANCH   5  12
ATOM     11  C   UNL     1       7.593   7.058  17.914  0.00  0.00    +0.000 C 
ATOM     12  S   UNL     1       7.161   5.413  18.452  0.00  0.00    +0.000 S 
ATOM     13  O   UNL     1       7.887   4.471  17.629  0.00  0.00    +0.000 OA
ATOM     14  O   UNL     1       7.268   5.377  19.896  0.00  0.00    +0.000 OA
ENDBRANCH   5  12
ENDBRANCH   1   9
BRANCH   3  15
ATOM     15  C   UNL     1       1.287   8.824  20.222  0.00  0.00    +0.000 A 
ATOM     16  C   UNL     1       1.315   8.425  21.567  0.00  0.00    +0.000 A 
ATOM     17  C   UNL     1       0.644   9.156  22.548  0.00  0.00    +0.000 A 
ATOM     18  C   UNL     1      -0.068  10.295  22.193  0.00  0.00    +0.000 A 
ATOM     19  C   UNL     1      -0.097  10.705  20.861  0.00  0.00    +0.000 A 
ATOM     20  C   UNL     1       0.586   9.985  19.859  0.00  0.00    +0.000 A 
BRANCH  20  21
ATOM     21  C   UNL     1       0.434  10.443  18.433  0.00  0.00    +0.000 C 
ATOM     22  F   UNL     1      -0.280  11.601  18.294  0.00  0.00    +0.000 F 
ATOM     23  F   UNL     1       1.630  10.675  17.827  0.00  0.00    +0.000 F 
ATOM     24  F   UNL     1      -0.209   9.529  17.656  0.00  0.00    +0.000 F 
ENDBRANCH  20  21
ENDBRANCH   3  15
TORSDOF 4
ENDMDL
MODEL 5
REMARK VINA RESULT:      -7.1      2.238      2.577
REMARK  Name = 
REMARK  5 active torsions:
REMARK  status: ('A' for Active; 'I' for Inactive)
REMARK    1  A    between atoms: C_1  and  S_2
REMARK    2  A    between atoms: S_2  and  N_5
REMARK    3  A    between atoms: C_9  and  C_10
REMARK    4  A    between atoms: N_12  and  C_13
REMARK    5  A    between atoms: C_18  and  C_19
REMARK                            x       y       z     vdW  Elec       q    Type
REMARK                         _______ _______ _______ _____ _____    ______ ____
ROOT
ATOM      1  C   UNL     1       2.526   7.994  18.309  0.00  0.00    +0.000 C 
ATOM      2  O   UNL     1       2.445   8.304  17.126  0.00  0.00    +0.000 OA
ATOM      3  N   UNL     1       3.166   6.856  18.774  0.00  0.00    +0.000 N 
ATOM      4  H   UNL     1       2.802   6.469  19.643  0.00  0.00    +0.000 HD
ENDROOT
BRANCH   1   9
ATOM      5  N   UNL     1      -0.029  10.367  19.793  0.00  0.00    +0.000 NA
ATOM      6  C   UNL     1      -0.521   9.489  20.883  0.00  0.00    +0.000 C 
ATOM      7  C   UNL     1       0.655   8.817  21.576  0.00  0.00    +0.000 C 
ATOM      8  C   UNL     1       1.461   8.004  20.576  0.00  0.00    +0.000 C 
ATOM      9  C   UNL     1       1.952   8.874  19.413  0.00  0.00    +0.000 C 
ATOM     10  C   UNL     1       0.812   9.675  18.782  0.00  0.00    +0.000 C 
BRANCH   5  12
ATOM     11  C   UNL     1      -2.131  10.407  18.048  0.00  0.00    +0.000 C 
ATOM     12  S   UNL     1      -1.183  11.447  19.146  0.00  0.00    +0.000 S 
ATOM     13  O   UNL     1      -0.474  12.415  18.339  0.00  0.00    +0.000 OA
ATOM     14  O   UNL     1      -2.059  11.870  20.219  0.00  0.00    +0.000 OA
ENDBRANCH   5  12
ENDBRANCH   1   9
BRANCH   3  15
ATOM     15  C   UNL     1       3.862   5.979  17.910  0.00  0.00    +0.000 A 
ATOM     16  C   UNL     1       5.118   6.352  17.406  0.00  0.00    +0.000 A 
ATOM     17  C   UNL     1       5.830   5.508  16.554  0.00  0.00    +0.000 A 
ATOM     18  C   UNL     1       5.291   4.279  16.191  0.00  0.00    +0.000 A 
ATOM     19  C   UNL     1       4.048   3.895  16.691  0.00  0.00    +0.000 A 
ATOM     20  C   UNL     1       3.320   4.731  17.563  0.00  0.00    +0.000 A 
BRANCH  20  21
ATOM     21  C   UNL     1       1.948   4.282  17.989  0.00  0.00    +0.000 C 
ATOM     22  F   UNL     1       1.704   4.429  19.327  0.00  0.00    +0.000 F 
ATOM     23  F   UNL     1       0.954   4.965  17.358  0.00  0.00    +0.000 F 
ATOM     24  F   UNL     1       1.724   2.966  17.726  0.00  0.00    +0.000 F 
ENDBRANCH  20  21
ENDBRANCH   3  15
TORSDOF 4
ENDMDL
MODEL 6
REMARK VINA RESULT:      -7.1      2.126      2.668
REMARK  Name = 
REMARK  5 active torsions:
REMARK  status: ('A' for Active; 'I' for Inactive)
REMARK    1  A    between atoms: C_1  and  S_2
REMARK    2  A    between atoms: S_2  and  N_5
REMARK    3  A    between atoms: C_9  and  C_10
REMARK    4  A    between atoms: N_12  and  C_13
REMARK    5  A    between atoms: C_18  and  C_19
REMARK                            x       y       z     vdW  Elec       q    Type
REMARK                         _______ _______ _______ _____ _____    ______ ____
ROOT
ATOM      1  C   UNL     1       2.527   8.024  18.275  0.00  0.00    +0.000 C 
ATOM      2  O   UNL     1       2.460   8.325  17.088  0.00  0.00    +0.000 OA
ATOM      3  N   UNL     1       3.160   6.890  18.758  0.00  0.00    +0.000 N 
ATOM      4  H   UNL     1       2.785   6.511  19.625  0.00  0.00    +0.000 HD
ENDROOT
BRANCH   1   9
ATOM      5  N   UNL     1      -0.057  10.393  19.716  0.00  0.00    +0.000 NA
ATOM      6  C   UNL     1      -0.544   9.527  20.817  0.00  0.00    +0.000 C 
ATOM      7  C   UNL     1       0.636   8.876  21.523  0.00  0.00    +0.000 C 
ATOM      8  C   UNL     1       1.453   8.056  20.537  0.00  0.00    +0.000 C 
ATOM      9  C   UNL     1       1.940   8.915  19.364  0.00  0.00    +0.000 C 
ATOM     10  C   UNL     1       0.795   9.695  18.717  0.00  0.00    +0.000 C 
BRANCH   5  12
ATOM     11  C   UNL     1      -0.234  12.841  18.515  0.00  0.00    +0.000 C 
ATOM     12  S   UNL     1      -1.220  11.452  19.049  0.00  0.00    +0.000 S 
ATOM     13  O   UNL     1      -2.073  11.901  20.127  0.00  0.00    +0.000 OA
ATOM     14  O   UNL     1      -1.778  10.826  17.869  0.00  0.00    +0.000 OA
ENDBRANCH   5  12
ENDBRANCH   1   9
BRANCH   3  15
ATOM     15  C   UNL     1       3.866   6.005  17.909  0.00  0.00    +0.000 A 
ATOM     16  C   UNL     1       5.128   6.373  17.417  0.00  0.00    +0.000 A 
ATOM     17  C   UNL     1       5.850   5.520  16.582  0.00  0.00    +0.000 A 
ATOM     18  C   UNL     1       5.314   4.290  16.222  0.00  0.00    +0.000 A 
ATOM     19  C   UNL     1       4.064   3.911  16.710  0.00  0.00    +0.000 A 
ATOM     20  C   UNL     1       3.327   4.755  17.566  0.00  0.00    +0.000 A 
BRANCH  20  21
ATOM     21  C   UNL     1       1.949   4.311  17.979  0.00  0.00    +0.000 C 
ATOM     22  F   UNL     1       0.936   4.977  17.345  0.00  0.00    +0.000 F 
ATOM     23  F   UNL     1       1.729   2.990  17.733  0.00  0.00    +0.000 F 
ATOM     24  F   UNL     1       1.719   4.488  19.308  0.00  0.00    +0.000 F 
ENDBRANCH  20  21
ENDBRANCH   3  15
TORSDOF 4
ENDMDL
MODEL 7
REMARK VINA RESULT:      -7.0      2.267      3.049
REMARK  Name = 
REMARK  5 active torsions:
REMARK  status: ('A' for Active; 'I' for Inactive)
REMARK    1  A    between atoms: C_1  and  S_2
REMARK    2  A    between atoms: S_2  and  N_5
REMARK    3  A    between atoms: C_9  and  C_10
REMARK    4  A    between atoms: N_12  and  C_13
REMARK    5  A    between atoms: C_18  and  C_19
REMARK                            x       y       z     vdW  Elec       q    Type
REMARK                         _______ _______ _______ _____ _____    ______ ____
ROOT
ATOM      1  C   UNL     1       1.559   8.400  20.014  0.00  0.00    +0.000 C 
ATOM      2  O   UNL     1       1.334   8.785  18.872  0.00  0.00    +0.000 OA
ATOM      3  N   UNL     1       2.186   7.204  20.325  0.00  0.00    +0.000 N 
ATOM      4  H   UNL     1       1.922   6.786  21.215  0.00  0.00    +0.000 HD
ENDROOT
BRANCH   1   9
ATOM      5  N   UNL     1       0.413  11.570  21.747  0.00  0.00    +0.000 NA
ATOM      6  C   UNL     1      -0.856  11.052  22.314  0.00  0.00    +0.000 C 
ATOM      7  C   UNL     1      -0.627   9.675  22.921  0.00  0.00    +0.000 C 
ATOM      8  C   UNL     1      -0.096   8.716  21.868  0.00  0.00    +0.000 C 
ATOM      9  C   UNL     1       1.196   9.242  21.232  0.00  0.00    +0.000 C 
ATOM     10  C   UNL     1       1.041  10.680  20.736  0.00  0.00    +0.000 C 
BRANCH   5  12
ATOM     11  C   UNL     1      -1.182  13.441  20.556  0.00  0.00    +0.000 C 
ATOM     12  S   UNL     1       0.408  13.228  21.338  0.00  0.00    +0.000 S 
ATOM     13  O   UNL     1       1.428  13.435  20.334  0.00  0.00    +0.000 OA
ATOM     14  O   UNL     1       0.404  13.997  22.565  0.00  0.00    +0.000 OA
ENDBRANCH   5  12
ENDBRANCH   1   9
BRANCH   3  15
ATOM     15  C   UNL     1       2.701   6.345  19.327  0.00  0.00    +0.000 A 
ATOM     16  C   UNL     1       3.429   6.884  18.254  0.00  0.00    +0.000 A 
ATOM     17  C   UNL     1       3.954   6.062  17.256  0.00  0.00    +0.000 A 
ATOM     18  C   UNL     1       3.751   4.689  17.316  0.00  0.00    +0.000 A 
ATOM     19  C   UNL     1       3.036   4.141  18.380  0.00  0.00    +0.000 A 
ATOM     20  C   UNL     1       2.510   4.956  19.405  0.00  0.00    +0.000 A 
BRANCH  20  21
ATOM     21  C   UNL     1       1.676   4.298  20.471  0.00  0.00    +0.000 C 
ATOM     22  F   UNL     1       1.466   2.962  20.268  0.00  0.00    +0.000 F 
ATOM     23  F   UNL     1       2.235   4.398  21.708  0.00  0.00    +0.000 F 
ATOM     24  F   UNL     1       0.434   4.846  20.576  0.00  0.00    +0.000 F 
ENDBRANCH  20  21
ENDBRANCH   3  15
TORSDOF 4
ENDMDL
MODEL 8
REMARK VINA RESULT:      -7.0      1.896      2.387
REMARK  Name = 
REMARK  5 active torsions:
REMARK  status: ('A' for Active; 'I' for Inactive)
REMARK    1  A    between atoms: C_1  and  S_2
REMARK    2  A    between atoms: S_2  and  N_5
REMARK    3  A    between atoms: C_9  and  C_10
REMARK    4  A    between atoms: N_12  and  C_13
REMARK    5  A    between atoms: C_18  and  C_19
REMARK                            x       y       z     vdW  Elec       q    Type
REMARK                         _______ _______ _______ _____ _____    ______ ____
ROOT
ATOM      1  C   UNL     1       2.519   6.401  18.724  0.00  0.00    +0.000 C 
ATOM      2  O   UNL     1       3.700   6.424  19.054  0.00  0.00    +0.000 OA
ATOM      3  N   UNL     1       1.833   5.253  18.360  0.00  0.00    +0.000 N 
ATOM      4  H   UNL     1       1.067   5.387  17.703  0.00  0.00    +0.000 HD
ENDROOT
BRANCH   1   9
ATOM      5  N   UNL     1       1.049   9.527  20.283  0.00  0.00    +0.000 NA
ATOM      6  C   UNL     1       1.687  10.525  19.391  0.00  0.00    +0.000 C 
ATOM      7  C   UNL     1       1.595  10.060  17.945  0.00  0.00    +0.000 C 
ATOM      8  C   UNL     1       2.271   8.709  17.783  0.00  0.00    +0.000 C 
ATOM      9  C   UNL     1       1.661   7.661  18.721  0.00  0.00    +0.000 C 
ATOM     10  C   UNL     1       1.609   8.155  20.167  0.00  0.00    +0.000 C 
BRANCH   5  12
ATOM     11  C   UNL     1      -0.660   9.093  22.370  0.00  0.00    +0.000 C 
ATOM     12  S   UNL     1       0.765  10.051  21.883  0.00  0.00    +0.000 S 
ATOM     13  O   UNL     1       0.367  11.440  21.826  0.00  0.00    +0.000 OA
ATOM     14  O   UNL     1       1.882   9.630  22.702  0.00  0.00    +0.000 OA
ENDBRANCH   5  12
ENDBRANCH   1   9
BRANCH   3  15
ATOM     15  C   UNL     1       2.429   3.972  18.417  0.00  0.00    +0.000 A 
ATOM     16  C   UNL     1       3.079   3.457  17.284  0.00  0.00    +0.000 A 
ATOM     17  C   UNL     1       3.680   2.198  17.311  0.00  0.00    +0.000 A 
ATOM     18  C   UNL     1       3.633   1.435  18.471  0.00  0.00    +0.000 A 
ATOM     19  C   UNL     1       2.996   1.939  19.605  0.00  0.00    +0.000 A 
ATOM     20  C   UNL     1       2.395   3.215  19.599  0.00  0.00    +0.000 A 
BRANCH  20  21
ATOM     21  C   UNL     1       1.653   3.650  20.834  0.00  0.00    +0.000 C 
ATOM     22  F   UNL     1       1.429   2.644  21.733  0.00  0.00    +0.000 F 
ATOM     23  F   UNL     1       2.312   4.619  21.527  0.00  0.00    +0.000 F 
ATOM     24  F   UNL     1       0.424   4.161  20.553  0.00  0.00    +0.000 F 
ENDBRANCH  20  21
ENDBRANCH   3  15
TORSDOF 4
ENDMDL
MODEL 9
REMARK VINA RESULT:      -7.0      2.420      3.011
REMARK  Name = 
REMARK  5 active torsions:
REMARK  status: ('A' for Active; 'I' for Inactive)
REMARK    1  A    between atoms: C_1  and  S_2
REMARK    2  A    between atoms: S_2  and  N_5
REMARK    3  A    between atoms: C_9  and  C_10
REMARK    4  A    between atoms: N_12  and  C_13
REMARK    5  A    between atoms: C_18  and  C_19
REMARK                            x       y       z     vdW  Elec       q    Type
REMARK                         _______ _______ _______ _____ _____    ______ ____
ROOT
ATOM      1  C   UNL     1       3.537   6.248  18.906  0.00  0.00    +0.000 C 
ATOM      2  O   UNL     1       3.566   5.267  19.642  0.00  0.00    +0.000 OA
ATOM      3  N   UNL     1       4.595   6.658  18.111  0.00  0.00    +0.000 N 
ATOM      4  H   UNL     1       4.643   7.657  17.921  0.00  0.00    +0.000 HD
ENDROOT
BRANCH   1   9
ATOM      5  N   UNL     1       0.933   8.708  20.144  0.00  0.00    +0.000 NA
ATOM      6  C   UNL     1       1.234   9.820  19.210  0.00  0.00    +0.000 C 
ATOM      7  C   UNL     1       1.423   9.275  17.802  0.00  0.00    +0.000 C 
ATOM      8  C   UNL     1       2.548   8.254  17.778  0.00  0.00    +0.000 C 
ATOM      9  C   UNL     1       2.287   7.109  18.764  0.00  0.00    +0.000 C 
ATOM     10  C   UNL     1       1.955   7.628  20.163  0.00  0.00    +0.000 C 
BRANCH   5  12
ATOM     11  C   UNL     1      -0.359  10.781  21.368  0.00  0.00    +0.000 C 
ATOM     12  S   UNL     1       0.362   9.180  21.684  0.00  0.00    +0.000 S 
ATOM     13  O   UNL     1       1.513   9.371  22.538  0.00  0.00    +0.000 OA
ATOM     14  O   UNL     1      -0.707   8.281  22.065  0.00  0.00    +0.000 OA
ENDBRANCH   5  12
ENDBRANCH   1   9
BRANCH   3  15
ATOM     15  C   UNL     1       5.796   5.917  18.019  0.00  0.00    +0.000 A 
ATOM     16  C   UNL     1       6.700   5.922  19.093  0.00  0.00    +0.000 A 
ATOM     17  C   UNL     1       7.891   5.198  19.033  0.00  0.00    +0.000 A 
ATOM     18  C   UNL     1       8.196   4.464  17.894  0.00  0.00    +0.000 A 
ATOM     19  C   UNL     1       7.303   4.446  16.823  0.00  0.00    +0.000 A 
ATOM     20  C   UNL     1       6.088   5.162  16.872  0.00  0.00    +0.000 A 
BRANCH  20  21
ATOM     21  C   UNL     1       5.220   5.162  15.643  0.00  0.00    +0.000 C 
ATOM     22  F   UNL     1       4.873   6.411  15.206  0.00  0.00    +0.000 F 
ATOM     23  F   UNL     1       5.817   4.555  14.580  0.00  0.00    +0.000 F 
ATOM     24  F   UNL     1       4.042   4.508  15.834  0.00  0.00    +0.000 F 
ENDBRANCH  20  21
ENDBRANCH   3  15
TORSDOF 4
ENDMDL
