MODEL 1
REMARK VINA RESULT:      -9.0      0.000      0.000
REMARK  Name = 
REMARK  7 active torsions:
REMARK  status: ('A' for Active; 'I' for Inactive)
REMARK    1  A    between atoms: N_1  and  S_2
REMARK    2  A    between atoms: S_2  and  C_5
REMARK    3  A    between atoms: C_7  and  N_8
REMARK    4  A    between atoms: C_9  and  C_11
REMARK    5  A    between atoms: C_11  and  C_12
REMARK    6  A    between atoms: C_21  and  O_22
REMARK    7  A    between atoms: O_22  and  C_23
REMARK                            x       y       z     vdW  Elec       q    Type
REMARK                         _______ _______ _______ _____ _____    ______ ____
ROOT
ATOM      1  C   UNL     1       1.000   8.965  20.391  0.00  0.00    +0.000 A 
ATOM      2  C   UNL     1       1.848   7.838  20.329  0.00  0.00    +0.000 A 
ATOM      3  C   UNL     1       2.436   7.418  19.135  0.00  0.00    +0.000 A 
ATOM      4  C   UNL     1       2.116   8.100  17.965  0.00  0.00    +0.000 A 
ATOM      5  C   UNL     1       1.310   9.243  18.023  0.00  0.00    +0.000 A 
ATOM      6  C   UNL     1       0.776   9.719  19.238  0.00  0.00    +0.000 A 
ENDROOT
BRANCH   3   7
ATOM      7  N   UNL     1       3.348   6.342  19.061  0.00  0.00    +0.000 N 
ATOM      8  C   UNL     1       2.996   5.001  18.952  0.00  0.00    +0.000 C 
ATOM      9  O   UNL     1       1.852   4.562  18.877  0.00  0.00    +0.000 OA
ATOM     10  H   UNL     1       4.319   6.556  19.247  0.00  0.00    +0.000 HD
BRANCH   8  11
ATOM     11  C   UNL     1       4.178   4.048  18.974  0.00  0.00    +0.000 C 
BRANCH  11  12
ATOM     12  C   UNL     1       5.103   4.203  17.790  0.00  0.00    +0.000 A 
ATOM     13  C   UNL     1       4.604   4.072  16.485  0.00  0.00    +0.000 A 
ATOM     14  C   UNL     1       5.440   4.282  15.387  0.00  0.00    +0.000 A 
ATOM     15  C   UNL     1       6.770   4.626  15.591  0.00  0.00    +0.000 A 
ATOM     16  F   UNL     1       7.564   4.847  14.535  0.00  0.00    +0.000 F 
ATOM     17  C   UNL     1       7.286   4.756  16.874  0.00  0.00    +0.000 A 
ATOM     18  C   UNL     1       6.453   4.545  17.974  0.00  0.00    +0.000 A 
ENDBRANCH  11  12
ENDBRANCH   8  11
ENDBRANCH   3   7
BRANCH   1  19
ATOM     19  S   UNL     1       0.312   9.274  21.992  0.00  0.00    +0.000 S 
ATOM     20  O   UNL     1       1.339   9.415  22.998  0.00  0.00    +0.000 OA
ATOM     21  O   UNL     1      -0.846   8.431  22.161  0.00  0.00    +0.000 OA
BRANCH  19  22
ATOM     22  N   UNL     1      -0.271  10.848  21.882  0.00  0.00    +0.000 NA
ATOM     23  H   UNL     1      -0.606  11.101  22.815  0.00  0.00    +0.000 HD
ATOM     24  H   UNL     1      -1.004  10.885  21.173  0.00  0.00    +0.000 HD
ENDBRANCH  19  22
ENDBRANCH   1  19
BRANCH   6  25
ATOM     25  O   UNL     1       0.009  10.839  19.043  0.00  0.00    +0.000 OA
BRANCH  25  26
ATOM     26  C   UNL     1      -1.231  10.809  18.457  0.00  0.00    +0.000 A 
ATOM     27  C   UNL     1      -2.193  11.577  19.126  0.00  0.00    +0.000 A 
ATOM     28  C   UNL     1      -3.448  11.791  18.560  0.00  0.00    +0.000 A 
ATOM     29  C   UNL     1      -3.743  11.231  17.321  0.00  0.00    +0.000 A 
ATOM     30  C   UNL     1      -2.811  10.400  16.695  0.00  0.00    +0.000 A 
ATOM     31 CL   UNL     1      -3.171   9.748  15.143  0.00  0.00    +0.000 Cl
ATOM     32  C   UNL     1      -1.570  10.140  17.283  0.00  0.00    +0.000 A 
ENDBRANCH  25  26
ENDBRANCH   6  25
TORSDOF 7
ENDMDL
MODEL 2
REMARK VINA RESULT:      -8.8      0.994      1.329
REMARK  Name = 
REMARK  7 active torsions:
REMARK  status: ('A' for Active; 'I' for Inactive)
REMARK    1  A    between atoms: N_1  and  S_2
REMARK    2  A    between atoms: S_2  and  C_5
REMARK    3  A    between atoms: C_7  and  N_8
REMARK    4  A    between atoms: C_9  and  C_11
REMARK    5  A    between atoms: C_11  and  C_12
REMARK    6  A    between atoms: C_21  and  O_22
REMARK    7  A    between atoms: O_22  and  C_23
REMARK                            x       y       z     vdW  Elec       q    Type
REMARK                         _______ _______ _______ _____ _____    ______ ____
ROOT
ATOM      1  C   UNL     1       1.012   9.028  20.309  0.00  0.00    +0.000 A 
ATOM      2  C   UNL     1       1.827   7.878  20.225  0.00  0.00    +0.000 A 
ATOM      3  C   UNL     1       2.426   7.481  19.030  0.00  0.00    +0.000 A 
ATOM      4  C   UNL     1       2.149   8.210  17.877  0.00  0.00    +0.000 A 
ATOM      5  C   UNL     1       1.377   9.375  17.959  0.00  0.00    +0.000 A 
ATOM      6  C   UNL     1       0.833   9.826  19.179  0.00  0.00    +0.000 A 
ENDROOT
BRANCH   3   7
ATOM      7  N   UNL     1       3.305   6.379  18.936  0.00  0.00    +0.000 N 
ATOM      8  C   UNL     1       2.921   5.066  18.690  0.00  0.00    +0.000 C 
ATOM      9  O   UNL     1       1.774   4.679  18.491  0.00  0.00    +0.000 OA
ATOM     10  H   UNL     1       4.265   6.540  19.213  0.00  0.00    +0.000 HD
BRANCH   8  11
ATOM     11  C   UNL     1       4.067   4.070  18.723  0.00  0.00    +0.000 C 
BRANCH  11  12
ATOM     12  C   UNL     1       5.047   4.236  17.587  0.00  0.00    +0.000 A 
ATOM     13  C   UNL     1       4.605   4.158  16.257  0.00  0.00    +0.000 A 
ATOM     14  C   UNL     1       5.493   4.379  15.204  0.00  0.00    +0.000 A 
ATOM     15  C   UNL     1       6.822   4.683  15.477  0.00  0.00    +0.000 A 
ATOM     16  F   UNL     1       7.666   4.914  14.464  0.00  0.00    +0.000 F 
ATOM     17  C   UNL     1       7.282   4.760  16.785  0.00  0.00    +0.000 A 
ATOM     18  C   UNL     1       6.396   4.538  17.841  0.00  0.00    +0.000 A 
ENDBRANCH  11  12
ENDBRANCH   8  11
ENDBRANCH   3   7
BRANCH   1  19
ATOM     19  S   UNL     1       0.302   9.305  21.907  0.00  0.00    +0.000 S 
ATOM     20  O   UNL     1       1.316   9.480  22.920  0.00  0.00    +0.000 OA
ATOM     21  O   UNL     1      -0.825   8.420  22.065  0.00  0.00    +0.000 OA
BRANCH  19  22
ATOM     22  N   UNL     1      -0.338  10.857  21.799  0.00  0.00    +0.000 NA
ATOM     23  H   UNL     1       0.449  11.485  21.615  0.00  0.00    +0.000 HD
ATOM     24  H   UNL     1      -0.828  11.079  22.666  0.00  0.00    +0.000 HD
ENDBRANCH  19  22
ENDBRANCH   1  19
BRANCH   6  25
ATOM     25  O   UNL     1       0.104  10.976  19.007  0.00  0.00    +0.000 OA
BRANCH  25  26
ATOM     26  C   UNL     1      -1.180  10.986  18.527  0.00  0.00    +0.000 A 
ATOM     27  C   UNL     1      -1.434  10.002  17.563  0.00  0.00    +0.000 A 
ATOM     28  C   UNL     1      -2.731   9.769  17.111  0.00  0.00    +0.000 A 
ATOM     29  C   UNL     1      -3.780  10.528  17.624  0.00  0.00    +0.000 A 
ATOM     30  C   UNL     1      -3.513  11.561  18.525  0.00  0.00    +0.000 A 
ATOM     31 CL   UNL     1      -4.822  12.464  19.184  0.00  0.00    +0.000 Cl
ATOM     32  C   UNL     1      -2.207  11.833  18.941  0.00  0.00    +0.000 A 
ENDBRANCH  25  26
ENDBRANCH   6  25
TORSDOF 7
ENDMDL
MODEL 3
REMARK VINA RESULT:      -8.5      2.411      2.956
REMARK  Name = 
REMARK  7 active torsions:
REMARK  status: ('A' for Active; 'I' for Inactive)
REMARK    1  A    between atoms: N_1  and  S_2
REMARK    2  A    between atoms: S_2  and  C_5
REMARK    3  A    between atoms: C_7  and  N_8
REMARK    4  A    between atoms: C_9  and  C_11
REMARK    5  A    between atoms: C_11  and  C_12
REMARK    6  A    between atoms: C_21  and  O_22
REMARK    7  A    between atoms: O_22  and  C_23
REMARK                            x       y       z     vdW  Elec       q    Type
REMARK                         _______ _______ _______ _____ _____    ______ ____
ROOT
ATOM      1  C   UNL     1       0.945   9.007  20.374  0.00  0.00    +0.000 A 
ATOM      2  C   UNL     1       1.789   7.878  20.294  0.00  0.00    +0.000 A 
ATOM      3  C   UNL     1       2.390   7.487  19.097  0.00  0.00    +0.000 A 
ATOM      4  C   UNL     1       2.087   8.200  17.941  0.00  0.00    +0.000 A 
ATOM      5  C   UNL     1       1.284   9.345  18.019  0.00  0.00    +0.000 A 
ATOM      6  C   UNL     1       0.738   9.791  19.239  0.00  0.00    +0.000 A 
ENDROOT
BRANCH   3   7
ATOM      7  N   UNL     1       3.298   6.408  19.005  0.00  0.00    +0.000 N 
ATOM      8  C   UNL     1       2.952   5.063  19.066  0.00  0.00    +0.000 C 
ATOM      9  O   UNL     1       1.813   4.619  19.178  0.00  0.00    +0.000 OA
ATOM     10  H   UNL     1       4.282   6.639  19.046  0.00  0.00    +0.000 HD
BRANCH   8  11
ATOM     11  C   UNL     1       4.139   4.117  19.024  0.00  0.00    +0.000 C 
BRANCH  11  12
ATOM     12  C   UNL     1       5.043   4.333  17.834  0.00  0.00    +0.000 A 
ATOM     13  C   UNL     1       6.395   4.656  18.025  0.00  0.00    +0.000 A 
ATOM     14  C   UNL     1       7.250   4.789  16.930  0.00  0.00    +0.000 A 
ATOM     15  C   UNL     1       6.758   4.594  15.645  0.00  0.00    +0.000 A 
ATOM     16  F   UNL     1       7.586   4.702  14.599  0.00  0.00    +0.000 F 
ATOM     17  C   UNL     1       5.422   4.279  15.433  0.00  0.00    +0.000 A 
ATOM     18  C   UNL     1       4.564   4.147  16.526  0.00  0.00    +0.000 A 
ENDBRANCH  11  12
ENDBRANCH   8  11
ENDBRANCH   3   7
BRANCH   1  19
ATOM     19  S   UNL     1       0.239   9.277  21.975  0.00  0.00    +0.000 S 
ATOM     20  O   UNL     1       1.250   9.573  22.963  0.00  0.00    +0.000 OA
ATOM     21  O   UNL     1      -0.806   8.306  22.183  0.00  0.00    +0.000 OA
BRANCH  19  22
ATOM     22  N   UNL     1      -0.532  10.765  21.827  0.00  0.00    +0.000 NA
ATOM     23  H   UNL     1      -1.435  10.583  21.381  0.00  0.00    +0.000 HD
ATOM     24  H   UNL     1       0.058  11.397  21.284  0.00  0.00    +0.000 HD
ENDBRANCH  19  22
ENDBRANCH   1  19
BRANCH   6  25
ATOM     25  O   UNL     1      -0.022  10.920  19.064  0.00  0.00    +0.000 OA
BRANCH  25  26
ATOM     26  C   UNL     1       0.509  12.183  19.008  0.00  0.00    +0.000 A 
ATOM     27  C   UNL     1      -0.397  13.160  18.574  0.00  0.00    +0.000 A 
ATOM     28  C   UNL     1      -0.063  14.511  18.634  0.00  0.00    +0.000 A 
ATOM     29  C   UNL     1       1.184  14.887  19.126  0.00  0.00    +0.000 A 
ATOM     30  C   UNL     1       2.113  13.907  19.482  0.00  0.00    +0.000 A 
ATOM     31 CL   UNL     1       3.635  14.384  20.130  0.00  0.00    +0.000 Cl
ATOM     32  C   UNL     1       1.802  12.548  19.375  0.00  0.00    +0.000 A 
ENDBRANCH  25  26
ENDBRANCH   6  25
TORSDOF 7
ENDMDL
MODEL 4
REMARK VINA RESULT:      -8.4      2.463      2.872
REMARK  Name = 
REMARK  7 active torsions:
REMARK  status: ('A' for Active; 'I' for Inactive)
REMARK    1  A    between atoms: N_1  and  S_2
REMARK    2  A    between atoms: S_2  and  C_5
REMARK    3  A    between atoms: C_7  and  N_8
REMARK    4  A    between atoms: C_9  and  C_11
REMARK    5  A    between atoms: C_11  and  C_12
REMARK    6  A    between atoms: C_21  and  O_22
REMARK    7  A    between atoms: O_22  and  C_23
REMARK                            x       y       z     vdW  Elec       q    Type
REMARK                         _______ _______ _______ _____ _____    ______ ____
ROOT
ATOM      1  C   UNL     1       1.065   9.229  20.244  0.00  0.00    +0.000 A 
ATOM      2  C   UNL     1       1.891   8.083  20.237  0.00  0.00    +0.000 A 
ATOM      3  C   UNL     1       2.386   7.534  19.053  0.00  0.00    +0.000 A 
ATOM      4  C   UNL     1       1.993   8.103  17.846  0.00  0.00    +0.000 A 
ATOM      5  C   UNL     1       1.209   9.264  17.844  0.00  0.00    +0.000 A 
ATOM      6  C   UNL     1       0.771   9.869  19.039  0.00  0.00    +0.000 A 
ENDROOT
BRANCH   3   7
ATOM      7  N   UNL     1       3.273   6.436  19.025  0.00  0.00    +0.000 N 
ATOM      8  C   UNL     1       2.893   5.099  19.015  0.00  0.00    +0.000 C 
ATOM      9  O   UNL     1       1.739   4.680  19.002  0.00  0.00    +0.000 OA
ATOM     10  H   UNL     1       4.254   6.641  19.168  0.00  0.00    +0.000 HD
BRANCH   8  11
ATOM     11  C   UNL     1       4.057   4.125  19.067  0.00  0.00    +0.000 C 
BRANCH  11  12
ATOM     12  C   UNL     1       5.004   4.250  17.897  0.00  0.00    +0.000 A 
ATOM     13  C   UNL     1       4.533   4.077  16.587  0.00  0.00    +0.000 A 
ATOM     14  C   UNL     1       5.388   4.260  15.500  0.00  0.00    +0.000 A 
ATOM     15  C   UNL     1       6.712   4.620  15.720  0.00  0.00    +0.000 A 
ATOM     16  F   UNL     1       7.525   4.814  14.673  0.00  0.00    +0.000 F 
ATOM     17  C   UNL     1       7.201   4.791  17.009  0.00  0.00    +0.000 A 
ATOM     18  C   UNL     1       6.348   4.608  18.098  0.00  0.00    +0.000 A 
ENDBRANCH  11  12
ENDBRANCH   8  11
ENDBRANCH   3   7
BRANCH   1  19
ATOM     19  S   UNL     1       0.498   9.710  21.850  0.00  0.00    +0.000 S 
ATOM     20  O   UNL     1      -0.578   8.866  22.313  0.00  0.00    +0.000 OA
ATOM     21  O   UNL     1       0.449  11.150  21.903  0.00  0.00    +0.000 OA
BRANCH  19  22
ATOM     22  N   UNL     1       1.752   9.250  22.873  0.00  0.00    +0.000 NA
ATOM     23  H   UNL     1       2.595   9.198  22.296  0.00  0.00    +0.000 HD
ATOM     24  H   UNL     1       1.516   8.360  23.312  0.00  0.00    +0.000 HD
ENDBRANCH  19  22
ENDBRANCH   1  19
BRANCH   6  25
ATOM     25  O   UNL     1       0.008  10.981  18.786  0.00  0.00    +0.000 OA
BRANCH  25  26
ATOM     26  C   UNL     1       0.534  12.242  18.663  0.00  0.00    +0.000 A 
ATOM     27  C   UNL     1      -0.416  13.266  18.772  0.00  0.00    +0.000 A 
ATOM     28  C   UNL     1      -0.016  14.598  18.847  0.00  0.00    +0.000 A 
ATOM     29  C   UNL     1       1.341  14.908  18.810  0.00  0.00    +0.000 A 
ATOM     30  C   UNL     1       2.280  13.891  18.620  0.00  0.00    +0.000 A 
ATOM     31 CL   UNL     1       3.956  14.282  18.618  0.00  0.00    +0.000 Cl
ATOM     32  C   UNL     1       1.880  12.558  18.492  0.00  0.00    +0.000 A 
ENDBRANCH  25  26
ENDBRANCH   6  25
TORSDOF 7
ENDMDL
MODEL 5
REMARK VINA RESULT:      -8.3      4.447      9.096
REMARK  Name = 
REMARK  7 active torsions:
REMARK  status: ('A' for Active; 'I' for Inactive)
REMARK    1  A    between atoms: N_1  and  S_2
REMARK    2  A    between atoms: S_2  and  C_5
REMARK    3  A    between atoms: C_7  and  N_8
REMARK    4  A    between atoms: C_9  and  C_11
REMARK    5  A    between atoms: C_11  and  C_12
REMARK    6  A    between atoms: C_21  and  O_22
REMARK    7  A    between atoms: O_22  and  C_23
REMARK                            x       y       z     vdW  Elec       q    Type
REMARK                         _______ _______ _______ _____ _____    ______ ____
ROOT
ATOM      1  C   UNL     1       5.667   5.284  18.382  0.00  0.00    +0.000 A 
ATOM      2  C   UNL     1       4.773   6.025  19.186  0.00  0.00    +0.000 A 
ATOM      3  C   UNL     1       3.392   5.971  19.002  0.00  0.00    +0.000 A 
ATOM      4  C   UNL     1       2.895   5.211  17.947  0.00  0.00    +0.000 A 
ATOM      5  C   UNL     1       3.769   4.440  17.171  0.00  0.00    +0.000 A 
ATOM      6  C   UNL     1       5.160   4.429  17.402  0.00  0.00    +0.000 A 
ENDROOT
BRANCH   3   7
ATOM      7  N   UNL     1       2.475   6.642  19.840  0.00  0.00    +0.000 N 
ATOM      8  C   UNL     1       1.956   7.911  19.606  0.00  0.00    +0.000 C 
ATOM      9  O   UNL     1       2.195   8.615  18.630  0.00  0.00    +0.000 OA
ATOM     10  H   UNL     1       2.299   6.226  20.746  0.00  0.00    +0.000 HD
BRANCH   8  11
ATOM     11  C   UNL     1       1.053   8.423  20.714  0.00  0.00    +0.000 C 
BRANCH  11  12
ATOM     12  C   UNL     1       0.460   9.783  20.432  0.00  0.00    +0.000 A 
ATOM     13  C   UNL     1      -0.673   9.901  19.613  0.00  0.00    +0.000 A 
ATOM     14  C   UNL     1      -1.266  11.147  19.405  0.00  0.00    +0.000 A 
ATOM     15  C   UNL     1      -0.730  12.275  20.016  0.00  0.00    +0.000 A 
ATOM     16  F   UNL     1      -1.314  13.466  19.831  0.00  0.00    +0.000 F 
ATOM     17  C   UNL     1       0.394  12.181  20.826  0.00  0.00    +0.000 A 
ATOM     18  C   UNL     1       0.989  10.936  21.036  0.00  0.00    +0.000 A 
ENDBRANCH  11  12
ENDBRANCH   8  11
ENDBRANCH   3   7
BRANCH   1  19
ATOM     19  S   UNL     1       7.377   5.557  18.748  0.00  0.00    +0.000 S 
ATOM     20  O   UNL     1       7.664   5.355  20.149  0.00  0.00    +0.000 OA
ATOM     21  O   UNL     1       7.822   6.713  18.011  0.00  0.00    +0.000 OA
BRANCH  19  22
ATOM     22  N   UNL     1       8.152   4.236  18.052  0.00  0.00    +0.000 NA
ATOM     23  H   UNL     1       8.891   3.955  18.702  0.00  0.00    +0.000 HD
ATOM     24  H   UNL     1       8.511   4.503  17.134  0.00  0.00    +0.000 HD
ENDBRANCH  19  22
ENDBRANCH   1  19
BRANCH   6  25
ATOM     25  O   UNL     1       5.809   3.614  16.510  0.00  0.00    +0.000 OA
BRANCH  25  26
ATOM     26  C   UNL     1       5.991   3.939  15.190  0.00  0.00    +0.000 A 
ATOM     27  C   UNL     1       7.082   4.787  14.959  0.00  0.00    +0.000 A 
ATOM     28  C   UNL     1       7.503   5.063  13.661  0.00  0.00    +0.000 A 
ATOM     29  C   UNL     1       6.827   4.491  12.586  0.00  0.00    +0.000 A 
ATOM     30  C   UNL     1       5.691   3.711  12.817  0.00  0.00    +0.000 A 
ATOM     31 CL   UNL     1       4.889   2.974  11.484  0.00  0.00    +0.000 Cl
ATOM     32  C   UNL     1       5.234   3.474  14.116  0.00  0.00    +0.000 A 
ENDBRANCH  25  26
ENDBRANCH   6  25
TORSDOF 7
ENDMDL
MODEL 6
REMARK VINA RESULT:      -8.3      2.193      2.735
REMARK  Name = 
REMARK  7 active torsions:
REMARK  status: ('A' for Active; 'I' for Inactive)
REMARK    1  A    between atoms: N_1  and  S_2
REMARK    2  A    between atoms: S_2  and  C_5
REMARK    3  A    between atoms: C_7  and  N_8
REMARK    4  A    between atoms: C_9  and  C_11
REMARK    5  A    between atoms: C_11  and  C_12
REMARK    6  A    between atoms: C_21  and  O_22
REMARK    7  A    between atoms: O_22  and  C_23
REMARK                            x       y       z     vdW  Elec       q    Type
REMARK                         _______ _______ _______ _____ _____    ______ ____
ROOT
ATOM      1  C   UNL     1       0.897   9.057  20.432  0.00  0.00    +0.000 A 
ATOM      2  C   UNL     1       1.729   7.917  20.383  0.00  0.00    +0.000 A 
ATOM      3  C   UNL     1       2.353   7.505  19.204  0.00  0.00    +0.000 A 
ATOM      4  C   UNL     1       2.086   8.209  18.034  0.00  0.00    +0.000 A 
ATOM      5  C   UNL     1       1.296   9.365  18.081  0.00  0.00    +0.000 A 
ATOM      6  C   UNL     1       0.727   9.831  19.283  0.00  0.00    +0.000 A 
ENDROOT
BRANCH   3   7
ATOM      7  N   UNL     1       3.249   6.415  19.146  0.00  0.00    +0.000 N 
ATOM      8  C   UNL     1       2.887   5.093  18.910  0.00  0.00    +0.000 C 
ATOM      9  O   UNL     1       1.750   4.688  18.691  0.00  0.00    +0.000 OA
ATOM     10  H   UNL     1       4.200   6.593  19.442  0.00  0.00    +0.000 HD
BRANCH   8  11
ATOM     11  C   UNL     1       4.045   4.113  18.983  0.00  0.00    +0.000 C 
BRANCH  11  12
ATOM     12  C   UNL     1       5.013   4.233  17.830  0.00  0.00    +0.000 A 
ATOM     13  C   UNL     1       4.562   4.074  16.511  0.00  0.00    +0.000 A 
ATOM     14  C   UNL     1       5.438   4.252  15.440  0.00  0.00    +0.000 A 
ATOM     15  C   UNL     1       6.763   4.592  15.683  0.00  0.00    +0.000 A 
ATOM     16  F   UNL     1       7.595   4.782  14.652  0.00  0.00    +0.000 F 
ATOM     17  C   UNL     1       7.232   4.749  16.981  0.00  0.00    +0.000 A 
ATOM     18  C   UNL     1       6.358   4.571  18.055  0.00  0.00    +0.000 A 
ENDBRANCH  11  12
ENDBRANCH   8  11
ENDBRANCH   3   7
BRANCH   1  19
ATOM     19  S   UNL     1       0.158   9.354  22.012  0.00  0.00    +0.000 S 
ATOM     20  O   UNL     1       1.136   9.764  22.992  0.00  0.00    +0.000 OA
ATOM     21  O   UNL     1      -0.820   8.323  22.258  0.00  0.00    +0.000 OA
BRANCH  19  22
ATOM     22  N   UNL     1      -0.712  10.776  21.788  0.00  0.00    +0.000 NA
ATOM     23  H   UNL     1      -1.569  10.519  21.290  0.00  0.00    +0.000 HD
ATOM     24  H   UNL     1      -0.138  11.442  21.270  0.00  0.00    +0.000 HD
ENDBRANCH  19  22
ENDBRANCH   1  19
BRANCH   6  25
ATOM     25  O   UNL     1      -0.015  10.967  19.078  0.00  0.00    +0.000 OA
BRANCH  25  26
ATOM     26  C   UNL     1       0.529  12.226  19.052  0.00  0.00    +0.000 A 
ATOM     27  C   UNL     1       1.929  12.237  18.983  0.00  0.00    +0.000 A 
ATOM     28  C   UNL     1       2.618  13.428  18.770  0.00  0.00    +0.000 A 
ATOM     29  C   UNL     1       1.905  14.616  18.629  0.00  0.00    +0.000 A 
ATOM     30  C   UNL     1       0.516  14.612  18.779  0.00  0.00    +0.000 A 
ATOM     31 CL   UNL     1      -0.359  16.079  18.560  0.00  0.00    +0.000 Cl
ATOM     32  C   UNL     1      -0.176  13.427  19.044  0.00  0.00    +0.000 A 
ENDBRANCH  25  26
ENDBRANCH   6  25
TORSDOF 7
ENDMDL
MODEL 7
REMARK VINA RESULT:      -8.3      4.422      9.020
REMARK  Name = 
REMARK  7 active torsions:
REMARK  status: ('A' for Active; 'I' for Inactive)
REMARK    1  A    between atoms: N_1  and  S_2
REMARK    2  A    between atoms: S_2  and  C_5
REMARK    3  A    between atoms: C_7  and  N_8
REMARK    4  A    between atoms: C_9  and  C_11
REMARK    5  A    between atoms: C_11  and  C_12
REMARK    6  A    between atoms: C_21  and  O_22
REMARK    7  A    between atoms: O_22  and  C_23
REMARK                            x       y       z     vdW  Elec       q    Type
REMARK                         _______ _______ _______ _____ _____    ______ ____
ROOT
ATOM      1  C   UNL     1       2.220   5.004  19.820  0.00  0.00    +0.000 A 
ATOM      2  C   UNL     1       1.808   5.926  20.807  0.00  0.00    +0.000 A 
ATOM      3  C   UNL     1       1.831   7.304  20.589  0.00  0.00    +0.000 A 
ATOM      4  C   UNL     1       2.341   7.774  19.383  0.00  0.00    +0.000 A 
ATOM      5  C   UNL     1       2.712   6.867  18.382  0.00  0.00    +0.000 A 
ATOM      6  C   UNL     1       2.617   5.473  18.567  0.00  0.00    +0.000 A 
ENDROOT
BRANCH   3   7
ATOM      7  N   UNL     1       1.354   8.242  21.531  0.00  0.00    +0.000 N 
ATOM      8  C   UNL     1       0.016   8.452  21.844  0.00  0.00    +0.000 C 
ATOM      9  O   UNL     1      -0.937   7.838  21.374  0.00  0.00    +0.000 OA
ATOM     10  H   UNL     1       2.027   8.905  21.892  0.00  0.00    +0.000 HD
BRANCH   8  11
ATOM     11  C   UNL     1      -0.218   9.581  22.833  0.00  0.00    +0.000 C 
BRANCH  11  12
ATOM     12  C   UNL     1      -0.806  10.822  22.206  0.00  0.00    +0.000 A 
ATOM     13  C   UNL     1      -1.496  11.752  22.997  0.00  0.00    +0.000 A 
ATOM     14  C   UNL     1      -1.981  12.934  22.436  0.00  0.00    +0.000 A 
ATOM     15  C   UNL     1      -1.774  13.190  21.086  0.00  0.00    +0.000 A 
ATOM     16  F   UNL     1      -2.223  14.335  20.555  0.00  0.00    +0.000 F 
ATOM     17  C   UNL     1      -1.098  12.280  20.282  0.00  0.00    +0.000 A 
ATOM     18  C   UNL     1      -0.612  11.097  20.842  0.00  0.00    +0.000 A 
ENDBRANCH  11  12
ENDBRANCH   8  11
ENDBRANCH   3   7
BRANCH   1  19
ATOM     19  S   UNL     1       2.171   3.312  20.336  0.00  0.00    +0.000 S 
ATOM     20  O   UNL     1       3.423   2.638  20.081  0.00  0.00    +0.000 OA
ATOM     21  O   UNL     1       0.890   2.760  19.969  0.00  0.00    +0.000 OA
BRANCH  19  22
ATOM     22  N   UNL     1       2.174   3.404  22.015  0.00  0.00    +0.000 NA
ATOM     23  H   UNL     1       2.817   2.680  22.346  0.00  0.00    +0.000 HD
ATOM     24  H   UNL     1       1.221   3.276  22.360  0.00  0.00    +0.000 HD
ENDBRANCH  19  22
ENDBRANCH   1  19
BRANCH   6  25
ATOM     25  O   UNL     1       3.050   4.790  17.458  0.00  0.00    +0.000 OA
BRANCH  25  26
ATOM     26  C   UNL     1       4.375   4.574  17.179  0.00  0.00    +0.000 A 
ATOM     27  C   UNL     1       4.620   4.187  15.855  0.00  0.00    +0.000 A 
ATOM     28  C   UNL     1       5.923   4.103  15.370  0.00  0.00    +0.000 A 
ATOM     29  C   UNL     1       6.988   4.404  16.215  0.00  0.00    +0.000 A 
ATOM     30  C   UNL     1       6.744   4.712  17.555  0.00  0.00    +0.000 A 
ATOM     31 CL   UNL     1       8.065   5.125  18.580  0.00  0.00    +0.000 Cl
ATOM     32  C   UNL     1       5.441   4.747  18.060  0.00  0.00    +0.000 A 
ENDBRANCH  25  26
ENDBRANCH   6  25
TORSDOF 7
ENDMDL
MODEL 8
REMARK VINA RESULT:      -8.3      4.479      9.095
REMARK  Name = 
REMARK  7 active torsions:
REMARK  status: ('A' for Active; 'I' for Inactive)
REMARK    1  A    between atoms: N_1  and  S_2
REMARK    2  A    between atoms: S_2  and  C_5
REMARK    3  A    between atoms: C_7  and  N_8
REMARK    4  A    between atoms: C_9  and  C_11
REMARK    5  A    between atoms: C_11  and  C_12
REMARK    6  A    between atoms: C_21  and  O_22
REMARK    7  A    between atoms: O_22  and  C_23
REMARK                            x       y       z     vdW  Elec       q    Type
REMARK                         _______ _______ _______ _____ _____    ______ ____
ROOT
ATOM      1  C   UNL     1       2.209   5.035  19.827  0.00  0.00    +0.000 A 
ATOM      2  C   UNL     1       1.511   5.828  20.764  0.00  0.00    +0.000 A 
ATOM      3  C   UNL     1       1.336   7.201  20.587  0.00  0.00    +0.000 A 
ATOM      4  C   UNL     1       1.930   7.807  19.484  0.00  0.00    +0.000 A 
ATOM      5  C   UNL     1       2.587   7.022  18.528  0.00  0.00    +0.000 A 
ATOM      6  C   UNL     1       2.700   5.623  18.661  0.00  0.00    +0.000 A 
ENDROOT
BRANCH   3   7
ATOM      7  N   UNL     1       0.578   8.002  21.470  0.00  0.00    +0.000 N 
ATOM      8  C   UNL     1       1.097   8.985  22.305  0.00  0.00    +0.000 C 
ATOM      9  O   UNL     1       2.276   9.318  22.376  0.00  0.00    +0.000 OA
ATOM     10  H   UNL     1      -0.389   7.737  21.606  0.00  0.00    +0.000 HD
BRANCH   8  11
ATOM     11  C   UNL     1       0.065   9.636  23.209  0.00  0.00    +0.000 C 
BRANCH  11  12
ATOM     12  C   UNL     1      -0.722  10.735  22.536  0.00  0.00    +0.000 A 
ATOM     13  C   UNL     1      -0.480  11.054  21.192  0.00  0.00    +0.000 A 
ATOM     14  C   UNL     1      -1.251  12.021  20.546  0.00  0.00    +0.000 A 
ATOM     15  C   UNL     1      -2.267  12.668  21.241  0.00  0.00    +0.000 A 
ATOM     16  F   UNL     1      -3.018  13.581  20.612  0.00  0.00    +0.000 F 
ATOM     17  C   UNL     1      -2.520  12.371  22.574  0.00  0.00    +0.000 A 
ATOM     18  C   UNL     1      -1.749  11.405  23.222  0.00  0.00    +0.000 A 
ENDBRANCH  11  12
ENDBRANCH   8  11
ENDBRANCH   3   7
BRANCH   1  19
ATOM     19  S   UNL     1       2.368   3.333  20.286  0.00  0.00    +0.000 S 
ATOM     20  O   UNL     1       3.737   2.881  20.201  0.00  0.00    +0.000 OA
ATOM     21  O   UNL     1       1.260   2.603  19.721  0.00  0.00    +0.000 OA
BRANCH  19  22
ATOM     22  N   UNL     1       2.119   3.341  21.950  0.00  0.00    +0.000 NA
ATOM     23  H   UNL     1       1.848   4.295  22.200  0.00  0.00    +0.000 HD
ATOM     24  H   UNL     1       2.973   3.036  22.418  0.00  0.00    +0.000 HD
ENDBRANCH  19  22
ENDBRANCH   1  19
BRANCH   6  25
ATOM     25  O   UNL     1       3.396   5.076  17.613  0.00  0.00    +0.000 OA
BRANCH  25  26
ATOM     26  C   UNL     1       4.755   4.895  17.627  0.00  0.00    +0.000 A 
ATOM     27  C   UNL     1       5.267   4.352  16.441  0.00  0.00    +0.000 A 
ATOM     28  C   UNL     1       6.642   4.274  16.233  0.00  0.00    +0.000 A 
ATOM     29  C   UNL     1       7.511   4.739  17.217  0.00  0.00    +0.000 A 
ATOM     30  C   UNL     1       6.998   5.205  18.430  0.00  0.00    +0.000 A 
ATOM     31 CL   UNL     1       8.079   5.817  19.622  0.00  0.00    +0.000 Cl
ATOM     32  C   UNL     1       5.621   5.237  18.664  0.00  0.00    +0.000 A 
ENDBRANCH  25  26
ENDBRANCH   6  25
TORSDOF 7
ENDMDL
MODEL 9
REMARK VINA RESULT:      -8.3      6.665      8.976
REMARK  Name = 
REMARK  7 active torsions:
REMARK  status: ('A' for Active; 'I' for Inactive)
REMARK    1  A    between atoms: N_1  and  S_2
REMARK    2  A    between atoms: S_2  and  C_5
REMARK    3  A    between atoms: C_7  and  N_8
REMARK    4  A    between atoms: C_9  and  C_11
REMARK    5  A    between atoms: C_11  and  C_12
REMARK    6  A    between atoms: C_21  and  O_22
REMARK    7  A    between atoms: O_22  and  C_23
REMARK                            x       y       z     vdW  Elec       q    Type
REMARK                         _______ _______ _______ _____ _____    ______ ____
ROOT
ATOM      1  C   UNL     1       6.526   5.440  16.970  0.00  0.00    +0.000 A 
ATOM      2  C   UNL     1       7.389   6.534  17.198  0.00  0.00    +0.000 A 
ATOM      3  C   UNL     1       7.799   6.899  18.480  0.00  0.00    +0.000 A 
ATOM      4  C   UNL     1       7.283   6.197  19.565  0.00  0.00    +0.000 A 
ATOM      5  C   UNL     1       6.461   5.084  19.347  0.00  0.00    +0.000 A 
ATOM      6  C   UNL     1       6.105   4.662  18.050  0.00  0.00    +0.000 A 
ENDROOT
BRANCH   3   7
ATOM      7  N   UNL     1       8.721   7.941  18.728  0.00  0.00    +0.000 N 
ATOM      8  C   UNL     1       8.549   9.268  18.352  0.00  0.00    +0.000 C 
ATOM      9  O   UNL     1       7.567   9.731  17.778  0.00  0.00    +0.000 OA
ATOM     10  H   UNL     1       9.631   7.668  19.075  0.00  0.00    +0.000 HD
BRANCH   8  11
ATOM     11  C   UNL     1       9.735  10.160  18.672  0.00  0.00    +0.000 C 
BRANCH  11  12
ATOM     12  C   UNL     1       9.394  11.320  19.577  0.00  0.00    +0.000 A 
ATOM     13  C   UNL     1       9.299  11.128  20.964  0.00  0.00    +0.000 A 
ATOM     14  C   UNL     1       9.052  12.210  21.810  0.00  0.00    +0.000 A 
ATOM     15  C   UNL     1       8.902  13.483  21.273  0.00  0.00    +0.000 A 
ATOM     16  F   UNL     1       8.686  14.522  22.090  0.00  0.00    +0.000 F 
ATOM     17  C   UNL     1       8.987  13.695  19.903  0.00  0.00    +0.000 A 
ATOM     18  C   UNL     1       9.233  12.614  19.054  0.00  0.00    +0.000 A 
ENDBRANCH  11  12
ENDBRANCH   8  11
ENDBRANCH   3   7
BRANCH   1  19
ATOM     19  S   UNL     1       6.083   5.200  15.274  0.00  0.00    +0.000 S 
ATOM     20  O   UNL     1       5.276   6.287  14.772  0.00  0.00    +0.000 OA
ATOM     21  O   UNL     1       5.741   3.812  15.083  0.00  0.00    +0.000 OA
BRANCH  19  22
ATOM     22  N   UNL     1       7.527   5.441  14.444  0.00  0.00    +0.000 NA
ATOM     23  H   UNL     1       7.990   6.238  14.888  0.00  0.00    +0.000 HD
ATOM     24  H   UNL     1       7.323   5.600  13.456  0.00  0.00    +0.000 HD
ENDBRANCH  19  22
ENDBRANCH   1  19
BRANCH   6  25
ATOM     25  O   UNL     1       5.284   3.564  18.089  0.00  0.00    +0.000 OA
BRANCH  25  26
ATOM     26  C   UNL     1       3.977   3.617  18.501  0.00  0.00    +0.000 A 
ATOM     27  C   UNL     1       3.085   4.041  17.508  0.00  0.00    +0.000 A 
ATOM     28  C   UNL     1       1.710   3.977  17.716  0.00  0.00    +0.000 A 
ATOM     29  C   UNL     1       1.223   3.490  18.926  0.00  0.00    +0.000 A 
ATOM     30  C   UNL     1       2.115   3.144  19.944  0.00  0.00    +0.000 A 
ATOM     31 CL   UNL     1       1.504   2.503  21.420  0.00  0.00    +0.000 Cl
ATOM     32  C   UNL     1       3.496   3.255  19.758  0.00  0.00    +0.000 A 
ENDBRANCH  25  26
ENDBRANCH   6  25
TORSDOF 7
ENDMDL
