MODEL 1
REMARK VINA RESULT:      -8.3      0.000      0.000
REMARK  Name = 
REMARK  8 active torsions:
REMARK  status: ('A' for Active; 'I' for Inactive)
REMARK    1  A    between atoms: C_1  and  C_2
REMARK    2  A    between atoms: C_2  and  C_4
REMARK    3  A    between atoms: C_7  and  C_8
REMARK    4  A    between atoms: C_11  and  C_12
REMARK    5  A    between atoms: N_14  and  C_15
REMARK    6  A    between atoms: N_22  and  C_23
REMARK    7  A    between atoms: C_23  and  C_24
REMARK    8  A    between atoms: C_23  and  C_25
REMARK                            x       y       z     vdW  Elec       q    Type
REMARK                         _______ _______ _______ _____ _____    ______ ____
ROOT
ATOM      1  C   UNL     1       2.031   6.141  20.319  0.00  0.00    +0.000 C 
ATOM      2  O   UNL     1       1.073   5.663  20.921  0.00  0.00    +0.000 OA
ATOM      3  N   UNL     1       2.242   7.499  20.146  0.00  0.00    +0.000 N 
ATOM      4  H   UNL     1       3.013   7.747  19.534  0.00  0.00    +0.000 HD
ENDROOT
BRANCH   3   5
ATOM      5  C   UNL     1       1.426   8.542  20.641  0.00  0.00    +0.000 A 
ATOM      6  C   UNL     1       1.300   8.873  21.998  0.00  0.00    +0.000 A 
ATOM      7  N   UNL     1       0.517   9.854  22.524  0.00  0.00    +0.000 NA
ATOM      8  C   UNL     1      -0.193  10.513  21.593  0.00  0.00    +0.000 A 
ATOM      9  C   UNL     1      -0.166  10.297  20.219  0.00  0.00    +0.000 A 
ATOM     10  C   UNL     1      -1.092  11.229  19.704  0.00  0.00    +0.000 A 
ATOM     11  N   UNL     1      -1.660  11.982  20.650  0.00  0.00    +0.000 NA
ATOM     12  N   UNL     1      -1.084  11.537  21.796  0.00  0.00    +0.000 N 
ATOM     13  C   UNL     1       0.685   9.295  19.719  0.00  0.00    +0.000 A 
BRANCH  12  14
ATOM     14  C   UNL     1      -1.406  12.167  23.075  0.00  0.00    +0.000 C 
ATOM     15  C   UNL     1      -0.928  13.620  23.115  0.00  0.00    +0.000 C 
ATOM     16  C   UNL     1      -2.897  12.073  23.400  0.00  0.00    +0.000 C 
ENDBRANCH  12  14
ENDBRANCH   3   5
BRANCH   1  20
ATOM     17  C   UNL     1       4.503   4.657  18.172  0.00  0.00    +0.000 A 
ATOM     18  C   UNL     1       4.451   3.655  19.122  0.00  0.00    +0.000 A 
ATOM     19  C   UNL     1       3.502   4.056  20.087  0.00  0.00    +0.000 A 
ATOM     20  C   UNL     1       3.024   5.289  19.690  0.00  0.00    +0.000 A 
ATOM     21  O   UNL     1       3.635   5.663  18.519  0.00  0.00    +0.000 OA
BRANCH  17  25
ATOM     22  C   UNL     1       6.789   5.010  14.556  0.00  0.00    +0.000 A 
ATOM     23  C   UNL     1       7.074   5.818  15.658  0.00  0.00    +0.000 A 
ATOM     24  C   UNL     1       6.301   5.718  16.822  0.00  0.00    +0.000 A 
ATOM     25  C   UNL     1       5.233   4.809  16.914  0.00  0.00    +0.000 A 
ATOM     26  C   UNL     1       4.930   4.035  15.786  0.00  0.00    +0.000 A 
ATOM     27  C   UNL     1       5.700   4.132  14.620  0.00  0.00    +0.000 A 
BRANCH  22  29
ATOM     28  C   UNL     1       7.214   4.173  12.148  0.00  0.00    +0.000 C 
ATOM     29  C   UNL     1       7.622   5.032  13.317  0.00  0.00    +0.000 C 
ATOM     30  O   UNL     1       8.611   5.760  13.256  0.00  0.00    +0.000 OA
ENDBRANCH  22  29
ENDBRANCH  17  25
ENDBRANCH   1  20
TORSDOF 5
ENDMDL
MODEL 2
REMARK VINA RESULT:      -8.3      6.921      8.060
REMARK  Name = 
REMARK  8 active torsions:
REMARK  status: ('A' for Active; 'I' for Inactive)
REMARK    1  A    between atoms: C_1  and  C_2
REMARK    2  A    between atoms: C_2  and  C_4
REMARK    3  A    between atoms: C_7  and  C_8
REMARK    4  A    between atoms: C_11  and  C_12
REMARK    5  A    between atoms: N_14  and  C_15
REMARK    6  A    between atoms: N_22  and  C_23
REMARK    7  A    between atoms: C_23  and  C_24
REMARK    8  A    between atoms: C_23  and  C_25
REMARK                            x       y       z     vdW  Elec       q    Type
REMARK                         _______ _______ _______ _____ _____    ______ ____
ROOT
ATOM      1  C   UNL     1       8.018   8.874  18.016  0.00  0.00    +0.000 C 
ATOM      2  O   UNL     1       7.398   9.720  17.377  0.00  0.00    +0.000 OA
ATOM      3  N   UNL     1       9.004   9.167  18.943  0.00  0.00    +0.000 N 
ATOM      4  H   UNL     1       9.508   8.368  19.313  0.00  0.00    +0.000 HD
ENDROOT
BRANCH   3   5
ATOM      5  C   UNL     1       9.439  10.459  19.322  0.00  0.00    +0.000 A 
ATOM      6  C   UNL     1       9.356  10.972  20.623  0.00  0.00    +0.000 A 
ATOM      7  N   UNL     1       9.743  12.211  21.032  0.00  0.00    +0.000 NA
ATOM      8  C   UNL     1      10.223  12.967  20.031  0.00  0.00    +0.000 A 
ATOM      9  C   UNL     1      10.367  12.591  18.700  0.00  0.00    +0.000 A 
ATOM     10  C   UNL     1      10.892  13.738  18.071  0.00  0.00    +0.000 A 
ATOM     11  N   UNL     1      11.079  14.760  18.911  0.00  0.00    +0.000 NA
ATOM     12  N   UNL     1      10.677  14.260  20.108  0.00  0.00    +0.000 N 
ATOM     13  C   UNL     1       9.984  11.287  18.331  0.00  0.00    +0.000 A 
BRANCH  12  14
ATOM     14  C   UNL     1      10.786  15.071  21.319  0.00  0.00    +0.000 C 
ATOM     15  C   UNL     1      11.605  16.338  21.068  0.00  0.00    +0.000 C 
ATOM     16  C   UNL     1       9.414  15.415  21.902  0.00  0.00    +0.000 C 
ENDBRANCH  12  14
ENDBRANCH   3   5
BRANCH   1  20
ATOM     17  C   UNL     1       7.262   5.612  16.706  0.00  0.00    +0.000 A 
ATOM     18  C   UNL     1       7.524   5.237  18.010  0.00  0.00    +0.000 A 
ATOM     19  C   UNL     1       7.850   6.415  18.716  0.00  0.00    +0.000 A 
ATOM     20  C   UNL     1       7.782   7.456  17.812  0.00  0.00    +0.000 A 
ATOM     21  O   UNL     1       7.424   6.970  16.579  0.00  0.00    +0.000 OA
BRANCH  17  25
ATOM     22  C   UNL     1       5.818   3.577  13.213  0.00  0.00    +0.000 A 
ATOM     23  C   UNL     1       5.211   3.375  14.454  0.00  0.00    +0.000 A 
ATOM     24  C   UNL     1       5.711   4.019  15.594  0.00  0.00    +0.000 A 
ATOM     25  C   UNL     1       6.819   4.879  15.520  0.00  0.00    +0.000 A 
ATOM     26  C   UNL     1       7.446   5.039  14.278  0.00  0.00    +0.000 A 
ATOM     27  C   UNL     1       6.951   4.397  13.135  0.00  0.00    +0.000 A 
BRANCH  22  29
ATOM     28  C   UNL     1       4.050   3.557  11.329  0.00  0.00    +0.000 C 
ATOM     29  C   UNL     1       5.285   2.966  11.959  0.00  0.00    +0.000 C 
ATOM     30  O   UNL     1       5.866   2.012  11.448  0.00  0.00    +0.000 OA
ENDBRANCH  22  29
ENDBRANCH  17  25
ENDBRANCH   1  20
TORSDOF 5
ENDMDL
MODEL 3
REMARK VINA RESULT:      -8.2      1.981      2.708
REMARK  Name = 
REMARK  8 active torsions:
REMARK  status: ('A' for Active; 'I' for Inactive)
REMARK    1  A    between atoms: C_1  and  C_2
REMARK    2  A    between atoms: C_2  and  C_4
REMARK    3  A    between atoms: C_7  and  C_8
REMARK    4  A    between atoms: C_11  and  C_12
REMARK    5  A    between atoms: N_14  and  C_15
REMARK    6  A    between atoms: N_22  and  C_23
REMARK    7  A    between atoms: C_23  and  C_24
REMARK    8  A    between atoms: C_23  and  C_25
REMARK                            x       y       z     vdW  Elec       q    Type
REMARK                         _______ _______ _______ _____ _____    ______ ____
ROOT
ATOM      1  C   UNL     1       1.315   8.520  20.726  0.00  0.00    +0.000 C 
ATOM      2  O   UNL     1       1.086   8.689  21.921  0.00  0.00    +0.000 OA
ATOM      3  N   UNL     1       1.042   9.455  19.742  0.00  0.00    +0.000 N 
ATOM      4  H   UNL     1       1.180   9.139  18.788  0.00  0.00    +0.000 HD
ENDROOT
BRANCH   3   5
ATOM      5  C   UNL     1       0.490  10.743  19.941  0.00  0.00    +0.000 A 
ATOM      6  C   UNL     1       1.246  11.907  20.134  0.00  0.00    +0.000 A 
ATOM      7  N   UNL     1       0.762  13.161  20.347  0.00  0.00    +0.000 NA
ATOM      8  C   UNL     1      -0.580  13.206  20.383  0.00  0.00    +0.000 A 
ATOM      9  C   UNL     1      -1.453  12.139  20.205  0.00  0.00    +0.000 A 
ATOM     10  C   UNL     1      -2.734  12.710  20.352  0.00  0.00    +0.000 A 
ATOM     11  N   UNL     1      -2.698  14.023  20.595  0.00  0.00    +0.000 NA
ATOM     12  N   UNL     1      -1.371  14.308  20.595  0.00  0.00    +0.000 N 
ATOM     13  C   UNL     1      -0.906  10.866  19.954  0.00  0.00    +0.000 A 
BRANCH  12  14
ATOM     14  C   UNL     1      -0.912  15.685  20.770  0.00  0.00    +0.000 C 
ATOM     15  C   UNL     1      -0.870  16.431  19.436  0.00  0.00    +0.000 C 
ATOM     16  C   UNL     1      -1.759  16.444  21.793  0.00  0.00    +0.000 C 
ENDBRANCH  12  14
ENDBRANCH   3   5
BRANCH   1  20
ATOM     17  C   UNL     1       3.029   5.935  18.909  0.00  0.00    +0.000 A 
ATOM     18  C   UNL     1       2.459   5.137  19.883  0.00  0.00    +0.000 A 
ATOM     19  C   UNL     1       1.715   5.989  20.726  0.00  0.00    +0.000 A 
ATOM     20  C   UNL     1       1.871   7.271  20.237  0.00  0.00    +0.000 A 
ATOM     21  O   UNL     1       2.676   7.245  19.126  0.00  0.00    +0.000 OA
BRANCH  17  25
ATOM     22  C   UNL     1       5.588   5.123  15.560  0.00  0.00    +0.000 A 
ATOM     23  C   UNL     1       5.401   6.432  16.010  0.00  0.00    +0.000 A 
ATOM     24  C   UNL     1       4.538   6.689  17.083  0.00  0.00    +0.000 A 
ATOM     25  C   UNL     1       3.849   5.651  17.731  0.00  0.00    +0.000 A 
ATOM     26  C   UNL     1       4.011   4.348  17.242  0.00  0.00    +0.000 A 
ATOM     27  C   UNL     1       4.873   4.086  16.169  0.00  0.00    +0.000 A 
BRANCH  22  29
ATOM     28  C   UNL     1       6.130   3.795  13.410  0.00  0.00    +0.000 C 
ATOM     29  C   UNL     1       6.546   4.790  14.463  0.00  0.00    +0.000 C 
ATOM     30  O   UNL     1       7.644   5.340  14.420  0.00  0.00    +0.000 OA
ENDBRANCH  22  29
ENDBRANCH  17  25
ENDBRANCH   1  20
TORSDOF 5
ENDMDL
MODEL 4
REMARK VINA RESULT:      -8.1      1.701      2.393
REMARK  Name = 
REMARK  8 active torsions:
REMARK  status: ('A' for Active; 'I' for Inactive)
REMARK    1  A    between atoms: C_1  and  C_2
REMARK    2  A    between atoms: C_2  and  C_4
REMARK    3  A    between atoms: C_7  and  C_8
REMARK    4  A    between atoms: C_11  and  C_12
REMARK    5  A    between atoms: N_14  and  C_15
REMARK    6  A    between atoms: N_22  and  C_23
REMARK    7  A    between atoms: C_23  and  C_24
REMARK    8  A    between atoms: C_23  and  C_25
REMARK                            x       y       z     vdW  Elec       q    Type
REMARK                         _______ _______ _______ _____ _____    ______ ____
ROOT
ATOM      1  C   UNL     1       1.426   8.394  21.210  0.00  0.00    +0.000 C 
ATOM      2  O   UNL     1       2.201   8.938  21.993  0.00  0.00    +0.000 OA
ATOM      3  N   UNL     1       0.157   8.866  20.918  0.00  0.00    +0.000 N 
ATOM      4  H   UNL     1      -0.413   8.259  20.341  0.00  0.00    +0.000 HD
ENDROOT
BRANCH   3   5
ATOM      5  C   UNL     1      -0.440  10.039  21.439  0.00  0.00    +0.000 A 
ATOM      6  C   UNL     1      -0.763  10.229  22.790  0.00  0.00    +0.000 A 
ATOM      7  N   UNL     1      -1.352  11.328  23.335  0.00  0.00    +0.000 NA
ATOM      8  C   UNL     1      -1.642  12.274  22.425  0.00  0.00    +0.000 A 
ATOM      9  C   UNL     1      -1.376  12.223  21.061  0.00  0.00    +0.000 A 
ATOM     10  C   UNL     1      -1.885  13.441  20.564  0.00  0.00    +0.000 A 
ATOM     11  N   UNL     1      -2.423  14.212  21.514  0.00  0.00    +0.000 NA
ATOM     12  N   UNL     1      -2.250  13.484  22.647  0.00  0.00    +0.000 N 
ATOM     13  C   UNL     1      -0.734  11.080  20.549  0.00  0.00    +0.000 A 
BRANCH  12  14
ATOM     14  C   UNL     1      -2.661  14.024  23.940  0.00  0.00    +0.000 C 
ATOM     15  C   UNL     1      -2.741  15.552  23.904  0.00  0.00    +0.000 C 
ATOM     16  C   UNL     1      -3.983  13.420  24.418  0.00  0.00    +0.000 C 
ENDBRANCH  12  14
ENDBRANCH   3   5
BRANCH   1  20
ATOM     17  C   UNL     1       2.786   5.846  19.071  0.00  0.00    +0.000 A 
ATOM     18  C   UNL     1       1.983   5.033  19.847  0.00  0.00    +0.000 A 
ATOM     19  C   UNL     1       1.336   5.870  20.781  0.00  0.00    +0.000 A 
ATOM     20  C   UNL     1       1.779   7.155  20.541  0.00  0.00    +0.000 A 
ATOM     21  O   UNL     1       2.669   7.146  19.496  0.00  0.00    +0.000 OA
BRANCH  17  25
ATOM     22  C   UNL     1       5.464   5.144  15.789  0.00  0.00    +0.000 A 
ATOM     23  C   UNL     1       5.199   6.444  16.225  0.00  0.00    +0.000 A 
ATOM     24  C   UNL     1       4.299   6.664  17.275  0.00  0.00    +0.000 A 
ATOM     25  C   UNL     1       3.648   5.596  17.915  0.00  0.00    +0.000 A 
ATOM     26  C   UNL     1       3.888   4.300  17.440  0.00  0.00    +0.000 A 
ATOM     27  C   UNL     1       4.787   4.075  16.390  0.00  0.00    +0.000 A 
BRANCH  22  29
ATOM     28  C   UNL     1       6.082   3.915  13.601  0.00  0.00    +0.000 C 
ATOM     29  C   UNL     1       6.463   4.853  14.718  0.00  0.00    +0.000 C 
ATOM     30  O   UNL     1       7.567   5.391  14.748  0.00  0.00    +0.000 OA
ENDBRANCH  22  29
ENDBRANCH  17  25
ENDBRANCH   1  20
TORSDOF 5
ENDMDL
MODEL 5
REMARK VINA RESULT:      -7.9      1.839      2.616
REMARK  Name = 
REMARK  8 active torsions:
REMARK  status: ('A' for Active; 'I' for Inactive)
REMARK    1  A    between atoms: C_1  and  C_2
REMARK    2  A    between atoms: C_2  and  C_4
REMARK    3  A    between atoms: C_7  and  C_8
REMARK    4  A    between atoms: C_11  and  C_12
REMARK    5  A    between atoms: N_14  and  C_15
REMARK    6  A    between atoms: N_22  and  C_23
REMARK    7  A    between atoms: C_23  and  C_24
REMARK    8  A    between atoms: C_23  and  C_25
REMARK                            x       y       z     vdW  Elec       q    Type
REMARK                         _______ _______ _______ _____ _____    ______ ____
ROOT
ATOM      1  C   UNL     1       1.113   9.007  20.102  0.00  0.00    +0.000 C 
ATOM      2  O   UNL     1       0.907   9.819  19.204  0.00  0.00    +0.000 OA
ATOM      3  N   UNL     1       0.741   9.198  21.423  0.00  0.00    +0.000 N 
ATOM      4  H   UNL     1       1.072   8.497  22.076  0.00  0.00    +0.000 HD
ENDROOT
BRANCH   3   5
ATOM      5  C   UNL     1       0.055  10.321  21.945  0.00  0.00    +0.000 A 
ATOM      6  C   UNL     1      -0.958  10.250  22.911  0.00  0.00    +0.000 A 
ATOM      7  N   UNL     1      -1.657  11.296  23.430  0.00  0.00    +0.000 NA
ATOM      8  C   UNL     1      -1.300  12.479  22.901  0.00  0.00    +0.000 A 
ATOM      9  C   UNL     1      -0.315  12.699  21.945  0.00  0.00    +0.000 A 
ATOM     10  C   UNL     1      -0.349  14.091  21.726  0.00  0.00    +0.000 A 
ATOM     11  N   UNL     1      -1.263  14.718  22.473  0.00  0.00    +0.000 NA
ATOM     12  N   UNL     1      -1.822  13.714  23.195  0.00  0.00    +0.000 N 
ATOM     13  C   UNL     1       0.405  11.589  21.462  0.00  0.00    +0.000 A 
BRANCH  12  14
ATOM     14  C   UNL     1      -2.846  14.007  24.196  0.00  0.00    +0.000 C 
ATOM     15  C   UNL     1      -2.461  15.219  25.046  0.00  0.00    +0.000 C 
ATOM     16  C   UNL     1      -4.225  14.201  23.563  0.00  0.00    +0.000 C 
ENDBRANCH  12  14
ENDBRANCH   3   5
BRANCH   1  20
ATOM     17  C   UNL     1       3.106   6.337  18.753  0.00  0.00    +0.000 A 
ATOM     18  C   UNL     1       2.684   5.697  19.903  0.00  0.00    +0.000 A 
ATOM     19  C   UNL     1       1.858   6.606  20.597  0.00  0.00    +0.000 A 
ATOM     20  C   UNL     1       1.819   7.765  19.847  0.00  0.00    +0.000 A 
ATOM     21  O   UNL     1       2.583   7.607  18.718  0.00  0.00    +0.000 OA
BRANCH  17  25
ATOM     22  C   UNL     1       5.640   5.168  15.492  0.00  0.00    +0.000 A 
ATOM     23  C   UNL     1       5.294   6.508  15.677  0.00  0.00    +0.000 A 
ATOM     24  C   UNL     1       4.440   6.874  16.725  0.00  0.00    +0.000 A 
ATOM     25  C   UNL     1       3.918   5.917  17.611  0.00  0.00    +0.000 A 
ATOM     26  C   UNL     1       4.238   4.572  17.388  0.00  0.00    +0.000 A 
ATOM     27  C   UNL     1       5.091   4.200  16.341  0.00  0.00    +0.000 A 
BRANCH  22  29
ATOM     28  C   UNL     1       6.146   3.718  13.413  0.00  0.00    +0.000 C 
ATOM     29  C   UNL     1       6.598   4.735  14.431  0.00  0.00    +0.000 C 
ATOM     30  O   UNL     1       7.725   5.221  14.386  0.00  0.00    +0.000 OA
ENDBRANCH  22  29
ENDBRANCH  17  25
ENDBRANCH   1  20
TORSDOF 5
ENDMDL
MODEL 6
REMARK VINA RESULT:      -7.9      1.774      2.845
REMARK  Name = 
REMARK  8 active torsions:
REMARK  status: ('A' for Active; 'I' for Inactive)
REMARK    1  A    between atoms: C_1  and  C_2
REMARK    2  A    between atoms: C_2  and  C_4
REMARK    3  A    between atoms: C_7  and  C_8
REMARK    4  A    between atoms: C_11  and  C_12
REMARK    5  A    between atoms: N_14  and  C_15
REMARK    6  A    between atoms: N_22  and  C_23
REMARK    7  A    between atoms: C_23  and  C_24
REMARK    8  A    between atoms: C_23  and  C_25
REMARK                            x       y       z     vdW  Elec       q    Type
REMARK                         _______ _______ _______ _____ _____    ______ ____
ROOT
ATOM      1  C   UNL     1       1.160   9.022  19.800  0.00  0.00    +0.000 C 
ATOM      2  O   UNL     1       0.698   9.628  18.837  0.00  0.00    +0.000 OA
ATOM      3  N   UNL     1       1.078   9.465  21.110  0.00  0.00    +0.000 N 
ATOM      4  H   UNL     1       1.599   8.921  21.789  0.00  0.00    +0.000 HD
ENDROOT
BRANCH   3   5
ATOM      5  C   UNL     1       0.442  10.648  21.555  0.00  0.00    +0.000 A 
ATOM      6  C   UNL     1       0.961  11.939  21.382  0.00  0.00    +0.000 A 
ATOM      7  N   UNL     1       0.397  13.102  21.806  0.00  0.00    +0.000 NA
ATOM      8  C   UNL     1      -0.758  12.915  22.466  0.00  0.00    +0.000 A 
ATOM      9  C   UNL     1      -1.390  11.700  22.707  0.00  0.00    +0.000 A 
ATOM     10  C   UNL     1      -2.543  12.050  23.441  0.00  0.00    +0.000 A 
ATOM     11  N   UNL     1      -2.654  13.365  23.650  0.00  0.00    +0.000 NA
ATOM     12  N   UNL     1      -1.559  13.876  23.032  0.00  0.00    +0.000 N 
ATOM     13  C   UNL     1      -0.786  10.526  22.219  0.00  0.00    +0.000 A 
BRANCH  12  14
ATOM     14  C   UNL     1      -1.346  15.321  22.984  0.00  0.00    +0.000 C 
ATOM     15  C   UNL     1      -1.935  15.927  21.709  0.00  0.00    +0.000 C 
ATOM     16  C   UNL     1      -1.898  16.022  24.226  0.00  0.00    +0.000 C 
ENDBRANCH  12  14
ENDBRANCH   3   5
BRANCH   1  20
ATOM     17  C   UNL     1       3.278   6.339  18.686  0.00  0.00    +0.000 A 
ATOM     18  C   UNL     1       2.729   5.705  19.784  0.00  0.00    +0.000 A 
ATOM     19  C   UNL     1       1.835   6.620  20.381  0.00  0.00    +0.000 A 
ATOM     20  C   UNL     1       1.885   7.776  19.628  0.00  0.00    +0.000 A 
ATOM     21  O   UNL     1       2.768   7.611  18.590  0.00  0.00    +0.000 OA
BRANCH  17  25
ATOM     22  C   UNL     1       5.866   5.089  15.498  0.00  0.00    +0.000 A 
ATOM     23  C   UNL     1       4.999   4.179  16.107  0.00  0.00    +0.000 A 
ATOM     24  C   UNL     1       4.182   4.590  17.169  0.00  0.00    +0.000 A 
ATOM     25  C   UNL     1       4.208   5.913  17.641  0.00  0.00    +0.000 A 
ATOM     26  C   UNL     1       5.114   6.804  17.051  0.00  0.00    +0.000 A 
ATOM     27  C   UNL     1       5.933   6.398  15.990  0.00  0.00    +0.000 A 
BRANCH  22  29
ATOM     28  C   UNL     1       6.178   3.711  13.334  0.00  0.00    +0.000 C 
ATOM     29  C   UNL     1       6.709   4.717  14.323  0.00  0.00    +0.000 C 
ATOM     30  O   UNL     1       7.806   5.247  14.164  0.00  0.00    +0.000 OA
ENDBRANCH  22  29
ENDBRANCH  17  25
ENDBRANCH   1  20
TORSDOF 5
ENDMDL
MODEL 7
REMARK VINA RESULT:      -7.8      2.090      2.965
REMARK  Name = 
REMARK  8 active torsions:
REMARK  status: ('A' for Active; 'I' for Inactive)
REMARK    1  A    between atoms: C_1  and  C_2
REMARK    2  A    between atoms: C_2  and  C_4
REMARK    3  A    between atoms: C_7  and  C_8
REMARK    4  A    between atoms: C_11  and  C_12
REMARK    5  A    between atoms: N_14  and  C_15
REMARK    6  A    between atoms: N_22  and  C_23
REMARK    7  A    between atoms: C_23  and  C_24
REMARK    8  A    between atoms: C_23  and  C_25
REMARK                            x       y       z     vdW  Elec       q    Type
REMARK                         _______ _______ _______ _____ _____    ______ ____
ROOT
ATOM      1  C   UNL     1       1.306   8.563  20.774  0.00  0.00    +0.000 C 
ATOM      2  O   UNL     1       1.179   8.768  21.979  0.00  0.00    +0.000 OA
ATOM      3  N   UNL     1       0.956   9.471  19.789  0.00  0.00    +0.000 N 
ATOM      4  H   UNL     1       1.010   9.127  18.837  0.00  0.00    +0.000 HD
ENDROOT
BRANCH   3   5
ATOM      5  C   UNL     1       0.430  10.769  19.997  0.00  0.00    +0.000 A 
ATOM      6  C   UNL     1      -0.925  11.046  20.226  0.00  0.00    +0.000 A 
ATOM      7  N   UNL     1      -1.480  12.274  20.414  0.00  0.00    +0.000 NA
ATOM      8  C   UNL     1      -0.584  13.272  20.336  0.00  0.00    +0.000 A 
ATOM      9  C   UNL     1       0.784  13.146  20.119  0.00  0.00    +0.000 A 
ATOM     10  C   UNL     1       1.257  14.474  20.111  0.00  0.00    +0.000 A 
ATOM     11  N   UNL     1       0.292  15.377  20.311  0.00  0.00    +0.000 NA
ATOM     12  N   UNL     1      -0.823  14.618  20.461  0.00  0.00    +0.000 N 
ATOM     13  C   UNL     1       1.318  11.853  19.965  0.00  0.00    +0.000 A 
BRANCH  12  14
ATOM     14  C   UNL     1      -2.107  15.246  20.763  0.00  0.00    +0.000 C 
ATOM     15  C   UNL     1      -2.398  15.223  22.265  0.00  0.00    +0.000 C 
ATOM     16  C   UNL     1      -2.190  16.672  20.214  0.00  0.00    +0.000 C 
ENDBRANCH  12  14
ENDBRANCH   3   5
BRANCH   1  20
ATOM     17  C   UNL     1       3.016   5.931  19.021  0.00  0.00    +0.000 A 
ATOM     18  C   UNL     1       2.251   5.138  19.854  0.00  0.00    +0.000 A 
ATOM     19  C   UNL     1       1.477   6.009  20.650  0.00  0.00    +0.000 A 
ATOM     20  C   UNL     1       1.811   7.296  20.276  0.00  0.00    +0.000 A 
ATOM     21  O   UNL     1       2.754   7.254  19.280  0.00  0.00    +0.000 OA
BRANCH  17  25
ATOM     22  C   UNL     1       5.643   5.055  15.741  0.00  0.00    +0.000 A 
ATOM     23  C   UNL     1       4.897   4.041  16.343  0.00  0.00    +0.000 A 
ATOM     24  C   UNL     1       4.068   4.332  17.434  0.00  0.00    +0.000 A 
ATOM     25  C   UNL     1       3.961   5.637  17.944  0.00  0.00    +0.000 A 
ATOM     26  C   UNL     1       4.749   6.637  17.359  0.00  0.00    +0.000 A 
ATOM     27  C   UNL     1       5.579   6.351  16.268  0.00  0.00    +0.000 A 
BRANCH  22  29
ATOM     28  C   UNL     1       6.007   3.839  13.490  0.00  0.00    +0.000 C 
ATOM     29  C   UNL     1       6.491   4.810  14.536  0.00  0.00    +0.000 C 
ATOM     30  O   UNL     1       7.554   5.412  14.402  0.00  0.00    +0.000 OA
ENDBRANCH  22  29
ENDBRANCH  17  25
ENDBRANCH   1  20
TORSDOF 5
ENDMDL
MODEL 8
REMARK VINA RESULT:      -7.8      1.068      1.830
REMARK  Name = 
REMARK  8 active torsions:
REMARK  status: ('A' for Active; 'I' for Inactive)
REMARK    1  A    between atoms: C_1  and  C_2
REMARK    2  A    between atoms: C_2  and  C_4
REMARK    3  A    between atoms: C_7  and  C_8
REMARK    4  A    between atoms: C_11  and  C_12
REMARK    5  A    between atoms: N_14  and  C_15
REMARK    6  A    between atoms: N_22  and  C_23
REMARK    7  A    between atoms: C_23  and  C_24
REMARK    8  A    between atoms: C_23  and  C_25
REMARK                            x       y       z     vdW  Elec       q    Type
REMARK                         _______ _______ _______ _____ _____    ______ ____
ROOT
ATOM      1  C   UNL     1       2.240   5.841  20.095  0.00  0.00    +0.000 C 
ATOM      2  O   UNL     1       1.641   5.500  21.111  0.00  0.00    +0.000 OA
ATOM      3  N   UNL     1       2.209   7.121  19.566  0.00  0.00    +0.000 N 
ATOM      4  H   UNL     1       2.659   7.233  18.664  0.00  0.00    +0.000 HD
ENDROOT
BRANCH   3   5
ATOM      5  C   UNL     1       1.519   8.232  20.106  0.00  0.00    +0.000 A 
ATOM      6  C   UNL     1       1.244   9.412  19.400  0.00  0.00    +0.000 A 
ATOM      7  N   UNL     1       0.602  10.512  19.880  0.00  0.00    +0.000 NA
ATOM      8  C   UNL     1       0.244  10.390  21.169  0.00  0.00    +0.000 A 
ATOM      9  C   UNL     1       0.447   9.283  21.987  0.00  0.00    +0.000 A 
ATOM     10  C   UNL     1      -0.092   9.670  23.231  0.00  0.00    +0.000 A 
ATOM     11  N   UNL     1      -0.602  10.905  23.223  0.00  0.00    +0.000 NA
ATOM     12  N   UNL     1      -0.399  11.321  21.946  0.00  0.00    +0.000 N 
ATOM     13  C   UNL     1       1.086   8.156  21.437  0.00  0.00    +0.000 A 
BRANCH  12  14
ATOM     14  C   UNL     1      -0.883  12.629  21.511  0.00  0.00    +0.000 C 
ATOM     15  C   UNL     1       0.275  13.603  21.286  0.00  0.00    +0.000 C 
ATOM     16  C   UNL     1      -1.762  12.528  20.264  0.00  0.00    +0.000 C 
ENDBRANCH  12  14
ENDBRANCH   3   5
BRANCH   1  20
ATOM     17  C   UNL     1       4.443   4.187  17.786  0.00  0.00    +0.000 A 
ATOM     18  C   UNL     1       3.974   3.063  18.439  0.00  0.00    +0.000 A 
ATOM     19  C   UNL     1       3.061   3.511  19.417  0.00  0.00    +0.000 A 
ATOM     20  C   UNL     1       3.019   4.888  19.326  0.00  0.00    +0.000 A 
ATOM     21  O   UNL     1       3.865   5.308  18.330  0.00  0.00    +0.000 OA
BRANCH  17  25
ATOM     22  C   UNL     1       6.978   4.890  14.393  0.00  0.00    +0.000 A 
ATOM     23  C   UNL     1       5.853   4.070  14.282  0.00  0.00    +0.000 A 
ATOM     24  C   UNL     1       5.051   3.821  15.403  0.00  0.00    +0.000 A 
ATOM     25  C   UNL     1       5.349   4.385  16.654  0.00  0.00    +0.000 A 
ATOM     26  C   UNL     1       6.504   5.170  16.763  0.00  0.00    +0.000 A 
ATOM     27  C   UNL     1       7.309   5.422  15.645  0.00  0.00    +0.000 A 
BRANCH  22  29
ATOM     28  C   UNL     1       7.384   4.802  11.843  0.00  0.00    +0.000 C 
ATOM     29  C   UNL     1       7.827   5.239  13.216  0.00  0.00    +0.000 C 
ATOM     30  O   UNL     1       8.857   5.890  13.374  0.00  0.00    +0.000 OA
ENDBRANCH  22  29
ENDBRANCH  17  25
ENDBRANCH   1  20
TORSDOF 5
ENDMDL
MODEL 9
REMARK VINA RESULT:      -7.7      1.720      2.638
REMARK  Name = 
REMARK  8 active torsions:
REMARK  status: ('A' for Active; 'I' for Inactive)
REMARK    1  A    between atoms: C_1  and  C_2
REMARK    2  A    between atoms: C_2  and  C_4
REMARK    3  A    between atoms: C_7  and  C_8
REMARK    4  A    between atoms: C_11  and  C_12
REMARK    5  A    between atoms: N_14  and  C_15
REMARK    6  A    between atoms: N_22  and  C_23
REMARK    7  A    between atoms: C_23  and  C_24
REMARK    8  A    between atoms: C_23  and  C_25
REMARK                            x       y       z     vdW  Elec       q    Type
REMARK                         _______ _______ _______ _____ _____    ______ ____
ROOT
ATOM      1  C   UNL     1       1.133   9.019  19.942  0.00  0.00    +0.000 C 
ATOM      2  O   UNL     1       1.244   9.943  19.140  0.00  0.00    +0.000 OA
ATOM      3  N   UNL     1       0.381   9.083  21.103  0.00  0.00    +0.000 N 
ATOM      4  H   UNL     1       0.470   8.288  21.726  0.00  0.00    +0.000 HD
ENDROOT
BRANCH   3   5
ATOM      5  C   UNL     1      -0.389  10.187  21.541  0.00  0.00    +0.000 A 
ATOM      6  C   UNL     1      -0.699  10.453  22.882  0.00  0.00    +0.000 A 
ATOM      7  N   UNL     1      -1.448  11.488  23.350  0.00  0.00    +0.000 NA
ATOM      8  C   UNL     1      -1.922  12.278  22.371  0.00  0.00    +0.000 A 
ATOM      9  C   UNL     1      -1.693  12.137  21.006  0.00  0.00    +0.000 A 
ATOM     10  C   UNL     1      -2.417  13.198  20.423  0.00  0.00    +0.000 A 
ATOM     11  N   UNL     1      -3.048  13.960  21.322  0.00  0.00    +0.000 NA
ATOM     12  N   UNL     1      -2.719  13.387  22.508  0.00  0.00    +0.000 N 
ATOM     13  C   UNL     1      -0.883  11.071  20.572  0.00  0.00    +0.000 A 
BRANCH  12  14
ATOM     14  C   UNL     1      -3.176  13.977  23.764  0.00  0.00    +0.000 C 
ATOM     15  C   UNL     1      -3.944  12.959  24.609  0.00  0.00    +0.000 C 
ATOM     16  C   UNL     1      -2.024  14.590  24.561  0.00  0.00    +0.000 C 
ENDBRANCH  12  14
ENDBRANCH   3   5
BRANCH   1  20
ATOM     17  C   UNL     1       3.211   6.325  18.781  0.00  0.00    +0.000 A 
ATOM     18  C   UNL     1       2.646   5.676  19.863  0.00  0.00    +0.000 A 
ATOM     19  C   UNL     1       1.764   6.594  20.474  0.00  0.00    +0.000 A 
ATOM     20  C   UNL     1       1.837   7.765  19.746  0.00  0.00    +0.000 A 
ATOM     21  O   UNL     1       2.723   7.607  18.709  0.00  0.00    +0.000 OA
BRANCH  17  25
ATOM     22  C   UNL     1       5.791   5.083  15.583  0.00  0.00    +0.000 A 
ATOM     23  C   UNL     1       4.974   4.158  16.236  0.00  0.00    +0.000 A 
ATOM     24  C   UNL     1       4.160   4.568  17.300  0.00  0.00    +0.000 A 
ATOM     25  C   UNL     1       4.139   5.904  17.732  0.00  0.00    +0.000 A 
ATOM     26  C   UNL     1       4.997   6.813  17.098  0.00  0.00    +0.000 A 
ATOM     27  C   UNL     1       5.813   6.408  16.034  0.00  0.00    +0.000 A 
BRANCH  22  29
ATOM     28  C   UNL     1       6.105   3.680  13.435  0.00  0.00    +0.000 C 
ATOM     29  C   UNL     1       6.627   4.710  14.403  0.00  0.00    +0.000 C 
ATOM     30  O   UNL     1       7.713   5.258  14.224  0.00  0.00    +0.000 OA
ENDBRANCH  22  29
ENDBRANCH  17  25
ENDBRANCH   1  20
TORSDOF 5
ENDMDL
