MODEL 1
REMARK VINA RESULT:      -7.6      0.000      0.000
REMARK  Name = 
REMARK  5 active torsions:
REMARK  status: ('A' for Active; 'I' for Inactive)
REMARK    1  A    between atoms: C_2  and  C_3
REMARK    2  A    between atoms: C_3  and  C_4
REMARK    3  A    between atoms: N_14  and  C_15
REMARK    4  A    between atoms: N_18  and  C_19
REMARK    5  A    between atoms: C_19  and  C_20
REMARK                            x       y       z     vdW  Elec       q    Type
REMARK                         _______ _______ _______ _____ _____    ______ ____
ROOT
ATOM      1  O   UNL     1       7.662   9.806  17.460  0.00  0.00    +0.000 OA
ATOM      2  C   UNL     1       8.149   8.917  18.152  0.00  0.00    +0.000 C 
ATOM      3  N   UNL     1       7.871   7.577  17.997  0.00  0.00    +0.000 N 
ATOM      4  H   UNL     1       8.190   6.980  18.752  0.00  0.00    +0.000 HD
ENDROOT
BRANCH   3   5
ATOM      5  C   UNL     1       6.945   6.946  17.041  0.00  0.00    +0.000 C 
ATOM      6  C   UNL     1       5.443   7.117  17.280  0.00  0.00    +0.000 C 
ATOM      7  C   UNL     1       4.788   6.056  18.178  0.00  0.00    +0.000 C 
ATOM      8  N   UNL     1       5.263   4.667  18.022  0.00  0.00    +0.000 NA
ATOM      9  C   UNL     1       6.723   4.576  17.853  0.00  0.00    +0.000 C 
ATOM     10  C   UNL     1       7.264   5.484  16.763  0.00  0.00    +0.000 C 
BRANCH   8  11
ATOM     11  C   UNL     1       4.904   3.865  19.219  0.00  0.00    +0.000 C 
BRANCH  11  12
ATOM     12  C   UNL     1       3.818   2.811  18.997  0.00  0.00    +0.000 C 
ATOM     13  C   UNL     1       2.524   3.075  19.735  0.00  0.00    +0.000 C 
ATOM     14  C   UNL     1       1.530   2.274  18.921  0.00  0.00    +0.000 C 
ATOM     15  O   UNL     1       2.004   2.261  17.568  0.00  0.00    +0.000 OA
ATOM     16  C   UNL     1       3.346   2.769  17.551  0.00  0.00    +0.000 C 
ENDBRANCH  11  12
ENDBRANCH   8  11
ENDBRANCH   3   5
BRANCH   2  17
ATOM     17  C   UNL     1       9.213   9.242  19.190  0.00  0.00    +0.000 C 
BRANCH  17  18
ATOM     18  C   UNL     1       9.401  10.692  19.527  0.00  0.00    +0.000 A 
ATOM     19  C   UNL     1       9.045  11.268  20.735  0.00  0.00    +0.000 A 
ATOM     20  N   UNL     1       9.449  12.575  20.735  0.00  0.00    +0.000 N 
ATOM     21  C   UNL     1      10.061  12.876  19.543  0.00  0.00    +0.000 A 
ATOM     22  C   UNL     1      10.636  14.081  19.116  0.00  0.00    +0.000 A 
ATOM     23  C   UNL     1      11.218  14.102  17.849  0.00  0.00    +0.000 A 
ATOM     24 CL   UNL     1      11.926  15.565  17.271  0.00  0.00    +0.000 Cl
ATOM     25  C   UNL     1      11.250  12.965  17.050  0.00  0.00    +0.000 A 
ATOM     26  C   UNL     1      10.682  11.765  17.502  0.00  0.00    +0.000 A 
ATOM     27  C   UNL     1      10.061  11.716  18.769  0.00  0.00    +0.000 A 
ATOM     28  H   UNL     1       9.347  13.217  21.510  0.00  0.00    +0.000 HD
ENDBRANCH  17  18
ENDBRANCH   2  17
TORSDOF 5
ENDMDL
MODEL 2
REMARK VINA RESULT:      -7.5      3.343      8.420
REMARK  Name = 
REMARK  5 active torsions:
REMARK  status: ('A' for Active; 'I' for Inactive)
REMARK    1  A    between atoms: C_2  and  C_3
REMARK    2  A    between atoms: C_3  and  C_4
REMARK    3  A    between atoms: N_14  and  C_15
REMARK    4  A    between atoms: N_18  and  C_19
REMARK    5  A    between atoms: C_19  and  C_20
REMARK                            x       y       z     vdW  Elec       q    Type
REMARK                         _______ _______ _______ _____ _____    ______ ____
ROOT
ATOM      1  O   UNL     1       5.431   3.259  19.587  0.00  0.00    +0.000 OA
ATOM      2  C   UNL     1       4.785   3.955  18.809  0.00  0.00    +0.000 C 
ATOM      3  N   UNL     1       5.341   4.702  17.794  0.00  0.00    +0.000 N 
ATOM      4  H   UNL     1       4.717   5.371  17.359  0.00  0.00    +0.000 HD
ENDROOT
BRANCH   3   5
ATOM      5  C   UNL     1       6.766   4.853  17.454  0.00  0.00    +0.000 C 
ATOM      6  C   UNL     1       7.733   5.237  18.576  0.00  0.00    +0.000 C 
ATOM      7  C   UNL     1       7.921   6.745  18.805  0.00  0.00    +0.000 C 
ATOM      8  N   UNL     1       7.954   7.601  17.604  0.00  0.00    +0.000 NA
ATOM      9  C   UNL     1       6.960   7.208  16.591  0.00  0.00    +0.000 C 
ATOM     10  C   UNL     1       7.009   5.733  16.236  0.00  0.00    +0.000 C 
BRANCH   8  11
ATOM     11  C   UNL     1       7.678   9.012  17.973  0.00  0.00    +0.000 C 
BRANCH  11  12
ATOM     12  C   UNL     1       8.915   9.887  18.183  0.00  0.00    +0.000 C 
ATOM     13  C   UNL     1       8.763  11.316  17.711  0.00  0.00    +0.000 C 
ATOM     14  C   UNL     1       9.821  12.029  18.526  0.00  0.00    +0.000 C 
ATOM     15  O   UNL     1       9.947  11.322  19.767  0.00  0.00    +0.000 OA
ATOM     16  C   UNL     1       9.236  10.081  19.658  0.00  0.00    +0.000 C 
ENDBRANCH  11  12
ENDBRANCH   8  11
ENDBRANCH   3   5
BRANCH   2  17
ATOM     17  C   UNL     1       3.264   3.953  18.853  0.00  0.00    +0.000 C 
BRANCH  17  18
ATOM     18  C   UNL     1       2.610   5.114  19.543  0.00  0.00    +0.000 A 
ATOM     19  C   UNL     1       2.173   5.099  20.856  0.00  0.00    +0.000 A 
ATOM     20  N   UNL     1       1.724   6.349  21.185  0.00  0.00    +0.000 N 
ATOM     21  C   UNL     1       1.851   7.190  20.107  0.00  0.00    +0.000 A 
ATOM     22  C   UNL     1       1.533   8.550  19.996  0.00  0.00    +0.000 A 
ATOM     23  C   UNL     1       1.789   9.174  18.775  0.00  0.00    +0.000 A 
ATOM     24 CL   UNL     1       1.402  10.843  18.583  0.00  0.00    +0.000 Cl
ATOM     25  C   UNL     1       2.362   8.478  17.716  0.00  0.00    +0.000 A 
ATOM     26  C   UNL     1       2.687   7.121  17.852  0.00  0.00    +0.000 A 
ATOM     27  C   UNL     1       2.416   6.453  19.066  0.00  0.00    +0.000 A 
ATOM     28  H   UNL     1       1.383   6.625  22.096  0.00  0.00    +0.000 HD
ENDBRANCH  17  18
ENDBRANCH   2  17
TORSDOF 5
ENDMDL
MODEL 3
REMARK VINA RESULT:      -7.4      6.390      8.988
REMARK  Name = 
REMARK  5 active torsions:
REMARK  status: ('A' for Active; 'I' for Inactive)
REMARK    1  A    between atoms: C_2  and  C_3
REMARK    2  A    between atoms: C_3  and  C_4
REMARK    3  A    between atoms: N_14  and  C_15
REMARK    4  A    between atoms: N_18  and  C_19
REMARK    5  A    between atoms: C_19  and  C_20
REMARK                            x       y       z     vdW  Elec       q    Type
REMARK                         _______ _______ _______ _____ _____    ______ ____
ROOT
ATOM      1  O   UNL     1       1.262   7.870  20.821  0.00  0.00    +0.000 OA
ATOM      2  C   UNL     1       1.578   8.041  19.647  0.00  0.00    +0.000 C 
ATOM      3  N   UNL     1       1.906   7.025  18.778  0.00  0.00    +0.000 N 
ATOM      4  H   UNL     1       2.327   7.322  17.905  0.00  0.00    +0.000 HD
ENDROOT
BRANCH   3   5
ATOM      5  C   UNL     1       1.982   5.581  19.057  0.00  0.00    +0.000 C 
ATOM      6  C   UNL     1       2.902   5.118  20.189  0.00  0.00    +0.000 C 
ATOM      7  C   UNL     1       4.356   4.828  19.787  0.00  0.00    +0.000 C 
ATOM      8  N   UNL     1       4.568   4.181  18.477  0.00  0.00    +0.000 NA
ATOM      9  C   UNL     1       3.688   4.715  17.424  0.00  0.00    +0.000 C 
ATOM     10  C   UNL     1       2.221   4.735  17.814  0.00  0.00    +0.000 C 
BRANCH   8  11
ATOM     11  C   UNL     1       5.969   4.380  18.029  0.00  0.00    +0.000 C 
BRANCH  11  12
ATOM     12  C   UNL     1       6.438   5.834  17.974  0.00  0.00    +0.000 C 
ATOM     13  C   UNL     1       7.636   6.143  18.846  0.00  0.00    +0.000 C 
ATOM     14  C   UNL     1       8.194   7.384  18.183  0.00  0.00    +0.000 C 
ATOM     15  O   UNL     1       7.886   7.293  16.786  0.00  0.00    +0.000 OA
ATOM     16  C   UNL     1       6.953   6.220  16.595  0.00  0.00    +0.000 C 
ENDBRANCH  11  12
ENDBRANCH   8  11
ENDBRANCH   3   5
BRANCH   2  17
ATOM     17  C   UNL     1       1.521   9.430  19.028  0.00  0.00    +0.000 C 
BRANCH  17  18
ATOM     18  C   UNL     1       0.306  10.254  19.339  0.00  0.00    +0.000 A 
ATOM     19  C   UNL     1       0.205  11.128  20.407  0.00  0.00    +0.000 A 
ATOM     20  N   UNL     1      -0.994  11.783  20.329  0.00  0.00    +0.000 N 
ATOM     21  C   UNL     1      -1.692  11.350  19.228  0.00  0.00    +0.000 A 
ATOM     22  C   UNL     1      -2.948  11.754  18.755  0.00  0.00    +0.000 A 
ATOM     23  C   UNL     1      -3.415  11.159  17.583  0.00  0.00    +0.000 A 
ATOM     24 CL   UNL     1      -4.961  11.611  16.967  0.00  0.00    +0.000 Cl
ATOM     25  C   UNL     1      -2.653  10.220  16.897  0.00  0.00    +0.000 A 
ATOM     26  C   UNL     1      -1.393   9.840  17.380  0.00  0.00    +0.000 A 
ATOM     27  C   UNL     1      -0.901  10.403  18.578  0.00  0.00    +0.000 A 
ATOM     28  H   UNL     1      -1.307  12.504  20.964  0.00  0.00    +0.000 HD
ENDBRANCH  17  18
ENDBRANCH   2  17
TORSDOF 5
ENDMDL
MODEL 4
REMARK VINA RESULT:      -7.4      6.907      8.963
REMARK  Name = 
REMARK  5 active torsions:
REMARK  status: ('A' for Active; 'I' for Inactive)
REMARK    1  A    between atoms: C_2  and  C_3
REMARK    2  A    between atoms: C_3  and  C_4
REMARK    3  A    between atoms: N_14  and  C_15
REMARK    4  A    between atoms: N_18  and  C_19
REMARK    5  A    between atoms: C_19  and  C_20
REMARK                            x       y       z     vdW  Elec       q    Type
REMARK                         _______ _______ _______ _____ _____    ______ ____
ROOT
ATOM      1  O   UNL     1       0.976   8.093  21.206  0.00  0.00    +0.000 OA
ATOM      2  C   UNL     1       1.522   8.196  20.111  0.00  0.00    +0.000 C 
ATOM      3  N   UNL     1       2.168   7.163  19.469  0.00  0.00    +0.000 N 
ATOM      4  H   UNL     1       2.732   7.437  18.672  0.00  0.00    +0.000 HD
ENDROOT
BRANCH   3   5
ATOM      5  C   UNL     1       2.372   5.784  19.943  0.00  0.00    +0.000 C 
ATOM      6  C   UNL     1       3.810   5.272  20.057  0.00  0.00    +0.000 C 
ATOM      7  C   UNL     1       4.386   4.619  18.791  0.00  0.00    +0.000 C 
ATOM      8  N   UNL     1       3.465   3.785  17.996  0.00  0.00    +0.000 NA
ATOM      9  C   UNL     1       2.117   4.366  17.881  0.00  0.00    +0.000 C 
ATOM     10  C   UNL     1       1.512   4.760  19.217  0.00  0.00    +0.000 C 
BRANCH   8  11
ATOM     11  C   UNL     1       3.992   3.611  16.619  0.00  0.00    +0.000 C 
BRANCH  11  12
ATOM     12  C   UNL     1       5.323   4.308  16.335  0.00  0.00    +0.000 C 
ATOM     13  C   UNL     1       6.159   3.655  15.257  0.00  0.00    +0.000 C 
ATOM     14  C   UNL     1       7.045   4.799  14.811  0.00  0.00    +0.000 C 
ATOM     15  O   UNL     1       6.300   6.009  14.998  0.00  0.00    +0.000 OA
ATOM     16  C   UNL     1       5.128   5.708  15.770  0.00  0.00    +0.000 C 
ENDBRANCH  11  12
ENDBRANCH   8  11
ENDBRANCH   3   5
BRANCH   2  17
ATOM     17  C   UNL     1       1.420   9.491  19.318  0.00  0.00    +0.000 C 
BRANCH  17  18
ATOM     18  C   UNL     1       0.191  10.321  19.543  0.00  0.00    +0.000 A 
ATOM     19  C   UNL     1       0.033  11.220  20.584  0.00  0.00    +0.000 A 
ATOM     20  N   UNL     1      -1.159  11.872  20.425  0.00  0.00    +0.000 N 
ATOM     21  C   UNL     1      -1.797  11.413  19.299  0.00  0.00    +0.000 A 
ATOM     22  C   UNL     1      -3.025  11.805  18.749  0.00  0.00    +0.000 A 
ATOM     23  C   UNL     1      -3.429  11.183  17.568  0.00  0.00    +0.000 A 
ATOM     24 CL   UNL     1      -4.939  11.620  16.859  0.00  0.00    +0.000 Cl
ATOM     25  C   UNL     1      -2.632  10.228  16.946  0.00  0.00    +0.000 A 
ATOM     26  C   UNL     1      -1.400   9.860  17.506  0.00  0.00    +0.000 A 
ATOM     27  C   UNL     1      -0.974  10.452  18.714  0.00  0.00    +0.000 A 
ATOM     28  H   UNL     1      -1.506  12.608  21.025  0.00  0.00    +0.000 HD
ENDBRANCH  17  18
ENDBRANCH   2  17
TORSDOF 5
ENDMDL
MODEL 5
REMARK VINA RESULT:      -7.4      5.990      7.435
REMARK  Name = 
REMARK  5 active torsions:
REMARK  status: ('A' for Active; 'I' for Inactive)
REMARK    1  A    between atoms: C_2  and  C_3
REMARK    2  A    between atoms: C_3  and  C_4
REMARK    3  A    between atoms: N_14  and  C_15
REMARK    4  A    between atoms: N_18  and  C_19
REMARK    5  A    between atoms: C_19  and  C_20
REMARK                            x       y       z     vdW  Elec       q    Type
REMARK                         _______ _______ _______ _____ _____    ______ ____
ROOT
ATOM      1  O   UNL     1       2.307   5.971  17.859  0.00  0.00    +0.000 OA
ATOM      2  C   UNL     1       2.833   7.080  17.893  0.00  0.00    +0.000 C 
ATOM      3  N   UNL     1       4.153   7.319  17.582  0.00  0.00    +0.000 N 
ATOM      4  H   UNL     1       4.496   8.239  17.836  0.00  0.00    +0.000 HD
ENDROOT
BRANCH   3   5
ATOM      5  C   UNL     1       5.186   6.345  17.194  0.00  0.00    +0.000 C 
ATOM      6  C   UNL     1       4.753   5.137  16.359  0.00  0.00    +0.000 C 
ATOM      7  C   UNL     1       4.296   3.906  17.157  0.00  0.00    +0.000 C 
ATOM      8  N   UNL     1       5.041   3.602  18.394  0.00  0.00    +0.000 NA
ATOM      9  C   UNL     1       5.374   4.806  19.175  0.00  0.00    +0.000 C 
ATOM     10  C   UNL     1       6.056   5.887  18.356  0.00  0.00    +0.000 C 
BRANCH   8  11
ATOM     11  C   UNL     1       4.236   2.714  19.270  0.00  0.00    +0.000 C 
BRANCH  11  12
ATOM     12  C   UNL     1       2.960   3.337  19.838  0.00  0.00    +0.000 C 
ATOM     13  C   UNL     1       1.685   2.898  19.152  0.00  0.00    +0.000 C 
ATOM     14  C   UNL     1       0.645   3.173  20.217  0.00  0.00    +0.000 C 
ATOM     15  O   UNL     1       1.286   3.003  21.488  0.00  0.00    +0.000 OA
ATOM     16  C   UNL     1       2.701   2.905  21.275  0.00  0.00    +0.000 C 
ENDBRANCH  11  12
ENDBRANCH   8  11
ENDBRANCH   3   5
BRANCH   2  17
ATOM     17  C   UNL     1       2.001   8.319  18.187  0.00  0.00    +0.000 C 
BRANCH  17  18
ATOM     18  C   UNL     1       1.524   8.487  19.600  0.00  0.00    +0.000 A 
ATOM     19  C   UNL     1       1.923   7.693  20.661  0.00  0.00    +0.000 A 
ATOM     20  N   UNL     1       1.376   8.188  21.812  0.00  0.00    +0.000 N 
ATOM     21  C   UNL     1       0.613   9.294  21.530  0.00  0.00    +0.000 A 
ATOM     22  C   UNL     1      -0.113  10.121  22.398  0.00  0.00    +0.000 A 
ATOM     23  C   UNL     1      -0.788  11.206  21.839  0.00  0.00    +0.000 A 
ATOM     24 CL   UNL     1      -1.708  12.245  22.862  0.00  0.00    +0.000 Cl
ATOM     25  C   UNL     1      -0.723  11.472  20.475  0.00  0.00    +0.000 A 
ATOM     26  C   UNL     1       0.022  10.641  19.626  0.00  0.00    +0.000 A 
ATOM     27  C   UNL     1       0.695   9.519  20.156  0.00  0.00    +0.000 A 
ATOM     28  H   UNL     1       1.535   7.819  22.740  0.00  0.00    +0.000 HD
ENDBRANCH  17  18
ENDBRANCH   2  17
TORSDOF 5
ENDMDL
MODEL 6
REMARK VINA RESULT:      -7.3      3.842     10.502
REMARK  Name = 
REMARK  5 active torsions:
REMARK  status: ('A' for Active; 'I' for Inactive)
REMARK    1  A    between atoms: C_2  and  C_3
REMARK    2  A    between atoms: C_3  and  C_4
REMARK    3  A    between atoms: N_14  and  C_15
REMARK    4  A    between atoms: N_18  and  C_19
REMARK    5  A    between atoms: C_19  and  C_20
REMARK                            x       y       z     vdW  Elec       q    Type
REMARK                         _______ _______ _______ _____ _____    ______ ____
ROOT
ATOM      1  O   UNL     1       8.633   7.565  18.919  0.00  0.00    +0.000 OA
ATOM      2  C   UNL     1       8.143   8.415  18.182  0.00  0.00    +0.000 C 
ATOM      3  N   UNL     1       8.590   9.715  18.098  0.00  0.00    +0.000 N 
ATOM      4  H   UNL     1       7.977  10.351  17.598  0.00  0.00    +0.000 HD
ENDROOT
BRANCH   3   5
ATOM      5  C   UNL     1       9.677  10.354  18.859  0.00  0.00    +0.000 C 
ATOM      6  C   UNL     1       9.301  11.153  20.109  0.00  0.00    +0.000 C 
ATOM      7  C   UNL     1       8.977  12.637  19.876  0.00  0.00    +0.000 C 
ATOM      8  N   UNL     1       9.797  13.348  18.877  0.00  0.00    +0.000 NA
ATOM      9  C   UNL     1      10.072  12.539  17.678  0.00  0.00    +0.000 C 
ATOM     10  C   UNL     1      10.630  11.163  17.992  0.00  0.00    +0.000 C 
BRANCH   8  11
ATOM     11  C   UNL     1       9.104  14.583  18.430  0.00  0.00    +0.000 C 
BRANCH  11  12
ATOM     12  C   UNL     1       9.950  15.857  18.465  0.00  0.00    +0.000 C 
ATOM     13  C   UNL     1      11.287  15.706  19.157  0.00  0.00    +0.000 C 
ATOM     14  C   UNL     1      12.080  16.847  18.557  0.00  0.00    +0.000 C 
ATOM     15  O   UNL     1      11.584  17.055  17.228  0.00  0.00    +0.000 OA
ATOM     16  C   UNL     1      10.371  16.304  17.073  0.00  0.00    +0.000 C 
ENDBRANCH  11  12
ENDBRANCH   8  11
ENDBRANCH   3   5
BRANCH   2  17
ATOM     17  C   UNL     1       7.039   8.044  17.202  0.00  0.00    +0.000 C 
BRANCH  17  18
ATOM     18  C   UNL     1       6.508   6.644  17.289  0.00  0.00    +0.000 A 
ATOM     19  C   UNL     1       7.295   5.505  17.259  0.00  0.00    +0.000 A 
ATOM     20  N   UNL     1       6.497   4.413  17.462  0.00  0.00    +0.000 N 
ATOM     21  C   UNL     1       5.192   4.810  17.619  0.00  0.00    +0.000 A 
ATOM     22  C   UNL     1       4.048   4.036  17.861  0.00  0.00    +0.000 A 
ATOM     23  C   UNL     1       2.835   4.709  18.005  0.00  0.00    +0.000 A 
ATOM     24 CL   UNL     1       1.396   3.802  18.289  0.00  0.00    +0.000 Cl
ATOM     25  C   UNL     1       2.766   6.097  17.935  0.00  0.00    +0.000 A 
ATOM     26  C   UNL     1       3.925   6.853  17.707  0.00  0.00    +0.000 A 
ATOM     27  C   UNL     1       5.165   6.201  17.531  0.00  0.00    +0.000 A 
ATOM     28  H   UNL     1       6.821   3.457  17.524  0.00  0.00    +0.000 HD
ENDBRANCH  17  18
ENDBRANCH   2  17
TORSDOF 5
ENDMDL
MODEL 7
REMARK VINA RESULT:      -7.3      5.407      7.829
REMARK  Name = 
REMARK  5 active torsions:
REMARK  status: ('A' for Active; 'I' for Inactive)
REMARK    1  A    between atoms: C_2  and  C_3
REMARK    2  A    between atoms: C_3  and  C_4
REMARK    3  A    between atoms: N_14  and  C_15
REMARK    4  A    between atoms: N_18  and  C_19
REMARK    5  A    between atoms: C_19  and  C_20
REMARK                            x       y       z     vdW  Elec       q    Type
REMARK                         _______ _______ _______ _____ _____    ______ ____
ROOT
ATOM      1  O   UNL     1       3.386   6.030  19.695  0.00  0.00    +0.000 OA
ATOM      2  C   UNL     1       2.238   6.029  20.128  0.00  0.00    +0.000 C 
ATOM      3  N   UNL     1       1.453   4.902  20.235  0.00  0.00    +0.000 N 
ATOM      4  H   UNL     1       0.472   5.075  20.425  0.00  0.00    +0.000 HD
ENDROOT
BRANCH   3   5
ATOM      5  C   UNL     1       1.784   3.523  19.839  0.00  0.00    +0.000 C 
ATOM      6  C   UNL     1       3.205   3.022  20.113  0.00  0.00    +0.000 C 
ATOM      7  C   UNL     1       4.229   3.285  18.999  0.00  0.00    +0.000 C 
ATOM      8  N   UNL     1       3.751   3.144  17.610  0.00  0.00    +0.000 NA
ATOM      9  C   UNL     1       2.402   3.697  17.407  0.00  0.00    +0.000 C 
ATOM     10  C   UNL     1       1.383   3.188  18.410  0.00  0.00    +0.000 C 
BRANCH   8  11
ATOM     11  C   UNL     1       4.666   3.852  16.679  0.00  0.00    +0.000 C 
BRANCH  11  12
ATOM     12  C   UNL     1       5.425   5.035  17.283  0.00  0.00    +0.000 C 
ATOM     13  C   UNL     1       6.932   4.928  17.192  0.00  0.00    +0.000 C 
ATOM     14  C   UNL     1       7.356   6.377  17.305  0.00  0.00    +0.000 C 
ATOM     15  O   UNL     1       6.306   7.171  16.738  0.00  0.00    +0.000 OA
ATOM     16  C   UNL     1       5.162   6.330  16.529  0.00  0.00    +0.000 C 
ENDBRANCH  11  12
ENDBRANCH   8  11
ENDBRANCH   3   5
BRANCH   2  17
ATOM     17  C   UNL     1       1.625   7.301  20.696  0.00  0.00    +0.000 C 
BRANCH  17  18
ATOM     18  C   UNL     1       1.516   8.468  19.760  0.00  0.00    +0.000 A 
ATOM     19  C   UNL     1       1.935   8.456  18.440  0.00  0.00    +0.000 A 
ATOM     20  N   UNL     1       1.593   9.645  17.858  0.00  0.00    +0.000 N 
ATOM     21  C   UNL     1       0.961  10.449  18.774  0.00  0.00    +0.000 A 
ATOM     22  C   UNL     1       0.431  11.737  18.613  0.00  0.00    +0.000 A 
ATOM     23  C   UNL     1      -0.187  12.321  19.719  0.00  0.00    +0.000 A 
ATOM     24 CL   UNL     1      -0.842  13.910  19.577  0.00  0.00    +0.000 Cl
ATOM     25  C   UNL     1      -0.296  11.642  20.928  0.00  0.00    +0.000 A 
ATOM     26  C   UNL     1       0.228  10.348  21.063  0.00  0.00    +0.000 A 
ATOM     27  C   UNL     1       0.883   9.739  19.971  0.00  0.00    +0.000 A 
ATOM     28  H   UNL     1       1.748   9.887  16.889  0.00  0.00    +0.000 HD
ENDBRANCH  17  18
ENDBRANCH   2  17
TORSDOF 5
ENDMDL
MODEL 8
REMARK VINA RESULT:      -7.3      1.557      1.940
REMARK  Name = 
REMARK  5 active torsions:
REMARK  status: ('A' for Active; 'I' for Inactive)
REMARK    1  A    between atoms: C_2  and  C_3
REMARK    2  A    between atoms: C_3  and  C_4
REMARK    3  A    between atoms: N_14  and  C_15
REMARK    4  A    between atoms: N_18  and  C_19
REMARK    5  A    between atoms: C_19  and  C_20
REMARK                            x       y       z     vdW  Elec       q    Type
REMARK                         _______ _______ _______ _____ _____    ______ ____
ROOT
ATOM      1  O   UNL     1       7.932   9.657  17.151  0.00  0.00    +0.000 OA
ATOM      2  C   UNL     1       8.335   9.180  18.207  0.00  0.00    +0.000 C 
ATOM      3  N   UNL     1       8.281   7.840  18.522  0.00  0.00    +0.000 N 
ATOM      4  H   UNL     1       8.470   7.617  19.492  0.00  0.00    +0.000 HD
ENDROOT
BRANCH   3   5
ATOM      5  C   UNL     1       7.721   6.741  17.718  0.00  0.00    +0.000 C 
ATOM      6  C   UNL     1       6.448   7.017  16.915  0.00  0.00    +0.000 C 
ATOM      7  C   UNL     1       5.126   6.767  17.658  0.00  0.00    +0.000 C 
ATOM      8  N   UNL     1       5.081   5.599  18.559  0.00  0.00    +0.000 NA
ATOM      9  C   UNL     1       6.317   5.428  19.340  0.00  0.00    +0.000 C 
ATOM     10  C   UNL     1       7.575   5.438  18.491  0.00  0.00    +0.000 C 
BRANCH   8  11
ATOM     11  C   UNL     1       3.962   5.740  19.524  0.00  0.00    +0.000 C 
BRANCH  11  12
ATOM     12  C   UNL     1       3.064   4.511  19.669  0.00  0.00    +0.000 C 
ATOM     13  C   UNL     1       1.856   4.714  20.558  0.00  0.00    +0.000 C 
ATOM     14  C   UNL     1       0.921   3.628  20.068  0.00  0.00    +0.000 C 
ATOM     15  O   UNL     1       1.201   3.424  18.677  0.00  0.00    +0.000 OA
ATOM     16  C   UNL     1       2.414   4.117  18.350  0.00  0.00    +0.000 C 
ENDBRANCH  11  12
ENDBRANCH   8  11
ENDBRANCH   3   5
BRANCH   2  17
ATOM     17  C   UNL     1       9.046  10.057  19.228  0.00  0.00    +0.000 C 
BRANCH  17  18
ATOM     18  C   UNL     1       9.960  11.115  18.684  0.00  0.00    +0.000 A 
ATOM     19  C   UNL     1      11.223  10.870  18.172  0.00  0.00    +0.000 A 
ATOM     20  N   UNL     1      11.731  12.039  17.675  0.00  0.00    +0.000 N 
ATOM     21  C   UNL     1      10.826  13.055  17.854  0.00  0.00    +0.000 A 
ATOM     22  C   UNL     1      10.918  14.405  17.487  0.00  0.00    +0.000 A 
ATOM     23  C   UNL     1       9.827  15.226  17.773  0.00  0.00    +0.000 A 
ATOM     24 CL   UNL     1       9.897  16.897  17.355  0.00  0.00    +0.000 Cl
ATOM     25  C   UNL     1       8.681  14.718  18.375  0.00  0.00    +0.000 A 
ATOM     26  C   UNL     1       8.603  13.362  18.721  0.00  0.00    +0.000 A 
ATOM     27  C   UNL     1       9.700  12.510  18.470  0.00  0.00    +0.000 A 
ATOM     28  H   UNL     1      12.624  12.136  17.210  0.00  0.00    +0.000 HD
ENDBRANCH  17  18
ENDBRANCH   2  17
TORSDOF 5
ENDMDL
MODEL 9
REMARK VINA RESULT:      -7.2      1.093      1.324
REMARK  Name = 
REMARK  5 active torsions:
REMARK  status: ('A' for Active; 'I' for Inactive)
REMARK    1  A    between atoms: C_2  and  C_3
REMARK    2  A    between atoms: C_3  and  C_4
REMARK    3  A    between atoms: N_14  and  C_15
REMARK    4  A    between atoms: N_18  and  C_19
REMARK    5  A    between atoms: C_19  and  C_20
REMARK                            x       y       z     vdW  Elec       q    Type
REMARK                         _______ _______ _______ _____ _____    ______ ____
ROOT
ATOM      1  O   UNL     1       7.827   9.689  17.441  0.00  0.00    +0.000 OA
ATOM      2  C   UNL     1       8.316   8.927  18.270  0.00  0.00    +0.000 C 
ATOM      3  N   UNL     1       8.138   7.561  18.265  0.00  0.00    +0.000 N 
ATOM      4  H   UNL     1       8.436   7.084  19.108  0.00  0.00    +0.000 HD
ENDROOT
BRANCH   3   5
ATOM      5  C   UNL     1       7.334   6.753  17.333  0.00  0.00    +0.000 C 
ATOM      6  C   UNL     1       5.959   7.288  16.926  0.00  0.00    +0.000 C 
ATOM      7  C   UNL     1       4.791   6.880  17.838  0.00  0.00    +0.000 C 
ATOM      8  N   UNL     1       4.817   5.507  18.378  0.00  0.00    +0.000 NA
ATOM      9  C   UNL     1       6.161   5.081  18.801  0.00  0.00    +0.000 C 
ATOM     10  C   UNL     1       7.224   5.290  17.737  0.00  0.00    +0.000 C 
BRANCH   8  11
ATOM     11  C   UNL     1       3.926   5.406  19.562  0.00  0.00    +0.000 C 
BRANCH  11  12
ATOM     12  C   UNL     1       2.559   4.773  19.299  0.00  0.00    +0.000 C 
ATOM     13  C   UNL     1       2.584   3.271  19.121  0.00  0.00    +0.000 C 
ATOM     14  C   UNL     1       1.157   2.892  19.454  0.00  0.00    +0.000 C 
ATOM     15  O   UNL     1       0.678   3.846  20.412  0.00  0.00    +0.000 OA
ATOM     16  C   UNL     1       1.618   4.928  20.484  0.00  0.00    +0.000 C 
ENDBRANCH  11  12
ENDBRANCH   8  11
ENDBRANCH   3   5
BRANCH   2  17
ATOM     17  C   UNL     1       9.272   9.452  19.332  0.00  0.00    +0.000 C 
BRANCH  17  18
ATOM     18  C   UNL     1       9.318  10.940  19.516  0.00  0.00    +0.000 A 
ATOM     19  C   UNL     1       8.814  11.609  20.618  0.00  0.00    +0.000 A 
ATOM     20  N   UNL     1       9.115  12.938  20.503  0.00  0.00    +0.000 N 
ATOM     21  C   UNL     1       9.805  13.161  19.337  0.00  0.00    +0.000 A 
ATOM     22  C   UNL     1      10.322  14.359  18.824  0.00  0.00    +0.000 A 
ATOM     23  C   UNL     1      11.011  14.296  17.613  0.00  0.00    +0.000 A 
ATOM     24 CL   UNL     1      11.654  15.743  16.932  0.00  0.00    +0.000 Cl
ATOM     25  C   UNL     1      11.200  13.086  16.952  0.00  0.00    +0.000 A 
ATOM     26  C   UNL     1      10.688  11.897  17.491  0.00  0.00    +0.000 A 
ATOM     27  C   UNL     1       9.962  11.930  18.701  0.00  0.00    +0.000 A 
ATOM     28  H   UNL     1       8.896  13.648  21.189  0.00  0.00    +0.000 HD
ENDBRANCH  17  18
ENDBRANCH   2  17
TORSDOF 5
ENDMDL
