MODEL 1
REMARK VINA RESULT:      -7.9      0.000      0.000
REMARK  Name = 
REMARK  7 active torsions:
REMARK  status: ('A' for Active; 'I' for Inactive)
REMARK    1  A    between atoms: C_1  and  C_2
REMARK    2  A    between atoms: C_6  and  C_7
REMARK    3  A    between atoms: C_7  and  C_8
REMARK    4  A    between atoms: C_7  and  C_9
REMARK    5  A    between atoms: C_11  and  N_12
REMARK    6  A    between atoms: N_12  and  C_13
REMARK    7  A    between atoms: C_13  and  C_14
REMARK                            x       y       z     vdW  Elec       q    Type
REMARK                         _______ _______ _______ _____ _____    ______ ____
ROOT
ATOM      1  C   UNL     1       6.135   3.158  11.958  0.00  0.00    +0.000 C 
ATOM      2  C   UNL     1       6.160   3.802  13.297  0.00  0.00    +0.000 A 
ATOM      3  C   UNL     1       7.129   4.697  13.781  0.00  0.00    +0.000 A 
ATOM      4  C   UNL     1       6.727   5.021  15.056  0.00  0.00    +0.000 A 
ATOM      5  N   UNL     1       7.296   5.862  15.978  0.00  0.00    +0.000 NA
ATOM      6  C   UNL     1       6.674   5.990  17.115  0.00  0.00    +0.000 A 
ATOM      7  C   UNL     1       5.428   5.251  17.478  0.00  0.00    +0.000 A 
ATOM      8  C   UNL     1       4.881   4.434  16.549  0.00  0.00    +0.000 A 
ATOM      9  N   UNL     1       5.538   4.313  15.293  0.00  0.00    +0.000 N 
ATOM     10  N   UNL     1       5.194   3.562  14.206  0.00  0.00    +0.000 NA
ENDROOT
BRANCH   6  11
ATOM     11  C   UNL     1       7.243   6.910  18.202  0.00  0.00    +0.000 C 
ATOM     12  C   UNL     1       8.109   6.100  19.160  0.00  0.00    +0.000 C 
ATOM     13  C   UNL     1       8.039   8.083  17.640  0.00  0.00    +0.000 C 
ENDBRANCH   6  11
BRANCH   8  14
ATOM     14  N   UNL     1       3.684   3.773  16.878  0.00  0.00    +0.000 N 
ATOM     15  H   UNL     1       3.140   3.576  16.039  0.00  0.00    +0.000 HD
BRANCH  14  16
ATOM     16  C   UNL     1       3.679   2.625  17.782  0.00  0.00    +0.000 C 
BRANCH  16  17
ATOM     17  C   UNL     1       2.897   2.959  19.032  0.00  0.00    +0.000 A 
ATOM     18  C   UNL     1       1.697   3.674  18.965  0.00  0.00    +0.000 A 
ATOM     19  C   UNL     1       0.983   3.896  20.134  0.00  0.00    +0.000 A 
ATOM     20  N   UNL     1       1.383   3.472  21.351  0.00  0.00    +0.000 NA
ATOM     21  C   UNL     1       2.549   2.795  21.401  0.00  0.00    +0.000 A 
ATOM     22  C   UNL     1       3.329   2.516  20.288  0.00  0.00    +0.000 A 
ENDBRANCH  16  17
ENDBRANCH  14  16
ENDBRANCH   8  14
TORSDOF 4
ENDMDL
MODEL 2
REMARK VINA RESULT:      -7.9      0.099      1.029
REMARK  Name = 
REMARK  7 active torsions:
REMARK  status: ('A' for Active; 'I' for Inactive)
REMARK    1  A    between atoms: C_1  and  C_2
REMARK    2  A    between atoms: C_6  and  C_7
REMARK    3  A    between atoms: C_7  and  C_8
REMARK    4  A    between atoms: C_7  and  C_9
REMARK    5  A    between atoms: C_11  and  N_12
REMARK    6  A    between atoms: N_12  and  C_13
REMARK    7  A    between atoms: C_13  and  C_14
REMARK                            x       y       z     vdW  Elec       q    Type
REMARK                         _______ _______ _______ _____ _____    ______ ____
ROOT
ATOM      1  C   UNL     1       6.239   3.283  11.935  0.00  0.00    +0.000 C 
ATOM      2  C   UNL     1       6.247   3.896  13.288  0.00  0.00    +0.000 A 
ATOM      3  C   UNL     1       7.206   4.786  13.802  0.00  0.00    +0.000 A 
ATOM      4  C   UNL     1       6.789   5.078  15.080  0.00  0.00    +0.000 A 
ATOM      5  N   UNL     1       7.343   5.900  16.027  0.00  0.00    +0.000 NA
ATOM      6  C   UNL     1       6.709   5.999  17.160  0.00  0.00    +0.000 A 
ATOM      7  C   UNL     1       5.465   5.245  17.493  0.00  0.00    +0.000 A 
ATOM      8  C   UNL     1       4.932   4.446  16.541  0.00  0.00    +0.000 A 
ATOM      9  N   UNL     1       5.602   4.358  15.289  0.00  0.00    +0.000 N 
ATOM     10  N   UNL     1       5.274   3.630  14.181  0.00  0.00    +0.000 NA
ENDROOT
BRANCH   6  11
ATOM     11  C   UNL     1       7.262   6.898  18.274  0.00  0.00    +0.000 C 
ATOM     12  C   UNL     1       8.147   6.076  19.205  0.00  0.00    +0.000 C 
ATOM     13  C   UNL     1       8.032   8.103  17.746  0.00  0.00    +0.000 C 
ENDBRANCH   6  11
BRANCH   8  14
ATOM     14  N   UNL     1       3.736   3.770  16.842  0.00  0.00    +0.000 N 
ATOM     15  H   UNL     1       3.208   3.576  15.993  0.00  0.00    +0.000 HD
BRANCH  14  16
ATOM     16  C   UNL     1       3.727   2.614  17.736  0.00  0.00    +0.000 C 
BRANCH  16  17
ATOM     17  C   UNL     1       2.904   2.921  18.966  0.00  0.00    +0.000 A 
ATOM     18  C   UNL     1       3.341   2.546  20.241  0.00  0.00    +0.000 A 
ATOM     19  C   UNL     1       2.581   2.911  21.343  0.00  0.00    +0.000 A 
ATOM     20  N   UNL     1       1.425   3.602  21.264  0.00  0.00    +0.000 NA
ATOM     21  C   UNL     1       1.010   3.945  20.027  0.00  0.00    +0.000 A 
ATOM     22  C   UNL     1       1.704   3.635  18.866  0.00  0.00    +0.000 A 
ENDBRANCH  16  17
ENDBRANCH  14  16
ENDBRANCH   8  14
TORSDOF 4
ENDMDL
MODEL 3
REMARK VINA RESULT:      -7.6      0.896      1.253
REMARK  Name = 
REMARK  7 active torsions:
REMARK  status: ('A' for Active; 'I' for Inactive)
REMARK    1  A    between atoms: C_1  and  C_2
REMARK    2  A    between atoms: C_6  and  C_7
REMARK    3  A    between atoms: C_7  and  C_8
REMARK    4  A    between atoms: C_7  and  C_9
REMARK    5  A    between atoms: C_11  and  N_12
REMARK    6  A    between atoms: N_12  and  C_13
REMARK    7  A    between atoms: C_13  and  C_14
REMARK                            x       y       z     vdW  Elec       q    Type
REMARK                         _______ _______ _______ _____ _____    ______ ____
ROOT
ATOM      1  C   UNL     1       5.689   3.142  11.831  0.00  0.00    +0.000 C 
ATOM      2  C   UNL     1       5.978   3.690  13.181  0.00  0.00    +0.000 A 
ATOM      3  C   UNL     1       6.966   4.635  13.511  0.00  0.00    +0.000 A 
ATOM      4  C   UNL     1       6.850   4.830  14.867  0.00  0.00    +0.000 A 
ATOM      5  N   UNL     1       7.555   5.652  15.708  0.00  0.00    +0.000 NA
ATOM      6  C   UNL     1       7.207   5.643  16.963  0.00  0.00    +0.000 A 
ATOM      7  C   UNL     1       6.138   4.770  17.531  0.00  0.00    +0.000 A 
ATOM      8  C   UNL     1       5.450   3.974  16.681  0.00  0.00    +0.000 A 
ATOM      9  N   UNL     1       5.804   4.001  15.303  0.00  0.00    +0.000 N 
ATOM     10  N   UNL     1       5.271   3.300  14.259  0.00  0.00    +0.000 NA
ENDROOT
BRANCH   6  11
ATOM     11  C   UNL     1       7.946   6.533  17.971  0.00  0.00    +0.000 C 
ATOM     12  C   UNL     1       7.524   7.986  17.778  0.00  0.00    +0.000 C 
ATOM     13  C   UNL     1       7.727   6.110  19.419  0.00  0.00    +0.000 C 
ENDBRANCH   6  11
BRANCH   8  14
ATOM     14  N   UNL     1       4.415   3.184  17.212  0.00  0.00    +0.000 N 
ATOM     15  H   UNL     1       4.662   2.841  18.139  0.00  0.00    +0.000 HD
BRANCH  14  16
ATOM     16  C   UNL     1       3.026   3.637  17.179  0.00  0.00    +0.000 C 
BRANCH  16  17
ATOM     17  C   UNL     1       2.465   3.680  18.582  0.00  0.00    +0.000 A 
ATOM     18  C   UNL     1       1.681   2.635  19.080  0.00  0.00    +0.000 A 
ATOM     19  C   UNL     1       1.247   2.691  20.396  0.00  0.00    +0.000 A 
ATOM     20  N   UNL     1       1.525   3.710  21.236  0.00  0.00    +0.000 NA
ATOM     21  C   UNL     1       2.271   4.717  20.738  0.00  0.00    +0.000 A 
ATOM     22  C   UNL     1       2.759   4.748  19.439  0.00  0.00    +0.000 A 
ENDBRANCH  16  17
ENDBRANCH  14  16
ENDBRANCH   8  14
TORSDOF 4
ENDMDL
MODEL 4
REMARK VINA RESULT:      -7.4      0.767      1.479
REMARK  Name = 
REMARK  7 active torsions:
REMARK  status: ('A' for Active; 'I' for Inactive)
REMARK    1  A    between atoms: C_1  and  C_2
REMARK    2  A    between atoms: C_6  and  C_7
REMARK    3  A    between atoms: C_7  and  C_8
REMARK    4  A    between atoms: C_7  and  C_9
REMARK    5  A    between atoms: C_11  and  N_12
REMARK    6  A    between atoms: N_12  and  C_13
REMARK    7  A    between atoms: C_13  and  C_14
REMARK                            x       y       z     vdW  Elec       q    Type
REMARK                         _______ _______ _______ _____ _____    ______ ____
ROOT
ATOM      1  C   UNL     1       5.511   3.045  11.793  0.00  0.00    +0.000 C 
ATOM      2  C   UNL     1       5.787   3.702  13.096  0.00  0.00    +0.000 A 
ATOM      3  C   UNL     1       6.950   4.406  13.453  0.00  0.00    +0.000 A 
ATOM      4  C   UNL     1       6.742   4.829  14.745  0.00  0.00    +0.000 A 
ATOM      5  N   UNL     1       7.545   5.566  15.577  0.00  0.00    +0.000 NA
ATOM      6  C   UNL     1       7.072   5.835  16.760  0.00  0.00    +0.000 A 
ATOM      7  C   UNL     1       5.751   5.356  17.265  0.00  0.00    +0.000 A 
ATOM      8  C   UNL     1       4.973   4.639  16.424  0.00  0.00    +0.000 A 
ATOM      9  N   UNL     1       5.470   4.366  15.118  0.00  0.00    +0.000 N 
ATOM     10  N   UNL     1       4.887   3.671  14.098  0.00  0.00    +0.000 NA
ENDROOT
BRANCH   6  11
ATOM     11  C   UNL     1       7.907   6.654  17.753  0.00  0.00    +0.000 C 
ATOM     12  C   UNL     1       7.516   8.125  17.662  0.00  0.00    +0.000 C 
ATOM     13  C   UNL     1       7.782   6.164  19.191  0.00  0.00    +0.000 C 
ENDBRANCH   6  11
BRANCH   8  14
ATOM     14  N   UNL     1       3.710   4.225  16.887  0.00  0.00    +0.000 N 
ATOM     15  H   UNL     1       3.727   3.240  17.145  0.00  0.00    +0.000 HD
BRANCH  14  16
ATOM     16  C   UNL     1       2.974   5.010  17.875  0.00  0.00    +0.000 C 
BRANCH  16  17
ATOM     17  C   UNL     1       2.620   4.142  19.061  0.00  0.00    +0.000 A 
ATOM     18  C   UNL     1       3.568   3.297  19.648  0.00  0.00    +0.000 A 
ATOM     19  C   UNL     1       3.212   2.572  20.776  0.00  0.00    +0.000 A 
ATOM     20  N   UNL     1       1.989   2.619  21.344  0.00  0.00    +0.000 NA
ATOM     21  C   UNL     1       1.082   3.428  20.759  0.00  0.00    +0.000 A 
ATOM     22  C   UNL     1       1.345   4.199  19.636  0.00  0.00    +0.000 A 
ENDBRANCH  16  17
ENDBRANCH  14  16
ENDBRANCH   8  14
TORSDOF 4
ENDMDL
MODEL 5
REMARK VINA RESULT:      -7.4      2.173      4.396
REMARK  Name = 
REMARK  7 active torsions:
REMARK  status: ('A' for Active; 'I' for Inactive)
REMARK    1  A    between atoms: C_1  and  C_2
REMARK    2  A    between atoms: C_6  and  C_7
REMARK    3  A    between atoms: C_7  and  C_8
REMARK    4  A    between atoms: C_7  and  C_9
REMARK    5  A    between atoms: C_11  and  N_12
REMARK    6  A    between atoms: N_12  and  C_13
REMARK    7  A    between atoms: C_13  and  C_14
REMARK                            x       y       z     vdW  Elec       q    Type
REMARK                         _______ _______ _______ _____ _____    ______ ____
ROOT
ATOM      1  C   UNL     1       1.784   7.567  20.406  0.00  0.00    +0.000 C 
ATOM      2  C   UNL     1       2.697   6.902  19.441  0.00  0.00    +0.000 A 
ATOM      3  C   UNL     1       2.975   7.314  18.126  0.00  0.00    +0.000 A 
ATOM      4  C   UNL     1       3.871   6.395  17.633  0.00  0.00    +0.000 A 
ATOM      5  N   UNL     1       4.482   6.321  16.408  0.00  0.00    +0.000 NA
ATOM      6  C   UNL     1       5.312   5.333  16.226  0.00  0.00    +0.000 A 
ATOM      7  C   UNL     1       5.591   4.275  17.242  0.00  0.00    +0.000 A 
ATOM      8  C   UNL     1       4.984   4.374  18.445  0.00  0.00    +0.000 A 
ATOM      9  N   UNL     1       4.099   5.467  18.662  0.00  0.00    +0.000 N 
ATOM     10  N   UNL     1       3.372   5.785  19.773  0.00  0.00    +0.000 NA
ENDROOT
BRANCH   6  11
ATOM     11  C   UNL     1       6.037   5.177  14.884  0.00  0.00    +0.000 C 
ATOM     12  C   UNL     1       7.525   4.952  15.127  0.00  0.00    +0.000 C 
ATOM     13  C   UNL     1       5.470   4.056  14.021  0.00  0.00    +0.000 C 
ENDBRANCH   6  11
BRANCH   8  14
ATOM     14  N   UNL     1       5.282   3.399  19.415  0.00  0.00    +0.000 N 
ATOM     15  H   UNL     1       5.322   3.816  20.344  0.00  0.00    +0.000 HD
BRANCH  14  16
ATOM     16  C   UNL     1       4.570   2.124  19.448  0.00  0.00    +0.000 C 
BRANCH  16  17
ATOM     17  C   UNL     1       3.093   2.365  19.664  0.00  0.00    +0.000 A 
ATOM     18  C   UNL     1       2.597   2.734  20.919  0.00  0.00    +0.000 A 
ATOM     19  C   UNL     1       1.243   3.008  21.049  0.00  0.00    +0.000 A 
ATOM     20  N   UNL     1       0.359   2.930  20.032  0.00  0.00    +0.000 NA
ATOM     21  C   UNL     1       0.851   2.560  18.832  0.00  0.00    +0.000 A 
ATOM     22  C   UNL     1       2.189   2.274  18.600  0.00  0.00    +0.000 A 
ENDBRANCH  16  17
ENDBRANCH  14  16
ENDBRANCH   8  14
TORSDOF 4
ENDMDL
MODEL 6
REMARK VINA RESULT:      -7.3      1.067      1.190
REMARK  Name = 
REMARK  7 active torsions:
REMARK  status: ('A' for Active; 'I' for Inactive)
REMARK    1  A    between atoms: C_1  and  C_2
REMARK    2  A    between atoms: C_6  and  C_7
REMARK    3  A    between atoms: C_7  and  C_8
REMARK    4  A    between atoms: C_7  and  C_9
REMARK    5  A    between atoms: C_11  and  N_12
REMARK    6  A    between atoms: N_12  and  C_13
REMARK    7  A    between atoms: C_13  and  C_14
REMARK                            x       y       z     vdW  Elec       q    Type
REMARK                         _______ _______ _______ _____ _____    ______ ____
ROOT
ATOM      1  C   UNL     1       6.118   3.281  11.976  0.00  0.00    +0.000 C 
ATOM      2  C   UNL     1       6.206   3.823  13.356  0.00  0.00    +0.000 A 
ATOM      3  C   UNL     1       7.068   4.837  13.808  0.00  0.00    +0.000 A 
ATOM      4  C   UNL     1       6.783   4.995  15.144  0.00  0.00    +0.000 A 
ATOM      5  N   UNL     1       7.318   5.854  16.069  0.00  0.00    +0.000 NA
ATOM      6  C   UNL     1       6.832   5.791  17.276  0.00  0.00    +0.000 A 
ATOM      7  C   UNL     1       5.781   4.823  17.707  0.00  0.00    +0.000 A 
ATOM      8  C   UNL     1       5.262   3.991  16.776  0.00  0.00    +0.000 A 
ATOM      9  N   UNL     1       5.766   4.075  15.448  0.00  0.00    +0.000 N 
ATOM     10  N   UNL     1       5.416   3.355  14.342  0.00  0.00    +0.000 NA
ENDROOT
BRANCH   6  11
ATOM     11  C   UNL     1       7.376   6.717  18.372  0.00  0.00    +0.000 C 
ATOM     12  C   UNL     1       8.270   5.924  19.317  0.00  0.00    +0.000 C 
ATOM     13  C   UNL     1       8.130   7.921  17.820  0.00  0.00    +0.000 C 
ENDBRANCH   6  11
BRANCH   8  14
ATOM     14  N   UNL     1       4.242   3.110  17.175  0.00  0.00    +0.000 N 
ATOM     15  H   UNL     1       4.470   2.676  18.068  0.00  0.00    +0.000 HD
BRANCH  14  16
ATOM     16  C   UNL     1       2.838   3.513  17.137  0.00  0.00    +0.000 C 
BRANCH  16  17
ATOM     17  C   UNL     1       2.480   4.253  18.406  0.00  0.00    +0.000 A 
ATOM     18  C   UNL     1       2.449   5.650  18.444  0.00  0.00    +0.000 A 
ATOM     19  C   UNL     1       2.050   6.280  19.614  0.00  0.00    +0.000 A 
ATOM     20  N   UNL     1       1.696   5.623  20.738  0.00  0.00    +0.000 NA
ATOM     21  C   UNL     1       1.743   4.276  20.690  0.00  0.00    +0.000 A 
ATOM     22  C   UNL     1       2.121   3.555  19.565  0.00  0.00    +0.000 A 
ENDBRANCH  16  17
ENDBRANCH  14  16
ENDBRANCH   8  14
TORSDOF 4
ENDMDL
MODEL 7
REMARK VINA RESULT:      -7.2      2.166      4.324
REMARK  Name = 
REMARK  7 active torsions:
REMARK  status: ('A' for Active; 'I' for Inactive)
REMARK    1  A    between atoms: C_1  and  C_2
REMARK    2  A    between atoms: C_6  and  C_7
REMARK    3  A    between atoms: C_7  and  C_8
REMARK    4  A    between atoms: C_7  and  C_9
REMARK    5  A    between atoms: C_11  and  N_12
REMARK    6  A    between atoms: N_12  and  C_13
REMARK    7  A    between atoms: C_13  and  C_14
REMARK                            x       y       z     vdW  Elec       q    Type
REMARK                         _______ _______ _______ _____ _____    ______ ____
ROOT
ATOM      1  C   UNL     1       1.809   7.594  20.382  0.00  0.00    +0.000 C 
ATOM      2  C   UNL     1       2.723   6.925  19.421  0.00  0.00    +0.000 A 
ATOM      3  C   UNL     1       2.994   7.325  18.101  0.00  0.00    +0.000 A 
ATOM      4  C   UNL     1       3.894   6.405  17.615  0.00  0.00    +0.000 A 
ATOM      5  N   UNL     1       4.502   6.322  16.389  0.00  0.00    +0.000 NA
ATOM      6  C   UNL     1       5.336   5.337  16.215  0.00  0.00    +0.000 A 
ATOM      7  C   UNL     1       5.624   4.291  17.240  0.00  0.00    +0.000 A 
ATOM      8  C   UNL     1       5.020   4.398  18.444  0.00  0.00    +0.000 A 
ATOM      9  N   UNL     1       4.130   5.489  18.653  0.00  0.00    +0.000 N 
ATOM     10  N   UNL     1       3.405   5.814  19.762  0.00  0.00    +0.000 NA
ENDROOT
BRANCH   6  11
ATOM     11  C   UNL     1       6.058   5.171  14.872  0.00  0.00    +0.000 C 
ATOM     12  C   UNL     1       7.548   4.955  15.113  0.00  0.00    +0.000 C 
ATOM     13  C   UNL     1       5.494   4.038  14.022  0.00  0.00    +0.000 C 
ENDBRANCH   6  11
BRANCH   8  14
ATOM     14  N   UNL     1       5.326   3.435  19.423  0.00  0.00    +0.000 N 
ATOM     15  H   UNL     1       5.390   3.866  20.344  0.00  0.00    +0.000 HD
BRANCH  14  16
ATOM     16  C   UNL     1       4.599   2.169  19.490  0.00  0.00    +0.000 C 
BRANCH  16  17
ATOM     17  C   UNL     1       3.122   2.434  19.678  0.00  0.00    +0.000 A 
ATOM     18  C   UNL     1       2.223   2.306  18.615  0.00  0.00    +0.000 A 
ATOM     19  C   UNL     1       0.870   2.494  18.856  0.00  0.00    +0.000 A 
ATOM     20  N   UNL     1       0.358   2.810  20.064  0.00  0.00    +0.000 NA
ATOM     21  C   UNL     1       1.239   2.942  21.077  0.00  0.00    +0.000 A 
ATOM     22  C   UNL     1       2.608   2.765  20.938  0.00  0.00    +0.000 A 
ENDBRANCH  16  17
ENDBRANCH  14  16
ENDBRANCH   8  14
TORSDOF 4
ENDMDL
MODEL 8
REMARK VINA RESULT:      -7.2      3.568      5.631
REMARK  Name = 
REMARK  7 active torsions:
REMARK  status: ('A' for Active; 'I' for Inactive)
REMARK    1  A    between atoms: C_1  and  C_2
REMARK    2  A    between atoms: C_6  and  C_7
REMARK    3  A    between atoms: C_7  and  C_8
REMARK    4  A    between atoms: C_7  and  C_9
REMARK    5  A    between atoms: C_11  and  N_12
REMARK    6  A    between atoms: N_12  and  C_13
REMARK    7  A    between atoms: C_13  and  C_14
REMARK                            x       y       z     vdW  Elec       q    Type
REMARK                         _______ _______ _______ _____ _____    ______ ____
ROOT
ATOM      1  C   UNL     1       1.461   2.530  21.406  0.00  0.00    +0.000 C 
ATOM      2  C   UNL     1       2.428   3.250  20.539  0.00  0.00    +0.000 A 
ATOM      3  C   UNL     1       3.777   2.916  20.325  0.00  0.00    +0.000 A 
ATOM      4  C   UNL     1       4.257   3.864  19.452  0.00  0.00    +0.000 A 
ATOM      5  N   UNL     1       5.504   4.010  18.900  0.00  0.00    +0.000 NA
ATOM      6  C   UNL     1       5.667   5.007  18.079  0.00  0.00    +0.000 A 
ATOM      7  C   UNL     1       4.606   6.005  17.750  0.00  0.00    +0.000 A 
ATOM      8  C   UNL     1       3.383   5.836  18.299  0.00  0.00    +0.000 A 
ATOM      9  N   UNL     1       3.188   4.730  19.174  0.00  0.00    +0.000 N 
ATOM     10  N   UNL     1       2.064   4.348  19.848  0.00  0.00    +0.000 NA
ENDROOT
BRANCH   6  11
ATOM     11  C   UNL     1       7.031   5.242  17.417  0.00  0.00    +0.000 C 
ATOM     12  C   UNL     1       7.027   4.657  16.010  0.00  0.00    +0.000 C 
ATOM     13  C   UNL     1       7.433   6.712  17.374  0.00  0.00    +0.000 C 
ENDBRANCH   6  11
BRANCH   8  14
ATOM     14  N   UNL     1       2.373   6.753  17.954  0.00  0.00    +0.000 N 
ATOM     15  H   UNL     1       1.502   6.525  18.430  0.00  0.00    +0.000 HD
BRANCH  14  16
ATOM     16  C   UNL     1       2.620   8.193  17.982  0.00  0.00    +0.000 C 
BRANCH  16  17
ATOM     17  C   UNL     1       1.605   8.871  18.875  0.00  0.00    +0.000 A 
ATOM     18  C   UNL     1       0.753   9.862  18.378  0.00  0.00    +0.000 A 
ATOM     19  C   UNL     1      -0.206  10.406  19.221  0.00  0.00    +0.000 A 
ATOM     20  N   UNL     1      -0.364  10.044  20.511  0.00  0.00    +0.000 NA
ATOM     21  C   UNL     1       0.474   9.096  20.979  0.00  0.00    +0.000 A 
ATOM     22  C   UNL     1       1.458   8.487  20.213  0.00  0.00    +0.000 A 
ENDBRANCH  16  17
ENDBRANCH  14  16
ENDBRANCH   8  14
TORSDOF 4
ENDMDL
MODEL 9
REMARK VINA RESULT:      -7.1      2.194      3.254
REMARK  Name = 
REMARK  7 active torsions:
REMARK  status: ('A' for Active; 'I' for Inactive)
REMARK    1  A    between atoms: C_1  and  C_2
REMARK    2  A    between atoms: C_6  and  C_7
REMARK    3  A    between atoms: C_7  and  C_8
REMARK    4  A    between atoms: C_7  and  C_9
REMARK    5  A    between atoms: C_11  and  N_12
REMARK    6  A    between atoms: N_12  and  C_13
REMARK    7  A    between atoms: C_13  and  C_14
REMARK                            x       y       z     vdW  Elec       q    Type
REMARK                         _______ _______ _______ _____ _____    ______ ____
ROOT
ATOM      1  C   UNL     1       6.838   4.225  14.126  0.00  0.00    +0.000 C 
ATOM      2  C   UNL     1       6.069   4.721  15.297  0.00  0.00    +0.000 A 
ATOM      3  C   UNL     1       5.293   5.892  15.359  0.00  0.00    +0.000 A 
ATOM      4  C   UNL     1       4.777   5.924  16.634  0.00  0.00    +0.000 A 
ATOM      5  N   UNL     1       3.946   6.837  17.230  0.00  0.00    +0.000 NA
ATOM      6  C   UNL     1       3.602   6.596  18.463  0.00  0.00    +0.000 A 
ATOM      7  C   UNL     1       4.091   5.431  19.259  0.00  0.00    +0.000 A 
ATOM      8  C   UNL     1       4.903   4.540  18.647  0.00  0.00    +0.000 A 
ATOM      9  N   UNL     1       5.259   4.780  17.290  0.00  0.00    +0.000 N 
ATOM     10  N   UNL     1       6.055   4.043  16.461  0.00  0.00    +0.000 NA
ENDROOT
BRANCH   6  11
ATOM     11  C   UNL     1       2.674   7.567  19.205  0.00  0.00    +0.000 C 
ATOM     12  C   UNL     1       1.849   8.360  18.197  0.00  0.00    +0.000 C 
ATOM     13  C   UNL     1       1.757   6.875  20.207  0.00  0.00    +0.000 C 
ENDBRANCH   6  11
BRANCH   8  14
ATOM     14  N   UNL     1       5.327   3.421  19.385  0.00  0.00    +0.000 N 
ATOM     15  H   UNL     1       5.538   3.684  20.347  0.00  0.00    +0.000 HD
BRANCH  14  16
ATOM     16  C   UNL     1       4.589   2.161  19.339  0.00  0.00    +0.000 C 
BRANCH  16  17
ATOM     17  C   UNL     1       3.129   2.410  19.642  0.00  0.00    +0.000 A 
ATOM     18  C   UNL     1       2.705   2.754  20.930  0.00  0.00    +0.000 A 
ATOM     19  C   UNL     1       1.364   3.037  21.141  0.00  0.00    +0.000 A 
ATOM     20  N   UNL     1       0.424   2.990  20.173  0.00  0.00    +0.000 NA
ATOM     21  C   UNL     1       0.846   2.643  18.939  0.00  0.00    +0.000 A 
ATOM     22  C   UNL     1       2.166   2.351  18.627  0.00  0.00    +0.000 A 
ENDBRANCH  16  17
ENDBRANCH  14  16
ENDBRANCH   8  14
TORSDOF 4
ENDMDL
