MODEL 1
REMARK VINA RESULT:      -8.5      0.000      0.000
REMARK  Name = 
REMARK  3 active torsions:
REMARK  status: ('A' for Active; 'I' for Inactive)
REMARK    1  A    between atoms: C_1  and  C_2
REMARK    2  A    between atoms: C_6  and  C_8
REMARK    3  A    between atoms: C_14  and  N_15
REMARK                            x       y       z     vdW  Elec       q    Type
REMARK                         _______ _______ _______ _____ _____    ______ ____
ROOT
ATOM      1  C   UNL     1       2.903   6.734  18.917  0.00  0.00    +0.000 C 
ATOM      2  C   UNL     1       1.969   6.794  20.144  0.00  0.00    +0.000 C 
ATOM      3  C   UNL     1       1.784   8.234  20.650  0.00  0.00    +0.000 C 
ATOM      4  N   UNL     1       1.370   9.046  19.521  0.00  0.00    +0.000 N 
ATOM      5  C   UNL     1       0.322   9.933  19.630  0.00  0.00    +0.000 A 
ATOM      6  C   UNL     1      -0.523  10.114  18.549  0.00  0.00    +0.000 A 
ATOM      7  C   UNL     1      -1.641  10.915  18.691  0.00  0.00    +0.000 A 
ATOM      8  N   UNL     1      -1.873  11.559  19.842  0.00  0.00    +0.000 NA
ATOM      9  C   UNL     1      -0.987  11.353  20.829  0.00  0.00    +0.000 A 
ATOM     10  N   UNL     1       0.086  10.552  20.795  0.00  0.00    +0.000 NA
ATOM     11  C   UNL     1       2.286   9.126  18.397  0.00  0.00    +0.000 C 
ATOM     12  C   UNL     1       2.442   7.727  17.830  0.00  0.00    +0.000 C 
ENDROOT
BRANCH   1  18
ATOM     13  C   UNL     1       7.075   4.860  14.691  0.00  0.00    +0.000 C 
ATOM     14  C   UNL     1       6.393   4.501  16.009  0.00  0.00    +0.000 C 
ATOM     15  C   UNL     1       5.003   3.895  15.763  0.00  0.00    +0.000 C 
ATOM     16  C   UNL     1       4.266   3.641  17.079  0.00  0.00    +0.000 C 
ATOM     17  N   UNL     1       4.208   4.865  17.876  0.00  0.00    +0.000 N 
ATOM     18  C   UNL     1       2.975   5.335  18.298  0.00  0.00    +0.000 C 
ATOM     19  O   UNL     1       1.950   4.668  18.140  0.00  0.00    +0.000 OA
ATOM     20  C   UNL     1       5.510   5.458  18.178  0.00  0.00    +0.000 C 
ATOM     21  C   UNL     1       6.291   5.744  16.904  0.00  0.00    +0.000 C 
ENDBRANCH   1  18
BRANCH   7  22
ATOM     22  N   UNL     1      -2.587  10.927  17.672  0.00  0.00    +0.000 N 
ATOM     23  C   UNL     1      -2.327  10.100  16.499  0.00  0.00    +0.000 C 
ATOM     24  C   UNL     1      -2.991  10.781  15.298  0.00  0.00    +0.000 C 
ATOM     25  C   UNL     1      -4.472  11.075  15.547  0.00  0.00    +0.000 C 
ATOM     26  C   UNL     1      -4.694  11.799  16.876  0.00  0.00    +0.000 C 
ATOM     27  C   UNL     1      -3.997  11.072  18.027  0.00  0.00    +0.000 C 
ENDBRANCH   7  22
TORSDOF 2
ENDMDL
MODEL 2
REMARK VINA RESULT:      -8.3      0.590      1.122
REMARK  Name = 
REMARK  3 active torsions:
REMARK  status: ('A' for Active; 'I' for Inactive)
REMARK    1  A    between atoms: C_1  and  C_2
REMARK    2  A    between atoms: C_6  and  C_8
REMARK    3  A    between atoms: C_14  and  N_15
REMARK                            x       y       z     vdW  Elec       q    Type
REMARK                         _______ _______ _______ _____ _____    ______ ____
ROOT
ATOM      1  C   UNL     1       2.710   6.807  18.996  0.00  0.00    +0.000 C 
ATOM      2  C   UNL     1       1.834   6.809  20.267  0.00  0.00    +0.000 C 
ATOM      3  C   UNL     1       1.720   8.214  20.880  0.00  0.00    +0.000 C 
ATOM      4  N   UNL     1       1.283   9.116  19.831  0.00  0.00    +0.000 N 
ATOM      5  C   UNL     1       0.270  10.024  20.050  0.00  0.00    +0.000 A 
ATOM      6  C   UNL     1      -0.617  10.306  19.026  0.00  0.00    +0.000 A 
ATOM      7  C   UNL     1      -1.700  11.127  19.275  0.00  0.00    +0.000 A 
ATOM      8  N   UNL     1      -1.858  11.695  20.478  0.00  0.00    +0.000 NA
ATOM      9  C   UNL     1      -0.936  11.394  21.405  0.00  0.00    +0.000 A 
ATOM     10  N   UNL     1       0.108  10.566  21.265  0.00  0.00    +0.000 NA
ATOM     11  C   UNL     1       2.149   9.248  18.673  0.00  0.00    +0.000 C 
ATOM     12  C   UNL     1       2.233   7.888  18.003  0.00  0.00    +0.000 C 
ENDROOT
BRANCH   1  18
ATOM     13  C   UNL     1       7.117   4.773  15.096  0.00  0.00    +0.000 C 
ATOM     14  C   UNL     1       6.258   4.404  16.303  0.00  0.00    +0.000 C 
ATOM     15  C   UNL     1       4.850   3.973  15.865  0.00  0.00    +0.000 C 
ATOM     16  C   UNL     1       3.946   3.714  17.073  0.00  0.00    +0.000 C 
ATOM     17  N   UNL     1       3.925   4.880  17.953  0.00  0.00    +0.000 N 
ATOM     18  C   UNL     1       2.706   5.454  18.279  0.00  0.00    +0.000 C 
ATOM     19  O   UNL     1       1.643   4.917  17.962  0.00  0.00    +0.000 OA
ATOM     20  C   UNL     1       5.238   5.304  18.436  0.00  0.00    +0.000 C 
ATOM     21  C   UNL     1       6.183   5.587  17.278  0.00  0.00    +0.000 C 
ENDBRANCH   1  18
BRANCH   7  22
ATOM     22  N   UNL     1      -2.690  11.240  18.306  0.00  0.00    +0.000 N 
ATOM     23  C   UNL     1      -3.954  11.853  18.699  0.00  0.00    +0.000 C 
ATOM     24  C   UNL     1      -5.056  11.232  17.834  0.00  0.00    +0.000 C 
ATOM     25  C   UNL     1      -4.744  11.334  16.340  0.00  0.00    +0.000 C 
ATOM     26  C   UNL     1      -3.336  10.828  16.016  0.00  0.00    +0.000 C 
ATOM     27  C   UNL     1      -2.290  11.479  16.921  0.00  0.00    +0.000 C 
ENDBRANCH   7  22
TORSDOF 2
ENDMDL
MODEL 3
REMARK VINA RESULT:      -6.9      3.388      9.185
REMARK  Name = 
REMARK  3 active torsions:
REMARK  status: ('A' for Active; 'I' for Inactive)
REMARK    1  A    between atoms: C_1  and  C_2
REMARK    2  A    between atoms: C_6  and  C_8
REMARK    3  A    between atoms: C_14  and  N_15
REMARK                            x       y       z     vdW  Elec       q    Type
REMARK                         _______ _______ _______ _____ _____    ______ ____
ROOT
ATOM      1  C   UNL     1       1.330  11.318  19.050  0.00  0.00    +0.000 C 
ATOM      2  C   UNL     1       1.575  10.697  20.441  0.00  0.00    +0.000 C 
ATOM      3  C   UNL     1       0.996   9.277  20.543  0.00  0.00    +0.000 C 
ATOM      4  N   UNL     1       1.518   8.510  19.427  0.00  0.00    +0.000 N 
ATOM      5  C   UNL     1       2.026   7.242  19.611  0.00  0.00    +0.000 A 
ATOM      6  C   UNL     1       3.116   6.837  18.860  0.00  0.00    +0.000 A 
ATOM      7  C   UNL     1       3.699   5.611  19.122  0.00  0.00    +0.000 A 
ATOM      8  N   UNL     1       3.179   4.796  20.048  0.00  0.00    +0.000 NA
ATOM      9  C   UNL     1       2.103   5.253  20.707  0.00  0.00    +0.000 A 
ATOM     10  N   UNL     1       1.512   6.446  20.558  0.00  0.00    +0.000 NA
ATOM     11  C   UNL     1       1.195   8.985  18.093  0.00  0.00    +0.000 C 
ATOM     12  C   UNL     1       1.809  10.365  17.935  0.00  0.00    +0.000 C 
ENDROOT
BRANCH   1  18
ATOM     13  C   UNL     1      -1.421  16.899  19.304  0.00  0.00    +0.000 C 
ATOM     14  C   UNL     1      -0.235  16.074  19.797  0.00  0.00    +0.000 C 
ATOM     15  C   UNL     1       0.878  16.020  18.739  0.00  0.00    +0.000 C 
ATOM     16  C   UNL     1       2.019  15.100  19.176  0.00  0.00    +0.000 C 
ATOM     17  N   UNL     1       1.505  13.774  19.513  0.00  0.00    +0.000 N 
ATOM     18  C   UNL     1       2.035  12.666  18.872  0.00  0.00    +0.000 C 
ATOM     19  O   UNL     1       3.023  12.763  18.141  0.00  0.00    +0.000 OA
ATOM     20  C   UNL     1       0.475  13.764  20.550  0.00  0.00    +0.000 C 
ATOM     21  C   UNL     1      -0.697  14.658  20.168  0.00  0.00    +0.000 C 
ENDBRANCH   1  18
BRANCH   7  22
ATOM     22  N   UNL     1       4.908   5.303  18.509  0.00  0.00    +0.000 N 
ATOM     23  C   UNL     1       6.113   5.351  19.330  0.00  0.00    +0.000 C 
ATOM     24  C   UNL     1       7.282   5.725  18.412  0.00  0.00    +0.000 C 
ATOM     25  C   UNL     1       7.382   4.800  17.198  0.00  0.00    +0.000 C 
ATOM     26  C   UNL     1       6.041   4.660  16.475  0.00  0.00    +0.000 C 
ATOM     27  C   UNL     1       4.920   4.297  17.450  0.00  0.00    +0.000 C 
ENDBRANCH   7  22
TORSDOF 2
ENDMDL
MODEL 4
REMARK VINA RESULT:      -6.8      6.994     10.942
REMARK  Name = 
REMARK  3 active torsions:
REMARK  status: ('A' for Active; 'I' for Inactive)
REMARK    1  A    between atoms: C_1  and  C_2
REMARK    2  A    between atoms: C_6  and  C_8
REMARK    3  A    between atoms: C_14  and  N_15
REMARK                            x       y       z     vdW  Elec       q    Type
REMARK                         _______ _______ _______ _____ _____    ______ ____
ROOT
ATOM      1  C   UNL     1       2.396  14.875  19.381  0.00  0.00    +0.000 C 
ATOM      2  C   UNL     1       2.887  15.794  18.244  0.00  0.00    +0.000 C 
ATOM      3  C   UNL     1       3.996  16.747  18.718  0.00  0.00    +0.000 C 
ATOM      4  N   UNL     1       5.027  15.942  19.347  0.00  0.00    +0.000 N 
ATOM      5  C   UNL     1       6.359  16.138  19.056  0.00  0.00    +0.000 A 
ATOM      6  C   UNL     1       7.205  15.044  18.999  0.00  0.00    +0.000 A 
ATOM      7  C   UNL     1       8.515  15.223  18.596  0.00  0.00    +0.000 A 
ATOM      8  N   UNL     1       8.980  16.448  18.321  0.00  0.00    +0.000 NA
ATOM      9  C   UNL     1       8.102  17.457  18.431  0.00  0.00    +0.000 A 
ATOM     10  N   UNL     1       6.806  17.365  18.758  0.00  0.00    +0.000 NA
ATOM     11  C   UNL     1       4.636  15.163  20.509  0.00  0.00    +0.000 C 
ATOM     12  C   UNL     1       3.584  14.164  20.061  0.00  0.00    +0.000 C 
ENDROOT
BRANCH   1  18
ATOM     13  C   UNL     1      -1.174  11.317  23.038  0.00  0.00    +0.000 C 
ATOM     14  C   UNL     1      -1.165  12.213  21.803  0.00  0.00    +0.000 C 
ATOM     15  C   UNL     1      -0.649  11.451  20.572  0.00  0.00    +0.000 C 
ATOM     16  C   UNL     1      -0.526  12.372  19.357  0.00  0.00    +0.000 C 
ATOM     17  N   UNL     1       0.300  13.534  19.680  0.00  0.00    +0.000 N 
ATOM     18  C   UNL     1       1.408  13.810  18.895  0.00  0.00    +0.000 C 
ATOM     19  O   UNL     1       1.623  13.187  17.854  0.00  0.00    +0.000 OA
ATOM     20  C   UNL     1      -0.173  14.322  20.817  0.00  0.00    +0.000 C 
ATOM     21  C   UNL     1      -0.309  13.460  22.064  0.00  0.00    +0.000 C 
ENDBRANCH   1  18
BRANCH   7  22
ATOM     22  N   UNL     1       9.295  14.099  18.346  0.00  0.00    +0.000 N 
ATOM     23  C   UNL     1      10.680  14.315  17.939  0.00  0.00    +0.000 C 
ATOM     24  C   UNL     1      11.085  13.140  17.043  0.00  0.00    +0.000 C 
ATOM     25  C   UNL     1      10.828  11.788  17.712  0.00  0.00    +0.000 C 
ATOM     26  C   UNL     1       9.405  11.688  18.268  0.00  0.00    +0.000 C 
ATOM     27  C   UNL     1       9.065  12.895  19.141  0.00  0.00    +0.000 C 
ENDBRANCH   7  22
TORSDOF 2
ENDMDL
MODEL 5
REMARK VINA RESULT:      -6.7      4.217      9.010
REMARK  Name = 
REMARK  3 active torsions:
REMARK  status: ('A' for Active; 'I' for Inactive)
REMARK    1  A    between atoms: C_1  and  C_2
REMARK    2  A    between atoms: C_6  and  C_8
REMARK    3  A    between atoms: C_14  and  N_15
REMARK                            x       y       z     vdW  Elec       q    Type
REMARK                         _______ _______ _______ _____ _____    ______ ____
ROOT
ATOM      1  C   UNL     1       1.545  12.882  19.172  0.00  0.00    +0.000 C 
ATOM      2  C   UNL     1       1.777  12.295  20.580  0.00  0.00    +0.000 C 
ATOM      3  C   UNL     1       0.890  11.067  20.840  0.00  0.00    +0.000 C 
ATOM      4  N   UNL     1       1.096  10.137  19.744  0.00  0.00    +0.000 N 
ATOM      5  C   UNL     1       1.302   8.796  19.980  0.00  0.00    +0.000 A 
ATOM      6  C   UNL     1       2.181   8.097  19.170  0.00  0.00    +0.000 A 
ATOM      7  C   UNL     1       2.478   6.781  19.472  0.00  0.00    +0.000 A 
ATOM      8  N   UNL     1       1.877   6.168  20.500  0.00  0.00    +0.000 NA
ATOM      9  C   UNL     1       1.015   6.909  21.214  0.00  0.00    +0.000 A 
ATOM     10  N   UNL     1       0.714   8.201  21.026  0.00  0.00    +0.000 NA
ATOM     11  C   UNL     1       0.760  10.606  18.412  0.00  0.00    +0.000 C 
ATOM     12  C   UNL     1       1.665  11.783  18.096  0.00  0.00    +0.000 C 
ENDROOT
BRANCH   1  18
ATOM     13  C   UNL     1       0.014  18.446  16.833  0.00  0.00    +0.000 C 
ATOM     14  C   UNL     1       0.832  17.731  17.904  0.00  0.00    +0.000 C 
ATOM     15  C   UNL     1       2.153  17.199  17.326  0.00  0.00    +0.000 C 
ATOM     16  C   UNL     1       2.925  16.381  18.363  0.00  0.00    +0.000 C 
ATOM     17  N   UNL     1       2.083  15.315  18.901  0.00  0.00    +0.000 N 
ATOM     18  C   UNL     1       2.529  14.005  18.831  0.00  0.00    +0.000 C 
ATOM     19  O   UNL     1       3.675  13.740  18.461  0.00  0.00    +0.000 OA
ATOM     20  C   UNL     1       0.832  15.771  19.505  0.00  0.00    +0.000 C 
ATOM     21  C   UNL     1       0.011  16.588  18.517  0.00  0.00    +0.000 C 
ENDBRANCH   1  18
BRANCH   7  22
ATOM     22  N   UNL     1       3.509   6.154  18.781  0.00  0.00    +0.000 N 
ATOM     23  C   UNL     1       4.112   6.877  17.666  0.00  0.00    +0.000 C 
ATOM     24  C   UNL     1       4.607   5.836  16.656  0.00  0.00    +0.000 C 
ATOM     25  C   UNL     1       5.522   4.793  17.302  0.00  0.00    +0.000 C 
ATOM     26  C   UNL     1       4.900   4.192  18.564  0.00  0.00    +0.000 C 
ATOM     27  C   UNL     1       4.420   5.284  19.521  0.00  0.00    +0.000 C 
ENDBRANCH   7  22
TORSDOF 2
ENDMDL
MODEL 6
REMARK VINA RESULT:      -6.7      3.620      9.056
REMARK  Name = 
REMARK  3 active torsions:
REMARK  status: ('A' for Active; 'I' for Inactive)
REMARK    1  A    between atoms: C_1  and  C_2
REMARK    2  A    between atoms: C_6  and  C_8
REMARK    3  A    between atoms: C_14  and  N_15
REMARK                            x       y       z     vdW  Elec       q    Type
REMARK                         _______ _______ _______ _____ _____    ______ ____
ROOT
ATOM      1  C   UNL     1       1.097  12.276  19.493  0.00  0.00    +0.000 C 
ATOM      2  C   UNL     1       1.673  11.589  20.749  0.00  0.00    +0.000 C 
ATOM      3  C   UNL     1       1.016  10.223  21.006  0.00  0.00    +0.000 C 
ATOM      4  N   UNL     1       1.118   9.451  19.781  0.00  0.00    +0.000 N 
ATOM      5  C   UNL     1       1.533   8.137  19.802  0.00  0.00    +0.000 A 
ATOM      6  C   UNL     1       2.317   7.662  18.764  0.00  0.00    +0.000 A 
ATOM      7  C   UNL     1       2.830   6.381  18.837  0.00  0.00    +0.000 A 
ATOM      8  N   UNL     1       2.525   5.584  19.869  0.00  0.00    +0.000 NA
ATOM      9  C   UNL     1       1.734   6.113  20.815  0.00  0.00    +0.000 A 
ATOM     10  N   UNL     1       1.242   7.359  20.852  0.00  0.00    +0.000 NA
ATOM     11  C   UNL     1       0.470   9.998  18.602  0.00  0.00    +0.000 C 
ATOM     12  C   UNL     1       1.140  11.322  18.281  0.00  0.00    +0.000 C 
ENDROOT
BRANCH   1  18
ATOM     13  C   UNL     1      -1.522  17.847  18.562  0.00  0.00    +0.000 C 
ATOM     14  C   UNL     1      -0.392  17.109  19.273  0.00  0.00    +0.000 C 
ATOM     15  C   UNL     1       0.785  16.851  18.319  0.00  0.00    +0.000 C 
ATOM     16  C   UNL     1       1.872  16.010  18.990  0.00  0.00    +0.000 C 
ATOM     17  N   UNL     1       1.304  14.773  19.522  0.00  0.00    +0.000 N 
ATOM     18  C   UNL     1       1.846  13.560  19.127  0.00  0.00    +0.000 C 
ATOM     19  O   UNL     1       2.881  13.511  18.458  0.00  0.00    +0.000 OA
ATOM     20  C   UNL     1       0.209  14.963  20.472  0.00  0.00    +0.000 C 
ATOM     21  C   UNL     1      -0.912  15.788  19.858  0.00  0.00    +0.000 C 
ENDBRANCH   1  18
BRANCH   7  22
ATOM     22  N   UNL     1       3.776   5.987  17.897  0.00  0.00    +0.000 N 
ATOM     23  C   UNL     1       4.675   7.010  17.372  0.00  0.00    +0.000 C 
ATOM     24  C   UNL     1       5.052   6.603  15.944  0.00  0.00    +0.000 C 
ATOM     25  C   UNL     1       5.609   5.179  15.877  0.00  0.00    +0.000 C 
ATOM     26  C   UNL     1       4.700   4.177  16.592  0.00  0.00    +0.000 C 
ATOM     27  C   UNL     1       4.356   4.650  18.004  0.00  0.00    +0.000 C 
ENDBRANCH   7  22
TORSDOF 2
ENDMDL
MODEL 7
REMARK VINA RESULT:      -6.6      2.901      9.127
REMARK  Name = 
REMARK  3 active torsions:
REMARK  status: ('A' for Active; 'I' for Inactive)
REMARK    1  A    between atoms: C_1  and  C_2
REMARK    2  A    between atoms: C_6  and  C_8
REMARK    3  A    between atoms: C_14  and  N_15
REMARK                            x       y       z     vdW  Elec       q    Type
REMARK                         _______ _______ _______ _____ _____    ______ ____
ROOT
ATOM      1  C   UNL     1      -0.498  11.171  19.302  0.00  0.00    +0.000 C 
ATOM      2  C   UNL     1       0.019  10.820  17.890  0.00  0.00    +0.000 C 
ATOM      3  C   UNL     1       1.494  10.388  17.913  0.00  0.00    +0.000 C 
ATOM      4  N   UNL     1       1.626   9.330  18.897  0.00  0.00    +0.000 N 
ATOM      5  C   UNL     1       2.328   8.179  18.613  0.00  0.00    +0.000 A 
ATOM      6  C   UNL     1       1.878   6.972  19.121  0.00  0.00    +0.000 A 
ATOM      7  C   UNL     1       2.511   5.803  18.746  0.00  0.00    +0.000 A 
ATOM      8  N   UNL     1       3.587   5.838  17.948  0.00  0.00    +0.000 NA
ATOM      9  C   UNL     1       3.975   7.051  17.527  0.00  0.00    +0.000 A 
ATOM     10  N   UNL     1       3.387   8.225  17.794  0.00  0.00    +0.000 NA
ATOM     11  C   UNL     1       1.278   9.659  20.268  0.00  0.00    +0.000 C 
ATOM     12  C   UNL     1      -0.194  10.029  20.294  0.00  0.00    +0.000 C 
ENDROOT
BRANCH   1  18
ATOM     13  C   UNL     1      -3.646  13.598  24.094  0.00  0.00    +0.000 C 
ATOM     14  C   UNL     1      -3.415  13.683  22.588  0.00  0.00    +0.000 C 
ATOM     15  C   UNL     1      -4.223  12.609  21.845  0.00  0.00    +0.000 C 
ATOM     16  C   UNL     1      -3.908  12.611  20.348  0.00  0.00    +0.000 C 
ATOM     17  N   UNL     1      -2.469  12.478  20.129  0.00  0.00    +0.000 N 
ATOM     18  C   UNL     1      -2.003  11.448  19.327  0.00  0.00    +0.000 C 
ATOM     19  O   UNL     1      -2.780  10.740  18.683  0.00  0.00    +0.000 OA
ATOM     20  C   UNL     1      -1.655  13.505  20.778  0.00  0.00    +0.000 C 
ATOM     21  C   UNL     1      -1.918  13.546  22.277  0.00  0.00    +0.000 C 
ENDBRANCH   1  18
BRANCH   7  22
ATOM     22  N   UNL     1       1.931   4.588  19.094  0.00  0.00    +0.000 N 
ATOM     23  C   UNL     1       1.157   4.539  20.330  0.00  0.00    +0.000 C 
ATOM     24  C   UNL     1       1.265   3.115  20.886  0.00  0.00    +0.000 C 
ATOM     25  C   UNL     1       0.868   2.060  19.851  0.00  0.00    +0.000 C 
ATOM     26  C   UNL     1       1.592   2.267  18.519  0.00  0.00    +0.000 C 
ATOM     27  C   UNL     1       1.453   3.709  18.030  0.00  0.00    +0.000 C 
ENDBRANCH   7  22
TORSDOF 2
ENDMDL
MODEL 8
REMARK VINA RESULT:      -6.5      6.927     11.135
REMARK  Name = 
REMARK  3 active torsions:
REMARK  status: ('A' for Active; 'I' for Inactive)
REMARK    1  A    between atoms: C_1  and  C_2
REMARK    2  A    between atoms: C_6  and  C_8
REMARK    3  A    between atoms: C_14  and  N_15
REMARK                            x       y       z     vdW  Elec       q    Type
REMARK                         _______ _______ _______ _____ _____    ______ ____
ROOT
ATOM      1  C   UNL     1       2.245  14.825  19.245  0.00  0.00    +0.000 C 
ATOM      2  C   UNL     1       2.749  15.769  18.133  0.00  0.00    +0.000 C 
ATOM      3  C   UNL     1       3.865  16.699  18.636  0.00  0.00    +0.000 C 
ATOM      4  N   UNL     1       4.886  15.868  19.246  0.00  0.00    +0.000 N 
ATOM      5  C   UNL     1       6.221  16.059  18.964  0.00  0.00    +0.000 A 
ATOM      6  C   UNL     1       7.057  14.958  18.881  0.00  0.00    +0.000 A 
ATOM      7  C   UNL     1       8.369  15.134  18.486  0.00  0.00    +0.000 A 
ATOM      8  N   UNL     1       8.847  16.362  18.244  0.00  0.00    +0.000 NA
ATOM      9  C   UNL     1       7.979  17.376  18.379  0.00  0.00    +0.000 A 
ATOM     10  N   UNL     1       6.681  17.289  18.700  0.00  0.00    +0.000 NA
ATOM     11  C   UNL     1       4.485  15.063  20.386  0.00  0.00    +0.000 C 
ATOM     12  C   UNL     1       3.425  14.086  19.910  0.00  0.00    +0.000 C 
ENDROOT
BRANCH   1  18
ATOM     13  C   UNL     1      -3.031  13.146  22.094  0.00  0.00    +0.000 C 
ATOM     14  C   UNL     1      -2.418  13.568  20.762  0.00  0.00    +0.000 C 
ATOM     15  C   UNL     1      -1.725  12.383  20.073  0.00  0.00    +0.000 C 
ATOM     16  C   UNL     1      -1.008  12.822  18.795  0.00  0.00    +0.000 C 
ATOM     17  N   UNL     1      -0.085  13.919  19.079  0.00  0.00    +0.000 N 
ATOM     18  C   UNL     1       1.249  13.784  18.729  0.00  0.00    +0.000 C 
ATOM     19  O   UNL     1       1.637  12.826  18.056  0.00  0.00    +0.000 OA
ATOM     20  C   UNL     1      -0.703  15.093  19.694  0.00  0.00    +0.000 C 
ATOM     21  C   UNL     1      -1.428  14.721  20.980  0.00  0.00    +0.000 C 
ENDBRANCH   1  18
BRANCH   7  22
ATOM     22  N   UNL     1       9.140  14.010  18.209  0.00  0.00    +0.000 N 
ATOM     23  C   UNL     1       8.463  12.853  17.633  0.00  0.00    +0.000 C 
ATOM     24  C   UNL     1       9.218  11.601  18.094  0.00  0.00    +0.000 C 
ATOM     25  C   UNL     1      10.713  11.680  17.779  0.00  0.00    +0.000 C 
ATOM     26  C   UNL     1      11.330  12.994  18.262  0.00  0.00    +0.000 C 
ATOM     27  C   UNL     1      10.522  14.198  17.776  0.00  0.00    +0.000 C 
ENDBRANCH   7  22
TORSDOF 2
ENDMDL
MODEL 9
REMARK VINA RESULT:      -6.5      3.537      9.461
REMARK  Name = 
REMARK  3 active torsions:
REMARK  status: ('A' for Active; 'I' for Inactive)
REMARK    1  A    between atoms: C_1  and  C_2
REMARK    2  A    between atoms: C_6  and  C_8
REMARK    3  A    between atoms: C_14  and  N_15
REMARK                            x       y       z     vdW  Elec       q    Type
REMARK                         _______ _______ _______ _____ _____    ______ ____
ROOT
ATOM      1  C   UNL     1       0.404  10.835  20.925  0.00  0.00    +0.000 C 
ATOM      2  C   UNL     1       0.716   9.827  22.051  0.00  0.00    +0.000 C 
ATOM      3  C   UNL     1       0.385   8.385  21.635  0.00  0.00    +0.000 C 
ATOM      4  N   UNL     1       1.058   8.127  20.375  0.00  0.00    +0.000 N 
ATOM      5  C   UNL     1       1.768   6.964  20.173  0.00  0.00    +0.000 A 
ATOM      6  C   UNL     1       2.930   7.006  19.421  0.00  0.00    +0.000 A 
ATOM      7  C   UNL     1       3.706   5.867  19.312  0.00  0.00    +0.000 A 
ATOM      8  N   UNL     1       3.309   4.718  19.875  0.00  0.00    +0.000 NA
ATOM      9  C   UNL     1       2.155   4.758  20.559  0.00  0.00    +0.000 A 
ATOM     10  N   UNL     1       1.374   5.828  20.762  0.00  0.00    +0.000 NA
ATOM     11  C   UNL     1       0.691   8.968  19.249  0.00  0.00    +0.000 C 
ATOM     12  C   UNL     1       1.065  10.397  19.601  0.00  0.00    +0.000 C 
ENDROOT
BRANCH   1  18
ATOM     13  C   UNL     1      -3.268  15.843  21.390  0.00  0.00    +0.000 C 
ATOM     14  C   UNL     1      -2.144  15.058  22.062  0.00  0.00    +0.000 C 
ATOM     15  C   UNL     1      -0.784  15.390  21.429  0.00  0.00    +0.000 C 
ATOM     16  C   UNL     1       0.330  14.523  22.017  0.00  0.00    +0.000 C 
ATOM     17  N   UNL     1      -0.009  13.106  21.899  0.00  0.00    +0.000 N 
ATOM     18  C   UNL     1       0.874  12.254  21.256  0.00  0.00    +0.000 C 
ATOM     19  O   UNL     1       1.995  12.637  20.915  0.00  0.00    +0.000 OA
ATOM     20  C   UNL     1      -1.275  12.728  22.527  0.00  0.00    +0.000 C 
ATOM     21  C   UNL     1      -2.429  13.552  21.975  0.00  0.00    +0.000 C 
ENDBRANCH   1  18
BRANCH   7  22
ATOM     22  N   UNL     1       4.965   5.971  18.731  0.00  0.00    +0.000 N 
ATOM     23  C   UNL     1       5.995   5.040  19.180  0.00  0.00    +0.000 C 
ATOM     24  C   UNL     1       7.348   5.745  19.035  0.00  0.00    +0.000 C 
ATOM     25  C   UNL     1       7.565   6.293  17.623  0.00  0.00    +0.000 C 
ATOM     26  C   UNL     1       6.373   7.125  17.144  0.00  0.00    +0.000 C 
ATOM     27  C   UNL     1       5.058   6.366  17.328  0.00  0.00    +0.000 C 
ENDBRANCH   7  22
TORSDOF 2
ENDMDL
