MODEL 1
REMARK VINA RESULT:      -6.9      0.000      0.000
REMARK  Name = 
REMARK  13 active torsions:
REMARK  status: ('A' for Active; 'I' for Inactive)
REMARK    1  A    between atoms: C_1  and  C_2
REMARK    2  A    between atoms: C_2  and  C_3
REMARK    3  A    between atoms: C_3  and  N_4
REMARK    4  A    between atoms: N_4  and  C_5
REMARK    5  A    between atoms: N_4  and  C_8
REMARK    6  A    between atoms: C_5  and  C_6
REMARK    7  A    between atoms: C_6  and  C_7
REMARK    8  A    between atoms: C_9  and  N_10
REMARK    9  A    between atoms: C_14  and  S_15
REMARK   10  A    between atoms: S_15  and  N_18
REMARK   11  A    between atoms: N_18  and  C_19
REMARK   12  A    between atoms: N_18  and  C_20
REMARK   13  A    between atoms: C_27  and  N_28
REMARK                            x       y       z     vdW  Elec       q    Type
REMARK                         _______ _______ _______ _____ _____    ______ ____
ROOT
ATOM      1  C   UNL     1       2.807   5.898  19.231  0.00  0.00    +0.000 A 
ATOM      2  C   UNL     1       2.807   7.277  18.856  0.00  0.00    +0.000 A 
ATOM      3  C   UNL     1       2.139   8.309  19.563  0.00  0.00    +0.000 A 
ATOM      4  C   UNL     1       1.387   7.998  20.687  0.00  0.00    +0.000 A 
ATOM      5  C   UNL     1       1.314   6.685  21.110  0.00  0.00    +0.000 A 
ATOM      6  C   UNL     1       1.970   5.675  20.368  0.00  0.00    +0.000 A 
ENDROOT
BRANCH   2   7
ATOM      7  N   UNL     1       3.344   7.729  17.586  0.00  0.00    +0.000 N 
ATOM      8  O   UNL     1       4.433   7.255  17.234  0.00  0.00    +0.000 OA
ATOM      9  O   UNL     1       2.639   8.500  16.919  0.00  0.00    +0.000 OA
ENDBRANCH   2   7
BRANCH   4  10
ATOM     10  S   UNL     1       0.452   9.256  21.538  0.00  0.00    +0.000 S 
ATOM     11  O   UNL     1      -0.905   8.763  21.646  0.00  0.00    +0.000 OA
ATOM     12  O   UNL     1       1.211   9.604  22.719  0.00  0.00    +0.000 OA
BRANCH  10  13
ATOM     13  N   UNL     1       0.480  10.557  20.424  0.00  0.00    +0.000 N 
ATOM     14  C   UNL     1       1.205  11.783  20.820  0.00  0.00    +0.000 C 
BRANCH  13  15
ATOM     15  C   UNL     1      -0.695  10.708  19.606  0.00  0.00    +0.000 A 
ATOM     16  C   UNL     1      -0.841   9.990  18.414  0.00  0.00    +0.000 A 
ATOM     17  C   UNL     1      -1.924  10.241  17.571  0.00  0.00    +0.000 A 
ATOM     18  C   UNL     1      -2.860  11.214  17.914  0.00  0.00    +0.000 A 
ATOM     19  C   UNL     1      -2.716  11.936  19.098  0.00  0.00    +0.000 A 
ATOM     20  C   UNL     1      -1.631  11.688  19.940  0.00  0.00    +0.000 A 
ENDBRANCH  13  15
ENDBRANCH  10  13
ENDBRANCH   4  10
BRANCH   6  21
ATOM     21  N   UNL     1       1.585   4.359  20.829  0.00  0.00    +0.000 N 
ATOM     22  O   UNL     1       2.362   3.800  21.614  0.00  0.00    +0.000 OA
ATOM     23  O   UNL     1       0.571   3.853  20.325  0.00  0.00    +0.000 OA
ENDBRANCH   6  21
BRANCH   1  24
ATOM     24  N   UNL     1       3.586   4.897  18.603  0.00  0.00    +0.000 N 
BRANCH  24  25
ATOM     25  C   UNL     1       3.083   4.101  17.453  0.00  0.00    +0.000 C 
BRANCH  25  27
ATOM     26  C   UNL     1       3.365   1.667  18.139  0.00  0.00    +0.000 C 
ATOM     27  C   UNL     1       2.388   2.796  17.856  0.00  0.00    +0.000 C 
ENDBRANCH  25  27
ENDBRANCH  24  25
BRANCH  24  28
ATOM     28  C   UNL     1       4.884   4.503  19.217  0.00  0.00    +0.000 C 
BRANCH  28  29
ATOM     29  C   UNL     1       6.159   4.598  18.378  0.00  0.00    +0.000 C 
ATOM     30  C   UNL     1       7.128   5.597  19.008  0.00  0.00    +0.000 C 
ENDBRANCH  28  29
ENDBRANCH  24  28
ENDBRANCH   1  24
TORSDOF 10
ENDMDL
MODEL 2
REMARK VINA RESULT:      -6.9      0.393      2.104
REMARK  Name = 
REMARK  13 active torsions:
REMARK  status: ('A' for Active; 'I' for Inactive)
REMARK    1  A    between atoms: C_1  and  C_2
REMARK    2  A    between atoms: C_2  and  C_3
REMARK    3  A    between atoms: C_3  and  N_4
REMARK    4  A    between atoms: N_4  and  C_5
REMARK    5  A    between atoms: N_4  and  C_8
REMARK    6  A    between atoms: C_5  and  C_6
REMARK    7  A    between atoms: C_6  and  C_7
REMARK    8  A    between atoms: C_9  and  N_10
REMARK    9  A    between atoms: C_14  and  S_15
REMARK   10  A    between atoms: S_15  and  N_18
REMARK   11  A    between atoms: N_18  and  C_19
REMARK   12  A    between atoms: N_18  and  C_20
REMARK   13  A    between atoms: C_27  and  N_28
REMARK                            x       y       z     vdW  Elec       q    Type
REMARK                         _______ _______ _______ _____ _____    ______ ____
ROOT
ATOM      1  C   UNL     1       2.952   5.815  19.240  0.00  0.00    +0.000 A 
ATOM      2  C   UNL     1       2.943   7.184  18.829  0.00  0.00    +0.000 A 
ATOM      3  C   UNL     1       2.241   8.224  19.490  0.00  0.00    +0.000 A 
ATOM      4  C   UNL     1       1.461   7.930  20.600  0.00  0.00    +0.000 A 
ATOM      5  C   UNL     1       1.395   6.628  21.055  0.00  0.00    +0.000 A 
ATOM      6  C   UNL     1       2.086   5.609  20.358  0.00  0.00    +0.000 A 
ENDROOT
BRANCH   2   7
ATOM      7  N   UNL     1       3.510   7.611  17.563  0.00  0.00    +0.000 N 
ATOM      8  O   UNL     1       2.769   8.246  16.800  0.00  0.00    +0.000 OA
ATOM      9  O   UNL     1       4.710   7.368  17.373  0.00  0.00    +0.000 OA
ENDBRANCH   2   7
BRANCH   4  10
ATOM     10  S   UNL     1       0.486   9.195  21.392  0.00  0.00    +0.000 S 
ATOM     11  O   UNL     1      -0.869   8.689  21.467  0.00  0.00    +0.000 OA
ATOM     12  O   UNL     1       1.201   9.579  22.589  0.00  0.00    +0.000 OA
BRANCH  10  13
ATOM     13  N   UNL     1       0.535  10.472  20.251  0.00  0.00    +0.000 N 
ATOM     14  C   UNL     1       1.235  11.714  20.641  0.00  0.00    +0.000 C 
BRANCH  13  15
ATOM     15  C   UNL     1      -0.614  10.592  19.393  0.00  0.00    +0.000 A 
ATOM     16  C   UNL     1      -0.682   9.904  18.176  0.00  0.00    +0.000 A 
ATOM     17  C   UNL     1      -1.743  10.128  17.299  0.00  0.00    +0.000 A 
ATOM     18  C   UNL     1      -2.737  11.045  17.633  0.00  0.00    +0.000 A 
ATOM     19  C   UNL     1      -2.672  11.737  18.842  0.00  0.00    +0.000 A 
ATOM     20  C   UNL     1      -1.608  11.517  19.718  0.00  0.00    +0.000 A 
ENDBRANCH  13  15
ENDBRANCH  10  13
ENDBRANCH   4  10
BRANCH   6  21
ATOM     21  N   UNL     1       1.706   4.300  20.842  0.00  0.00    +0.000 N 
ATOM     22  O   UNL     1       0.709   3.786  20.318  0.00  0.00    +0.000 OA
ATOM     23  O   UNL     1       2.336   3.844  21.808  0.00  0.00    +0.000 OA
ENDBRANCH   6  21
BRANCH   1  24
ATOM     24  N   UNL     1       3.762   4.810  18.660  0.00  0.00    +0.000 N 
BRANCH  24  25
ATOM     25  C   UNL     1       5.067   4.404  19.244  0.00  0.00    +0.000 C 
BRANCH  25  27
ATOM     26  C   UNL     1       7.285   4.852  18.080  0.00  0.00    +0.000 C 
ATOM     27  C   UNL     1       6.200   5.404  18.990  0.00  0.00    +0.000 C 
ENDBRANCH  25  27
ENDBRANCH  24  25
BRANCH  24  28
ATOM     28  C   UNL     1       3.385   4.259  17.330  0.00  0.00    +0.000 C 
BRANCH  28  29
ATOM     29  C   UNL     1       2.330   3.153  17.258  0.00  0.00    +0.000 C 
ATOM     30  C   UNL     1       2.791   1.937  18.059  0.00  0.00    +0.000 C 
ENDBRANCH  28  29
ENDBRANCH  24  28
ENDBRANCH   1  24
TORSDOF 10
ENDMDL
MODEL 3
REMARK VINA RESULT:      -6.8      0.306      1.106
REMARK  Name = 
REMARK  13 active torsions:
REMARK  status: ('A' for Active; 'I' for Inactive)
REMARK    1  A    between atoms: C_1  and  C_2
REMARK    2  A    between atoms: C_2  and  C_3
REMARK    3  A    between atoms: C_3  and  N_4
REMARK    4  A    between atoms: N_4  and  C_5
REMARK    5  A    between atoms: N_4  and  C_8
REMARK    6  A    between atoms: C_5  and  C_6
REMARK    7  A    between atoms: C_6  and  C_7
REMARK    8  A    between atoms: C_9  and  N_10
REMARK    9  A    between atoms: C_14  and  S_15
REMARK   10  A    between atoms: S_15  and  N_18
REMARK   11  A    between atoms: N_18  and  C_19
REMARK   12  A    between atoms: N_18  and  C_20
REMARK   13  A    between atoms: C_27  and  N_28
REMARK                            x       y       z     vdW  Elec       q    Type
REMARK                         _______ _______ _______ _____ _____    ______ ____
ROOT
ATOM      1  C   UNL     1       2.845   5.867  19.206  0.00  0.00    +0.000 A 
ATOM      2  C   UNL     1       2.858   7.234  18.789  0.00  0.00    +0.000 A 
ATOM      3  C   UNL     1       2.189   8.291  19.455  0.00  0.00    +0.000 A 
ATOM      4  C   UNL     1       1.421   8.020  20.579  0.00  0.00    +0.000 A 
ATOM      5  C   UNL     1       1.335   6.721  21.042  0.00  0.00    +0.000 A 
ATOM      6  C   UNL     1       1.993   5.685  20.339  0.00  0.00    +0.000 A 
ENDROOT
BRANCH   2   7
ATOM      7  N   UNL     1       3.413   7.642  17.512  0.00  0.00    +0.000 N 
ATOM      8  O   UNL     1       2.718   8.388  16.809  0.00  0.00    +0.000 OA
ATOM      9  O   UNL     1       4.567   7.270  17.255  0.00  0.00    +0.000 OA
ENDBRANCH   2   7
BRANCH   4  10
ATOM     10  S   UNL     1       0.485   9.309  21.380  0.00  0.00    +0.000 S 
ATOM     11  O   UNL     1      -0.891   8.859  21.420  0.00  0.00    +0.000 OA
ATOM     12  O   UNL     1       1.193   9.637  22.598  0.00  0.00    +0.000 OA
BRANCH  10  13
ATOM     13  N   UNL     1       0.610  10.605  20.267  0.00  0.00    +0.000 N 
ATOM     14  C   UNL     1       1.353  11.808  20.697  0.00  0.00    +0.000 C 
BRANCH  13  15
ATOM     15  C   UNL     1      -0.516  10.791  19.391  0.00  0.00    +0.000 A 
ATOM     16  C   UNL     1      -1.576  11.634  19.746  0.00  0.00    +0.000 A 
ATOM     17  C   UNL     1      -2.715  11.706  18.945  0.00  0.00    +0.000 A 
ATOM     18  C   UNL     1      -2.803  10.932  17.791  0.00  0.00    +0.000 A 
ATOM     19  C   UNL     1      -1.753  10.086  17.435  0.00  0.00    +0.000 A 
ATOM     20  C   UNL     1      -0.614  10.010  18.238  0.00  0.00    +0.000 A 
ENDBRANCH  13  15
ENDBRANCH  10  13
ENDBRANCH   4  10
BRANCH   6  21
ATOM     21  N   UNL     1       1.594   4.386  20.836  0.00  0.00    +0.000 N 
ATOM     22  O   UNL     1       2.324   3.876  21.696  0.00  0.00    +0.000 OA
ATOM     23  O   UNL     1       0.623   3.841  20.291  0.00  0.00    +0.000 OA
ENDBRANCH   6  21
BRANCH   1  24
ATOM     24  N   UNL     1       3.625   4.842  18.619  0.00  0.00    +0.000 N 
BRANCH  24  25
ATOM     25  C   UNL     1       3.183   4.100  17.409  0.00  0.00    +0.000 C 
BRANCH  25  27
ATOM     26  C   UNL     1       3.313   1.676  18.172  0.00  0.00    +0.000 C 
ATOM     27  C   UNL     1       2.412   2.812  17.717  0.00  0.00    +0.000 C 
ENDBRANCH  25  27
ENDBRANCH  24  25
BRANCH  24  28
ATOM     28  C   UNL     1       4.844   4.369  19.328  0.00  0.00    +0.000 C 
BRANCH  28  29
ATOM     29  C   UNL     1       6.134   5.182  19.207  0.00  0.00    +0.000 C 
ATOM     30  C   UNL     1       6.923   4.733  17.979  0.00  0.00    +0.000 C 
ENDBRANCH  28  29
ENDBRANCH  24  28
ENDBRANCH   1  24
TORSDOF 10
ENDMDL
MODEL 4
REMARK VINA RESULT:      -6.6      2.229      7.850
REMARK  Name = 
REMARK  13 active torsions:
REMARK  status: ('A' for Active; 'I' for Inactive)
REMARK    1  A    between atoms: C_1  and  C_2
REMARK    2  A    between atoms: C_2  and  C_3
REMARK    3  A    between atoms: C_3  and  N_4
REMARK    4  A    between atoms: N_4  and  C_5
REMARK    5  A    between atoms: N_4  and  C_8
REMARK    6  A    between atoms: C_5  and  C_6
REMARK    7  A    between atoms: C_6  and  C_7
REMARK    8  A    between atoms: C_9  and  N_10
REMARK    9  A    between atoms: C_14  and  S_15
REMARK   10  A    between atoms: S_15  and  N_18
REMARK   11  A    between atoms: N_18  and  C_19
REMARK   12  A    between atoms: N_18  and  C_20
REMARK   13  A    between atoms: C_27  and  N_28
REMARK                            x       y       z     vdW  Elec       q    Type
REMARK                         _______ _______ _______ _____ _____    ______ ____
ROOT
ATOM      1  C   UNL     1       0.891   9.799  20.368  0.00  0.00    +0.000 A 
ATOM      2  C   UNL     1       0.985   8.839  21.422  0.00  0.00    +0.000 A 
ATOM      3  C   UNL     1       1.555   7.547  21.292  0.00  0.00    +0.000 A 
ATOM      4  C   UNL     1       2.036   7.128  20.059  0.00  0.00    +0.000 A 
ATOM      5  C   UNL     1       1.968   7.986  18.979  0.00  0.00    +0.000 A 
ATOM      6  C   UNL     1       1.369   9.257  19.135  0.00  0.00    +0.000 A 
ENDROOT
BRANCH   2   7
ATOM      7  N   UNL     1       0.321   9.029  22.698  0.00  0.00    +0.000 N 
ATOM      8  O   UNL     1      -0.798   8.515  22.832  0.00  0.00    +0.000 OA
ATOM      9  O   UNL     1       0.953   9.632  23.577  0.00  0.00    +0.000 OA
ENDBRANCH   2   7
BRANCH   4  10
ATOM     10  S   UNL     1       2.665   5.474  19.838  0.00  0.00    +0.000 S 
ATOM     11  O   UNL     1       4.075   5.519  20.164  0.00  0.00    +0.000 OA
ATOM     12  O   UNL     1       1.767   4.593  20.551  0.00  0.00    +0.000 OA
BRANCH  10  13
ATOM     13  N   UNL     1       2.496   5.235  18.150  0.00  0.00    +0.000 N 
ATOM     14  C   UNL     1       1.385   4.377  17.687  0.00  0.00    +0.000 C 
BRANCH  13  15
ATOM     15  C   UNL     1       3.721   5.211  17.394  0.00  0.00    +0.000 A 
ATOM     16  C   UNL     1       4.326   6.397  16.962  0.00  0.00    +0.000 A 
ATOM     17  C   UNL     1       5.440   6.353  16.125  0.00  0.00    +0.000 A 
ATOM     18  C   UNL     1       5.951   5.125  15.712  0.00  0.00    +0.000 A 
ATOM     19  C   UNL     1       5.349   3.940  16.135  0.00  0.00    +0.000 A 
ATOM     20  C   UNL     1       4.231   3.983  16.969  0.00  0.00    +0.000 A 
ENDBRANCH  13  15
ENDBRANCH  10  13
ENDBRANCH   4  10
BRANCH   6  21
ATOM     21  N   UNL     1       1.182   9.904  17.854  0.00  0.00    +0.000 N 
ATOM     22  O   UNL     1       2.186  10.417  17.343  0.00  0.00    +0.000 OA
ATOM     23  O   UNL     1       0.023   9.988  17.422  0.00  0.00    +0.000 OA
ENDBRANCH   6  21
BRANCH   1  24
ATOM     24  N   UNL     1       0.449  11.134  20.537  0.00  0.00    +0.000 N 
BRANCH  24  25
ATOM     25  C   UNL     1       1.379  12.292  20.503  0.00  0.00    +0.000 C 
BRANCH  25  27
ATOM     26  C   UNL     1       1.343  14.696  19.670  0.00  0.00    +0.000 C 
ATOM     27  C   UNL     1       1.161  13.230  19.311  0.00  0.00    +0.000 C 
ENDBRANCH  25  27
ENDBRANCH  24  25
BRANCH  24  28
ATOM     28  C   UNL     1      -0.964  11.378  20.935  0.00  0.00    +0.000 C 
BRANCH  28  29
ATOM     29  C   UNL     1      -1.257  12.389  22.046  0.00  0.00    +0.000 C 
ATOM     30  C   UNL     1      -2.194  11.771  23.082  0.00  0.00    +0.000 C 
ENDBRANCH  28  29
ENDBRANCH  24  28
ENDBRANCH   1  24
TORSDOF 10
ENDMDL
MODEL 5
REMARK VINA RESULT:      -6.6      2.151      7.684
REMARK  Name = 
REMARK  13 active torsions:
REMARK  status: ('A' for Active; 'I' for Inactive)
REMARK    1  A    between atoms: C_1  and  C_2
REMARK    2  A    between atoms: C_2  and  C_3
REMARK    3  A    between atoms: C_3  and  N_4
REMARK    4  A    between atoms: N_4  and  C_5
REMARK    5  A    between atoms: N_4  and  C_8
REMARK    6  A    between atoms: C_5  and  C_6
REMARK    7  A    between atoms: C_6  and  C_7
REMARK    8  A    between atoms: C_9  and  N_10
REMARK    9  A    between atoms: C_14  and  S_15
REMARK   10  A    between atoms: S_15  and  N_18
REMARK   11  A    between atoms: N_18  and  C_19
REMARK   12  A    between atoms: N_18  and  C_20
REMARK   13  A    between atoms: C_27  and  N_28
REMARK                            x       y       z     vdW  Elec       q    Type
REMARK                         _______ _______ _______ _____ _____    ______ ____
ROOT
ATOM      1  C   UNL     1       0.863   9.736  20.332  0.00  0.00    +0.000 A 
ATOM      2  C   UNL     1       0.984   8.781  21.389  0.00  0.00    +0.000 A 
ATOM      3  C   UNL     1       1.597   7.508  21.264  0.00  0.00    +0.000 A 
ATOM      4  C   UNL     1       2.098   7.103  20.034  0.00  0.00    +0.000 A 
ATOM      5  C   UNL     1       2.005   7.956  18.952  0.00  0.00    +0.000 A 
ATOM      6  C   UNL     1       1.364   9.207  19.102  0.00  0.00    +0.000 A 
ENDROOT
BRANCH   2   7
ATOM      7  N   UNL     1       0.309   8.952  22.661  0.00  0.00    +0.000 N 
ATOM      8  O   UNL     1       0.907   9.595  23.535  0.00  0.00    +0.000 OA
ATOM      9  O   UNL     1      -0.843   8.501  22.752  0.00  0.00    +0.000 OA
ENDBRANCH   2   7
BRANCH   4  10
ATOM     10  S   UNL     1       2.782   5.470  19.820  0.00  0.00    +0.000 S 
ATOM     11  O   UNL     1       4.199   5.575  20.099  0.00  0.00    +0.000 OA
ATOM     12  O   UNL     1       1.942   4.568  20.576  0.00  0.00    +0.000 OA
BRANCH  10  13
ATOM     13  N   UNL     1       2.569   5.196  18.142  0.00  0.00    +0.000 N 
ATOM     14  C   UNL     1       1.461   4.308  17.728  0.00  0.00    +0.000 C 
BRANCH  13  15
ATOM     15  C   UNL     1       3.771   5.180  17.351  0.00  0.00    +0.000 A 
ATOM     16  C   UNL     1       4.356   6.371  16.903  0.00  0.00    +0.000 A 
ATOM     17  C   UNL     1       5.446   6.335  16.034  0.00  0.00    +0.000 A 
ATOM     18  C   UNL     1       5.951   5.110  15.604  0.00  0.00    +0.000 A 
ATOM     19  C   UNL     1       5.369   3.921  16.043  0.00  0.00    +0.000 A 
ATOM     20  C   UNL     1       4.275   3.956  16.909  0.00  0.00    +0.000 A 
ENDBRANCH  13  15
ENDBRANCH  10  13
ENDBRANCH   4  10
BRANCH   6  21
ATOM     21  N   UNL     1       1.161   9.844  17.819  0.00  0.00    +0.000 N 
ATOM     22  O   UNL     1       2.146  10.401  17.318  0.00  0.00    +0.000 OA
ATOM     23  O   UNL     1       0.003   9.877  17.376  0.00  0.00    +0.000 OA
ENDBRANCH   6  21
BRANCH   1  24
ATOM     24  N   UNL     1       0.376  11.055  20.497  0.00  0.00    +0.000 N 
BRANCH  24  25
ATOM     25  C   UNL     1      -1.074  11.378  20.460  0.00  0.00    +0.000 C 
BRANCH  25  27
ATOM     26  C   UNL     1      -2.195  13.414  21.496  0.00  0.00    +0.000 C 
ATOM     27  C   UNL     1      -1.598  12.038  21.740  0.00  0.00    +0.000 C 
ENDBRANCH  25  27
ENDBRANCH  24  25
BRANCH  24  28
ATOM     28  C   UNL     1       1.347  12.182  20.535  0.00  0.00    +0.000 C 
BRANCH  28  29
ATOM     29  C   UNL     1       1.325  13.217  19.408  0.00  0.00    +0.000 C 
ATOM     30  C   UNL     1       2.417  14.261  19.635  0.00  0.00    +0.000 C 
ENDBRANCH  28  29
ENDBRANCH  24  28
ENDBRANCH   1  24
TORSDOF 10
ENDMDL
MODEL 6
REMARK VINA RESULT:      -6.5      2.023      7.780
REMARK  Name = 
REMARK  13 active torsions:
REMARK  status: ('A' for Active; 'I' for Inactive)
REMARK    1  A    between atoms: C_1  and  C_2
REMARK    2  A    between atoms: C_2  and  C_3
REMARK    3  A    between atoms: C_3  and  N_4
REMARK    4  A    between atoms: N_4  and  C_5
REMARK    5  A    between atoms: N_4  and  C_8
REMARK    6  A    between atoms: C_5  and  C_6
REMARK    7  A    between atoms: C_6  and  C_7
REMARK    8  A    between atoms: C_9  and  N_10
REMARK    9  A    between atoms: C_14  and  S_15
REMARK   10  A    between atoms: S_15  and  N_18
REMARK   11  A    between atoms: N_18  and  C_19
REMARK   12  A    between atoms: N_18  and  C_20
REMARK   13  A    between atoms: C_27  and  N_28
REMARK                            x       y       z     vdW  Elec       q    Type
REMARK                         _______ _______ _______ _____ _____    ______ ____
ROOT
ATOM      1  C   UNL     1       0.888   9.714  20.256  0.00  0.00    +0.000 A 
ATOM      2  C   UNL     1       0.989   8.772  21.326  0.00  0.00    +0.000 A 
ATOM      3  C   UNL     1       1.597   7.495  21.226  0.00  0.00    +0.000 A 
ATOM      4  C   UNL     1       2.113   7.071  20.009  0.00  0.00    +0.000 A 
ATOM      5  C   UNL     1       2.041   7.911  18.915  0.00  0.00    +0.000 A 
ATOM      6  C   UNL     1       1.404   9.167  19.040  0.00  0.00    +0.000 A 
ENDROOT
BRANCH   2   7
ATOM      7  N   UNL     1       0.295   8.962  22.586  0.00  0.00    +0.000 N 
ATOM      8  O   UNL     1       0.874   9.634  23.451  0.00  0.00    +0.000 OA
ATOM      9  O   UNL     1      -0.850   8.497  22.674  0.00  0.00    +0.000 OA
ENDBRANCH   2   7
BRANCH   4  10
ATOM     10  S   UNL     1       2.792   5.433  19.825  0.00  0.00    +0.000 S 
ATOM     11  O   UNL     1       4.209   5.537  20.105  0.00  0.00    +0.000 OA
ATOM     12  O   UNL     1       1.948   4.547  20.597  0.00  0.00    +0.000 OA
BRANCH  10  13
ATOM     13  N   UNL     1       2.581   5.128  18.153  0.00  0.00    +0.000 N 
ATOM     14  C   UNL     1       1.469   4.239  17.753  0.00  0.00    +0.000 C 
BRANCH  13  15
ATOM     15  C   UNL     1       3.784   5.092  17.364  0.00  0.00    +0.000 A 
ATOM     16  C   UNL     1       4.353   6.268  16.861  0.00  0.00    +0.000 A 
ATOM     17  C   UNL     1       5.445   6.206  15.995  0.00  0.00    +0.000 A 
ATOM     18  C   UNL     1       5.968   4.969  15.625  0.00  0.00    +0.000 A 
ATOM     19  C   UNL     1       5.402   3.795  16.120  0.00  0.00    +0.000 A 
ATOM     20  C   UNL     1       4.307   3.856  16.983  0.00  0.00    +0.000 A 
ENDBRANCH  13  15
ENDBRANCH  10  13
ENDBRANCH   4  10
BRANCH   6  21
ATOM     21  N   UNL     1       1.223   9.789  17.746  0.00  0.00    +0.000 N 
ATOM     22  O   UNL     1       2.152  10.499  17.341  0.00  0.00    +0.000 OA
ATOM     23  O   UNL     1       0.120   9.651  17.197  0.00  0.00    +0.000 OA
ENDBRANCH   6  21
BRANCH   1  24
ATOM     24  N   UNL     1       0.405  11.037  20.396  0.00  0.00    +0.000 N 
BRANCH  24  25
ATOM     25  C   UNL     1       1.284  12.168  20.792  0.00  0.00    +0.000 C 
BRANCH  25  27
ATOM     26  C   UNL     1       1.189  14.565  19.946  0.00  0.00    +0.000 C 
ATOM     27  C   UNL     1       1.608  13.135  19.649  0.00  0.00    +0.000 C 
ENDBRANCH  25  27
ENDBRANCH  24  25
BRANCH  24  28
ATOM     28  C   UNL     1      -1.061  11.281  20.315  0.00  0.00    +0.000 C 
BRANCH  28  29
ATOM     29  C   UNL     1      -1.631  11.956  19.066  0.00  0.00    +0.000 C 
ATOM     30  C   UNL     1      -2.474  10.960  18.271  0.00  0.00    +0.000 C 
ENDBRANCH  28  29
ENDBRANCH  24  28
ENDBRANCH   1  24
TORSDOF 10
ENDMDL
MODEL 7
REMARK VINA RESULT:      -6.4      2.128      7.853
REMARK  Name = 
REMARK  13 active torsions:
REMARK  status: ('A' for Active; 'I' for Inactive)
REMARK    1  A    between atoms: C_1  and  C_2
REMARK    2  A    between atoms: C_2  and  C_3
REMARK    3  A    between atoms: C_3  and  N_4
REMARK    4  A    between atoms: N_4  and  C_5
REMARK    5  A    between atoms: N_4  and  C_8
REMARK    6  A    between atoms: C_5  and  C_6
REMARK    7  A    between atoms: C_6  and  C_7
REMARK    8  A    between atoms: C_9  and  N_10
REMARK    9  A    between atoms: C_14  and  S_15
REMARK   10  A    between atoms: S_15  and  N_18
REMARK   11  A    between atoms: N_18  and  C_19
REMARK   12  A    between atoms: N_18  and  C_20
REMARK   13  A    between atoms: C_27  and  N_28
REMARK                            x       y       z     vdW  Elec       q    Type
REMARK                         _______ _______ _______ _____ _____    ______ ____
ROOT
ATOM      1  C   UNL     1       0.873   9.726  20.309  0.00  0.00    +0.000 A 
ATOM      2  C   UNL     1       0.995   8.773  21.367  0.00  0.00    +0.000 A 
ATOM      3  C   UNL     1       1.617   7.505  21.247  0.00  0.00    +0.000 A 
ATOM      4  C   UNL     1       2.126   7.101  20.021  0.00  0.00    +0.000 A 
ATOM      5  C   UNL     1       2.033   7.951  18.936  0.00  0.00    +0.000 A 
ATOM      6  C   UNL     1       1.383   9.199  19.082  0.00  0.00    +0.000 A 
ENDROOT
BRANCH   2   7
ATOM      7  N   UNL     1       0.312   8.942  22.636  0.00  0.00    +0.000 N 
ATOM      8  O   UNL     1       0.902   9.591  23.511  0.00  0.00    +0.000 OA
ATOM      9  O   UNL     1      -0.836   8.482  22.723  0.00  0.00    +0.000 OA
ENDBRANCH   2   7
BRANCH   4  10
ATOM     10  S   UNL     1       2.823   5.473  19.812  0.00  0.00    +0.000 S 
ATOM     11  O   UNL     1       4.249   5.601  20.027  0.00  0.00    +0.000 OA
ATOM     12  O   UNL     1       2.028   4.577  20.623  0.00  0.00    +0.000 OA
BRANCH  10  13
ATOM     13  N   UNL     1       2.541   5.158  18.152  0.00  0.00    +0.000 N 
ATOM     14  C   UNL     1       1.413   4.267  17.805  0.00  0.00    +0.000 C 
BRANCH  13  15
ATOM     15  C   UNL     1       3.710   5.116  17.313  0.00  0.00    +0.000 A 
ATOM     16  C   UNL     1       4.293   3.897  16.949  0.00  0.00    +0.000 A 
ATOM     17  C   UNL     1       5.495   3.876  16.242  0.00  0.00    +0.000 A 
ATOM     18  C   UNL     1       6.122   5.073  15.903  0.00  0.00    +0.000 A 
ATOM     19  C   UNL     1       5.548   6.291  16.268  0.00  0.00    +0.000 A 
ATOM     20  C   UNL     1       4.347   6.312  16.979  0.00  0.00    +0.000 A 
ENDBRANCH  13  15
ENDBRANCH  10  13
ENDBRANCH   4  10
BRANCH   6  21
ATOM     21  N   UNL     1       1.181   9.832  17.797  0.00  0.00    +0.000 N 
ATOM     22  O   UNL     1       0.033   9.791  17.336  0.00  0.00    +0.000 OA
ATOM     23  O   UNL     1       2.184  10.268  17.213  0.00  0.00    +0.000 OA
ENDBRANCH   6  21
BRANCH   1  24
ATOM     24  N   UNL     1       0.375  11.042  20.468  0.00  0.00    +0.000 N 
BRANCH  24  25
ATOM     25  C   UNL     1       1.262  12.198  20.759  0.00  0.00    +0.000 C 
BRANCH  25  27
ATOM     26  C   UNL     1       0.955  14.469  19.655  0.00  0.00    +0.000 C 
ATOM     27  C   UNL     1       1.557  13.079  19.541  0.00  0.00    +0.000 C 
ENDBRANCH  25  27
ENDBRANCH  24  25
BRANCH  24  28
ATOM     28  C   UNL     1      -1.097  11.254  20.520  0.00  0.00    +0.000 C 
BRANCH  28  29
ATOM     29  C   UNL     1      -1.676  12.172  21.598  0.00  0.00    +0.000 C 
ATOM     30  C   UNL     1      -2.583  13.222  20.960  0.00  0.00    +0.000 C 
ENDBRANCH  28  29
ENDBRANCH  24  28
ENDBRANCH   1  24
TORSDOF 10
ENDMDL
MODEL 8
REMARK VINA RESULT:      -6.4      2.212      3.040
REMARK  Name = 
REMARK  13 active torsions:
REMARK  status: ('A' for Active; 'I' for Inactive)
REMARK    1  A    between atoms: C_1  and  C_2
REMARK    2  A    between atoms: C_2  and  C_3
REMARK    3  A    between atoms: C_3  and  N_4
REMARK    4  A    between atoms: N_4  and  C_5
REMARK    5  A    between atoms: N_4  and  C_8
REMARK    6  A    between atoms: C_5  and  C_6
REMARK    7  A    between atoms: C_6  and  C_7
REMARK    8  A    between atoms: C_9  and  N_10
REMARK    9  A    between atoms: C_14  and  S_15
REMARK   10  A    between atoms: S_15  and  N_18
REMARK   11  A    between atoms: N_18  and  C_19
REMARK   12  A    between atoms: N_18  and  C_20
REMARK   13  A    between atoms: C_27  and  N_28
REMARK                            x       y       z     vdW  Elec       q    Type
REMARK                         _______ _______ _______ _____ _____    ______ ____
ROOT
ATOM      1  C   UNL     1       3.702   5.527  17.674  0.00  0.00    +0.000 A 
ATOM      2  C   UNL     1       4.233   6.828  17.413  0.00  0.00    +0.000 A 
ATOM      3  C   UNL     1       3.551   8.045  17.663  0.00  0.00    +0.000 A 
ATOM      4  C   UNL     1       2.256   8.020  18.163  0.00  0.00    +0.000 A 
ATOM      5  C   UNL     1       1.657   6.803  18.426  0.00  0.00    +0.000 A 
ATOM      6  C   UNL     1       2.353   5.606  18.141  0.00  0.00    +0.000 A 
ENDROOT
BRANCH   2   7
ATOM      7  N   UNL     1       5.468   7.021  16.677  0.00  0.00    +0.000 N 
ATOM      8  O   UNL     1       5.381   7.117  15.445  0.00  0.00    +0.000 OA
ATOM      9  O   UNL     1       6.507   7.145  17.343  0.00  0.00    +0.000 OA
ENDBRANCH   2   7
BRANCH   4  10
ATOM     10  S   UNL     1       1.335   9.529  18.392  0.00  0.00    +0.000 S 
ATOM     11  O   UNL     1       2.200  10.611  17.971  0.00  0.00    +0.000 OA
ATOM     12  O   UNL     1       0.047   9.325  17.767  0.00  0.00    +0.000 OA
BRANCH  10  13
ATOM     13  N   UNL     1       1.152   9.598  20.093  0.00  0.00    +0.000 N 
ATOM     14  C   UNL     1       1.401   8.359  20.860  0.00  0.00    +0.000 C 
BRANCH  13  15
ATOM     15  C   UNL     1       0.135  10.494  20.580  0.00  0.00    +0.000 A 
ATOM     16  C   UNL     1      -0.360  11.528  19.777  0.00  0.00    +0.000 A 
ATOM     17  C   UNL     1      -1.250  12.462  20.305  0.00  0.00    +0.000 A 
ATOM     18  C   UNL     1      -1.645  12.370  21.638  0.00  0.00    +0.000 A 
ATOM     19  C   UNL     1      -1.150  11.345  22.443  0.00  0.00    +0.000 A 
ATOM     20  C   UNL     1      -0.256  10.412  21.917  0.00  0.00    +0.000 A 
ENDBRANCH  13  15
ENDBRANCH  10  13
ENDBRANCH   4  10
BRANCH   6  21
ATOM     21  N   UNL     1       1.482   4.457  18.260  0.00  0.00    +0.000 N 
ATOM     22  O   UNL     1       1.178   4.112  19.410  0.00  0.00    +0.000 OA
ATOM     23  O   UNL     1       1.197   3.848  17.219  0.00  0.00    +0.000 OA
ENDBRANCH   6  21
BRANCH   1  24
ATOM     24  N   UNL     1       4.437   4.322  17.553  0.00  0.00    +0.000 N 
BRANCH  24  25
ATOM     25  C   UNL     1       5.165   3.715  18.697  0.00  0.00    +0.000 C 
BRANCH  25  27
ATOM     26  C   UNL     1       3.681   1.648  18.718  0.00  0.00    +0.000 C 
ATOM     27  C   UNL     1       4.314   2.759  19.540  0.00  0.00    +0.000 C 
ENDBRANCH  25  27
ENDBRANCH  24  25
BRANCH  24  28
ATOM     28  C   UNL     1       4.634   3.733  16.201  0.00  0.00    +0.000 C 
BRANCH  28  29
ATOM     29  C   UNL     1       6.050   3.653  15.627  0.00  0.00    +0.000 C 
ATOM     30  C   UNL     1       6.033   4.008  14.141  0.00  0.00    +0.000 C 
ENDBRANCH  28  29
ENDBRANCH  24  28
ENDBRANCH   1  24
TORSDOF 10
ENDMDL
MODEL 9
REMARK VINA RESULT:      -6.4      1.017      1.615
REMARK  Name = 
REMARK  13 active torsions:
REMARK  status: ('A' for Active; 'I' for Inactive)
REMARK    1  A    between atoms: C_1  and  C_2
REMARK    2  A    between atoms: C_2  and  C_3
REMARK    3  A    between atoms: C_3  and  N_4
REMARK    4  A    between atoms: N_4  and  C_5
REMARK    5  A    between atoms: N_4  and  C_8
REMARK    6  A    between atoms: C_5  and  C_6
REMARK    7  A    between atoms: C_6  and  C_7
REMARK    8  A    between atoms: C_9  and  N_10
REMARK    9  A    between atoms: C_14  and  S_15
REMARK   10  A    between atoms: S_15  and  N_18
REMARK   11  A    between atoms: N_18  and  C_19
REMARK   12  A    between atoms: N_18  and  C_20
REMARK   13  A    between atoms: C_27  and  N_28
REMARK                            x       y       z     vdW  Elec       q    Type
REMARK                         _______ _______ _______ _____ _____    ______ ____
ROOT
ATOM      1  C   UNL     1       2.935   5.647  19.167  0.00  0.00    +0.000 A 
ATOM      2  C   UNL     1       3.030   7.028  18.808  0.00  0.00    +0.000 A 
ATOM      3  C   UNL     1       2.369   8.087  19.481  0.00  0.00    +0.000 A 
ATOM      4  C   UNL     1       1.529   7.806  20.549  0.00  0.00    +0.000 A 
ATOM      5  C   UNL     1       1.362   6.495  20.952  0.00  0.00    +0.000 A 
ATOM      6  C   UNL     1       2.014   5.459  20.244  0.00  0.00    +0.000 A 
ENDROOT
BRANCH   2   7
ATOM      7  N   UNL     1       3.672   7.461  17.582  0.00  0.00    +0.000 N 
ATOM      8  O   UNL     1       4.885   7.234  17.470  0.00  0.00    +0.000 OA
ATOM      9  O   UNL     1       2.944   7.961  16.711  0.00  0.00    +0.000 OA
ENDBRANCH   2   7
BRANCH   4  10
ATOM     10  S   UNL     1       0.605   9.103  21.351  0.00  0.00    +0.000 S 
ATOM     11  O   UNL     1      -0.759   8.632  21.465  0.00  0.00    +0.000 OA
ATOM     12  O   UNL     1       1.359   9.481  22.525  0.00  0.00    +0.000 OA
BRANCH  10  13
ATOM     13  N   UNL     1       0.657  10.366  20.194  0.00  0.00    +0.000 N 
ATOM     14  C   UNL     1       1.370  11.607  20.566  0.00  0.00    +0.000 C 
BRANCH  13  15
ATOM     15  C   UNL     1      -0.497  10.486  19.343  0.00  0.00    +0.000 A 
ATOM     16  C   UNL     1      -0.576   9.787  18.133  0.00  0.00    +0.000 A 
ATOM     17  C   UNL     1      -1.642  10.010  17.261  0.00  0.00    +0.000 A 
ATOM     18  C   UNL     1      -2.628  10.937  17.592  0.00  0.00    +0.000 A 
ATOM     19  C   UNL     1      -2.550  11.639  18.794  0.00  0.00    +0.000 A 
ATOM     20  C   UNL     1      -1.482  11.420  19.665  0.00  0.00    +0.000 A 
ENDBRANCH  13  15
ENDBRANCH  10  13
ENDBRANCH   4  10
BRANCH   6  21
ATOM     21  N   UNL     1       1.532   4.161  20.664  0.00  0.00    +0.000 N 
ATOM     22  O   UNL     1       0.659   3.641  19.957  0.00  0.00    +0.000 OA
ATOM     23  O   UNL     1       1.948   3.722  21.746  0.00  0.00    +0.000 OA
ENDBRANCH   6  21
BRANCH   1  24
ATOM     24  N   UNL     1       3.702   4.612  18.581  0.00  0.00    +0.000 N 
BRANCH  24  25
ATOM     25  C   UNL     1       3.580   4.246  17.146  0.00  0.00    +0.000 C 
BRANCH  25  27
ATOM     26  C   UNL     1       5.158   4.600  15.181  0.00  0.00    +0.000 C 
ATOM     27  C   UNL     1       4.909   3.862  16.486  0.00  0.00    +0.000 C 
ENDBRANCH  25  27
ENDBRANCH  24  25
BRANCH  24  28
ATOM     28  C   UNL     1       4.532   3.744  19.460  0.00  0.00    +0.000 C 
BRANCH  28  29
ATOM     29  C   UNL     1       4.208   2.252  19.546  0.00  0.00    +0.000 C 
ATOM     30  C   UNL     1       4.905   1.633  20.757  0.00  0.00    +0.000 C 
ENDBRANCH  28  29
ENDBRANCH  24  28
ENDBRANCH   1  24
TORSDOF 10
ENDMDL
