MODEL 1
REMARK VINA RESULT:      -7.4      0.000      0.000
REMARK  Name = 
REMARK  14 active torsions:
REMARK  status: ('A' for Active; 'I' for Inactive)
REMARK    1  A    between atoms: C_1  and  C_2
REMARK    2  A    between atoms: C_2  and  O_3
REMARK    3  A    between atoms: O_3  and  C_4
REMARK    4  A    between atoms: C_9  and  N_10
REMARK    5  A    between atoms: N_13  and  C_14
REMARK    6  A    between atoms: N_13  and  C_32
REMARK    7  A    between atoms: C_14  and  C_15
REMARK    8  A    between atoms: N_17  and  C_18
REMARK    9  A    between atoms: N_17  and  C_26
REMARK   10  A    between atoms: C_18  and  C_19
REMARK   11  A    between atoms: C_19  and  C_20
REMARK   12  A    between atoms: C_26  and  C_27
REMARK   13  A    between atoms: C_32  and  C_33
REMARK   14  A    between atoms: C_32  and  C_34
REMARK                            x       y       z     vdW  Elec       q    Type
REMARK                         _______ _______ _______ _____ _____    ______ ____
ROOT
ATOM      1  C   UNL     1       0.745  10.183  19.987  0.00  0.00    +0.000 C 
ENDROOT
BRANCH   1   5
ATOM      2  N   UNL     1      -1.713  11.354  19.175  0.00  0.00    +0.000 N 
ATOM      3  C   UNL     1      -0.568  12.113  19.018  0.00  0.00    +0.000 C 
ATOM      4  O   UNL     1      -0.539  13.186  18.413  0.00  0.00    +0.000 OA
ATOM      5  N   UNL     1       0.595  11.586  19.577  0.00  0.00    +0.000 N 
ATOM      6  H   UNL     1      -1.670  10.454  19.627  0.00  0.00    +0.000 HD
BRANCH   2  12
ATOM      7  C   UNL     1      -3.421  11.399  17.434  0.00  0.00    +0.000 A 
ATOM      8  C   UNL     1      -4.732  11.698  17.028  0.00  0.00    +0.000 A 
ATOM      9  C   UNL     1      -5.626  12.308  17.903  0.00  0.00    +0.000 A 
ATOM     10  C   UNL     1      -5.234  12.607  19.202  0.00  0.00    +0.000 A 
ATOM     11  C   UNL     1      -3.945  12.292  19.629  0.00  0.00    +0.000 A 
ATOM     12  C   UNL     1      -3.027  11.697  18.758  0.00  0.00    +0.000 A 
BRANCH   7  13
ATOM     13  O   UNL     1      -2.469  10.856  16.595  0.00  0.00    +0.000 OA
BRANCH  13  15
ATOM     14  C   UNL     1      -3.027  10.110  14.367  0.00  0.00    +0.000 C 
ATOM     15  C   UNL     1      -2.900   9.720  15.829  0.00  0.00    +0.000 C 
ENDBRANCH  13  15
ENDBRANCH   7  13
ENDBRANCH   2  12
BRANCH   5  16
ATOM     16  C   UNL     1       1.835  12.400  19.624  0.00  0.00    +0.000 C 
ATOM     17  C   UNL     1       2.425  12.717  18.245  0.00  0.00    +0.000 C 
ATOM     18  C   UNL     1       1.748  13.667  20.479  0.00  0.00    +0.000 C 
ENDBRANCH   5  16
ENDBRANCH   1   5
BRANCH   1  19
ATOM     19  C   UNL     1       1.216   9.246  18.852  0.00  0.00    +0.000 C 
ATOM     20  O   UNL     1       0.942   9.512  17.679  0.00  0.00    +0.000 OA
ATOM     21  N   UNL     1       2.004   8.135  19.176  0.00  0.00    +0.000 N 
BRANCH  21  22
ATOM     22  C   UNL     1       2.479   7.266  18.079  0.00  0.00    +0.000 C 
BRANCH  22  23
ATOM     23  C   UNL     1       3.760   7.735  17.374  0.00  0.00    +0.000 C 
BRANCH  23  24
ATOM     24  C   UNL     1       4.753   6.599  17.239  0.00  0.00    +0.000 A 
ATOM     25  C   UNL     1       6.132   6.848  17.303  0.00  0.00    +0.000 A 
ATOM     26  C   UNL     1       7.050   5.804  17.159  0.00  0.00    +0.000 A 
ATOM     27  C   UNL     1       6.601   4.503  16.943  0.00  0.00    +0.000 A 
ATOM     28  C   UNL     1       5.234   4.244  16.869  0.00  0.00    +0.000 A 
ATOM     29  C   UNL     1       4.315   5.287  17.013  0.00  0.00    +0.000 A 
ENDBRANCH  23  24
ENDBRANCH  22  23
ENDBRANCH  21  22
BRANCH  21  30
ATOM     30  C   UNL     1       1.963   7.505  20.499  0.00  0.00    +0.000 C 
BRANCH  30  31
ATOM     31  C   UNL     1       2.026   6.019  20.398  0.00  0.00    +0.000 A 
ATOM     32  C   UNL     1       3.034   5.090  20.213  0.00  0.00    +0.000 A 
ATOM     33  C   UNL     1       2.420   3.817  20.200  0.00  0.00    +0.000 A 
ATOM     34  C   UNL     1       1.073   4.044  20.354  0.00  0.00    +0.000 A 
ATOM     35  O   UNL     1       0.825   5.373  20.471  0.00  0.00    +0.000 OA
ENDBRANCH  30  31
ENDBRANCH  21  30
ENDBRANCH   1  19
TORSDOF 11
ENDMDL
MODEL 2
REMARK VINA RESULT:      -7.4      0.590      1.107
REMARK  Name = 
REMARK  14 active torsions:
REMARK  status: ('A' for Active; 'I' for Inactive)
REMARK    1  A    between atoms: C_1  and  C_2
REMARK    2  A    between atoms: C_2  and  O_3
REMARK    3  A    between atoms: O_3  and  C_4
REMARK    4  A    between atoms: C_9  and  N_10
REMARK    5  A    between atoms: N_13  and  C_14
REMARK    6  A    between atoms: N_13  and  C_32
REMARK    7  A    between atoms: C_14  and  C_15
REMARK    8  A    between atoms: N_17  and  C_18
REMARK    9  A    between atoms: N_17  and  C_26
REMARK   10  A    between atoms: C_18  and  C_19
REMARK   11  A    between atoms: C_19  and  C_20
REMARK   12  A    between atoms: C_26  and  C_27
REMARK   13  A    between atoms: C_32  and  C_33
REMARK   14  A    between atoms: C_32  and  C_34
REMARK                            x       y       z     vdW  Elec       q    Type
REMARK                         _______ _______ _______ _____ _____    ______ ____
ROOT
ATOM      1  C   UNL     1       0.530   9.957  19.962  0.00  0.00    +0.000 C 
ENDROOT
BRANCH   1   5
ATOM      2  N   UNL     1      -1.918  11.224  19.271  0.00  0.00    +0.000 N 
ATOM      3  C   UNL     1      -0.755  11.951  19.090  0.00  0.00    +0.000 C 
ATOM      4  O   UNL     1      -0.714  13.038  18.511  0.00  0.00    +0.000 OA
ATOM      5  N   UNL     1       0.410  11.374  19.592  0.00  0.00    +0.000 N 
ATOM      6  H   UNL     1      -1.887  10.312  19.699  0.00  0.00    +0.000 HD
BRANCH   2  12
ATOM      7  C   UNL     1      -3.786  11.129  17.706  0.00  0.00    +0.000 A 
ATOM      8  C   UNL     1      -5.103  11.482  17.365  0.00  0.00    +0.000 A 
ATOM      9  C   UNL     1      -5.847  12.326  18.183  0.00  0.00    +0.000 A 
ATOM     10  C   UNL     1      -5.300  12.811  19.364  0.00  0.00    +0.000 A 
ATOM     11  C   UNL     1      -4.004  12.449  19.730  0.00  0.00    +0.000 A 
ATOM     12  C   UNL     1      -3.234  11.618  18.912  0.00  0.00    +0.000 A 
BRANCH   7  13
ATOM     13  O   UNL     1      -2.974  10.352  16.904  0.00  0.00    +0.000 OA
BRANCH  13  15
ATOM     14  C   UNL     1      -3.353  10.027  14.542  0.00  0.00    +0.000 C 
ATOM     15  C   UNL     1      -2.696  10.892  15.603  0.00  0.00    +0.000 C 
ENDBRANCH  13  15
ENDBRANCH   7  13
ENDBRANCH   2  12
BRANCH   5  16
ATOM     16  C   UNL     1       1.677  12.148  19.613  0.00  0.00    +0.000 C 
ATOM     17  C   UNL     1       2.197  12.528  18.222  0.00  0.00    +0.000 C 
ATOM     18  C   UNL     1       1.678  13.364  20.542  0.00  0.00    +0.000 C 
ENDBRANCH   5  16
ENDBRANCH   1   5
BRANCH   1  19
ATOM     19  C   UNL     1       1.087   9.061  18.832  0.00  0.00    +0.000 C 
ATOM     20  O   UNL     1       0.810   9.307  17.656  0.00  0.00    +0.000 OA
ATOM     21  N   UNL     1       1.952   8.011  19.166  0.00  0.00    +0.000 N 
BRANCH  21  22
ATOM     22  C   UNL     1       2.507   7.183  18.076  0.00  0.00    +0.000 C 
BRANCH  22  23
ATOM     23  C   UNL     1       3.820   7.691  17.465  0.00  0.00    +0.000 C 
BRANCH  23  24
ATOM     24  C   UNL     1       4.751   6.540  17.142  0.00  0.00    +0.000 A 
ATOM     25  C   UNL     1       4.250   5.237  17.005  0.00  0.00    +0.000 A 
ATOM     26  C   UNL     1       5.110   4.171  16.726  0.00  0.00    +0.000 A 
ATOM     27  C   UNL     1       6.479   4.395  16.588  0.00  0.00    +0.000 A 
ATOM     28  C   UNL     1       6.989   5.683  16.730  0.00  0.00    +0.000 A 
ATOM     29  C   UNL     1       6.131   6.750  17.009  0.00  0.00    +0.000 A 
ENDBRANCH  23  24
ENDBRANCH  22  23
ENDBRANCH  21  22
BRANCH  21  30
ATOM     30  C   UNL     1       1.940   7.378  20.489  0.00  0.00    +0.000 C 
BRANCH  30  31
ATOM     31  C   UNL     1       1.914   5.891  20.381  0.00  0.00    +0.000 A 
ATOM     32  C   UNL     1       0.923   4.926  20.352  0.00  0.00    +0.000 A 
ATOM     33  C   UNL     1       1.573   3.676  20.244  0.00  0.00    +0.000 A 
ATOM     34  C   UNL     1       2.921   3.947  20.237  0.00  0.00    +0.000 A 
ATOM     35  O   UNL     1       3.136   5.285  20.323  0.00  0.00    +0.000 OA
ENDBRANCH  30  31
ENDBRANCH  21  30
ENDBRANCH   1  19
TORSDOF 11
ENDMDL
MODEL 3
REMARK VINA RESULT:      -7.4      3.408      6.419
REMARK  Name = 
REMARK  14 active torsions:
REMARK  status: ('A' for Active; 'I' for Inactive)
REMARK    1  A    between atoms: C_1  and  C_2
REMARK    2  A    between atoms: C_2  and  O_3
REMARK    3  A    between atoms: O_3  and  C_4
REMARK    4  A    between atoms: C_9  and  N_10
REMARK    5  A    between atoms: N_13  and  C_14
REMARK    6  A    between atoms: N_13  and  C_32
REMARK    7  A    between atoms: C_14  and  C_15
REMARK    8  A    between atoms: N_17  and  C_18
REMARK    9  A    between atoms: N_17  and  C_26
REMARK   10  A    between atoms: C_18  and  C_19
REMARK   11  A    between atoms: C_19  and  C_20
REMARK   12  A    between atoms: C_26  and  C_27
REMARK   13  A    between atoms: C_32  and  C_33
REMARK   14  A    between atoms: C_32  and  C_34
REMARK                            x       y       z     vdW  Elec       q    Type
REMARK                         _______ _______ _______ _____ _____    ______ ____
ROOT
ATOM      1  C   UNL     1       4.127   5.680  19.661  0.00  0.00    +0.000 C 
ENDROOT
BRANCH   1   5
ATOM      2  N   UNL     1       2.061   7.430  20.524  0.00  0.00    +0.000 N 
ATOM      3  C   UNL     1       1.720   6.107  20.302  0.00  0.00    +0.000 C 
ATOM      4  O   UNL     1       0.627   5.626  20.604  0.00  0.00    +0.000 OA
ATOM      5  N   UNL     1       2.706   5.312  19.721  0.00  0.00    +0.000 N 
ATOM      6  H   UNL     1       2.990   7.758  20.314  0.00  0.00    +0.000 HD
BRANCH   2  12
ATOM      7  C   UNL     1       1.095   9.660  20.319  0.00  0.00    +0.000 A 
ATOM      8  C   UNL     1       0.234  10.659  20.803  0.00  0.00    +0.000 A 
ATOM      9  C   UNL     1      -0.465  10.480  21.994  0.00  0.00    +0.000 A 
ATOM     10  C   UNL     1      -0.334   9.294  22.705  0.00  0.00    +0.000 A 
ATOM     11  C   UNL     1       0.496   8.282  22.224  0.00  0.00    +0.000 A 
ATOM     12  C   UNL     1       1.221   8.451  21.040  0.00  0.00    +0.000 A 
BRANCH   7  13
ATOM     13  O   UNL     1       1.865   9.805  19.182  0.00  0.00    +0.000 OA
BRANCH  13  15
ATOM     14  C   UNL     1       2.170   8.266  17.346  0.00  0.00    +0.000 C 
ATOM     15  C   UNL     1       1.269   9.317  17.970  0.00  0.00    +0.000 C 
ENDBRANCH  13  15
ENDBRANCH   7  13
ENDBRANCH   2  12
BRANCH   5  16
ATOM     16  C   UNL     1       2.385   3.933  19.276  0.00  0.00    +0.000 C 
ATOM     17  C   UNL     1       1.878   3.019  20.397  0.00  0.00    +0.000 C 
ATOM     18  C   UNL     1       1.473   3.843  18.050  0.00  0.00    +0.000 C 
ENDBRANCH   5  16
ENDBRANCH   1   5
BRANCH   1  19
ATOM     19  C   UNL     1       4.990   4.707  18.825  0.00  0.00    +0.000 C 
ATOM     20  O   UNL     1       5.323   3.617  19.297  0.00  0.00    +0.000 OA
ATOM     21  N   UNL     1       5.329   5.061  17.513  0.00  0.00    +0.000 N 
BRANCH  21  22
ATOM     22  C   UNL     1       6.123   4.109  16.711  0.00  0.00    +0.000 C 
BRANCH  22  23
ATOM     23  C   UNL     1       5.431   3.570  15.451  0.00  0.00    +0.000 C 
BRANCH  23  24
ATOM     24  C   UNL     1       6.176   3.989  14.200  0.00  0.00    +0.000 A 
ATOM     25  C   UNL     1       5.910   3.367  12.971  0.00  0.00    +0.000 A 
ATOM     26  C   UNL     1       6.610   3.739  11.820  0.00  0.00    +0.000 A 
ATOM     27  C   UNL     1       7.586   4.732  11.885  0.00  0.00    +0.000 A 
ATOM     28  C   UNL     1       7.865   5.352  13.102  0.00  0.00    +0.000 A 
ATOM     29  C   UNL     1       7.166   4.981  14.254  0.00  0.00    +0.000 A 
ENDBRANCH  23  24
ENDBRANCH  22  23
ENDBRANCH  21  22
BRANCH  21  30
ATOM     30  C   UNL     1       5.395   6.458  17.071  0.00  0.00    +0.000 C 
BRANCH  30  31
ATOM     31  C   UNL     1       6.632   7.128  17.565  0.00  0.00    +0.000 A 
ATOM     32  C   UNL     1       7.681   6.766  18.392  0.00  0.00    +0.000 A 
ATOM     33  C   UNL     1       8.546   7.881  18.467  0.00  0.00    +0.000 A 
ATOM     34  C   UNL     1       7.964   8.865  17.703  0.00  0.00    +0.000 A 
ATOM     35  O   UNL     1       6.805   8.419  17.156  0.00  0.00    +0.000 OA
ENDBRANCH  30  31
ENDBRANCH  21  30
ENDBRANCH   1  19
TORSDOF 11
ENDMDL
MODEL 4
REMARK VINA RESULT:      -7.3      1.372      3.011
REMARK  Name = 
REMARK  14 active torsions:
REMARK  status: ('A' for Active; 'I' for Inactive)
REMARK    1  A    between atoms: C_1  and  C_2
REMARK    2  A    between atoms: C_2  and  O_3
REMARK    3  A    between atoms: O_3  and  C_4
REMARK    4  A    between atoms: C_9  and  N_10
REMARK    5  A    between atoms: N_13  and  C_14
REMARK    6  A    between atoms: N_13  and  C_32
REMARK    7  A    between atoms: C_14  and  C_15
REMARK    8  A    between atoms: N_17  and  C_18
REMARK    9  A    between atoms: N_17  and  C_26
REMARK   10  A    between atoms: C_18  and  C_19
REMARK   11  A    between atoms: C_19  and  C_20
REMARK   12  A    between atoms: C_26  and  C_27
REMARK   13  A    between atoms: C_32  and  C_33
REMARK   14  A    between atoms: C_32  and  C_34
REMARK                            x       y       z     vdW  Elec       q    Type
REMARK                         _______ _______ _______ _____ _____    ______ ____
ROOT
ATOM      1  C   UNL     1       0.964  10.113  18.296  0.00  0.00    +0.000 C 
ENDROOT
BRANCH   1   5
ATOM      2  N   UNL     1      -1.647  11.200  18.563  0.00  0.00    +0.000 N 
ATOM      3  C   UNL     1      -0.582  12.074  18.684  0.00  0.00    +0.000 C 
ATOM      4  O   UNL     1      -0.708  13.298  18.744  0.00  0.00    +0.000 OA
ATOM      5  N   UNL     1       0.684  11.492  18.717  0.00  0.00    +0.000 N 
ATOM      6  H   UNL     1      -1.485  10.211  18.457  0.00  0.00    +0.000 HD
BRANCH   2  12
ATOM      7  C   UNL     1      -3.855  11.033  17.539  0.00  0.00    +0.000 A 
ATOM      8  C   UNL     1      -5.229  11.324  17.562  0.00  0.00    +0.000 A 
ATOM      9  C   UNL     1      -5.770  12.121  18.568  0.00  0.00    +0.000 A 
ATOM     10  C   UNL     1      -4.953  12.618  19.576  0.00  0.00    +0.000 A 
ATOM     11  C   UNL     1      -3.592  12.315  19.582  0.00  0.00    +0.000 A 
ATOM     12  C   UNL     1      -3.028  11.533  18.570  0.00  0.00    +0.000 A 
BRANCH   7  13
ATOM     13  O   UNL     1      -3.248  10.305  16.534  0.00  0.00    +0.000 OA
BRANCH  13  15
ATOM     14  C   UNL     1      -3.582   9.906  14.177  0.00  0.00    +0.000 C 
ATOM     15  C   UNL     1      -3.238  10.932  15.242  0.00  0.00    +0.000 C 
ENDBRANCH  13  15
ENDBRANCH   7  13
ENDBRANCH   2  12
BRANCH   5  16
ATOM     16  C   UNL     1       1.877  12.319  19.025  0.00  0.00    +0.000 C 
ATOM     17  C   UNL     1       2.225  13.342  17.937  0.00  0.00    +0.000 C 
ATOM     18  C   UNL     1       1.869  12.980  20.406  0.00  0.00    +0.000 C 
ENDBRANCH   5  16
ENDBRANCH   1   5
BRANCH   1  19
ATOM     19  C   UNL     1       1.306   9.159  19.463  0.00  0.00    +0.000 C 
ATOM     20  O   UNL     1       0.938   9.431  20.609  0.00  0.00    +0.000 OA
ATOM     21  N   UNL     1       1.982   7.965  19.185  0.00  0.00    +0.000 N 
BRANCH  21  22
ATOM     22  C   UNL     1       2.272   7.044  20.303  0.00  0.00    +0.000 C 
BRANCH  22  23
ATOM     23  C   UNL     1       1.102   6.152  20.742  0.00  0.00    +0.000 C 
BRANCH  23  24
ATOM     24  C   UNL     1       1.433   4.686  20.547  0.00  0.00    +0.000 A 
ATOM     25  C   UNL     1       2.554   4.120  21.172  0.00  0.00    +0.000 A 
ATOM     26  C   UNL     1       2.871   2.772  20.977  0.00  0.00    +0.000 A 
ATOM     27  C   UNL     1       2.077   1.979  20.151  0.00  0.00    +0.000 A 
ATOM     28  C   UNL     1       0.966   2.532  19.518  0.00  0.00    +0.000 A 
ATOM     29  C   UNL     1       0.647   3.879  19.712  0.00  0.00    +0.000 A 
ENDBRANCH  23  24
ENDBRANCH  22  23
ENDBRANCH  21  22
BRANCH  21  30
ATOM     30  C   UNL     1       2.840   7.808  18.006  0.00  0.00    +0.000 C 
BRANCH  30  31
ATOM     31  C   UNL     1       3.421   6.436  17.934  0.00  0.00    +0.000 A 
ATOM     32  C   UNL     1       2.976   5.205  17.485  0.00  0.00    +0.000 A 
ATOM     33  C   UNL     1       4.025   4.285  17.710  0.00  0.00    +0.000 A 
ATOM     34  C   UNL     1       5.038   5.001  18.304  0.00  0.00    +0.000 A 
ATOM     35  O   UNL     1       4.679   6.303  18.446  0.00  0.00    +0.000 OA
ENDBRANCH  30  31
ENDBRANCH  21  30
ENDBRANCH   1  19
TORSDOF 11
ENDMDL
MODEL 5
REMARK VINA RESULT:      -7.3      1.378      3.110
REMARK  Name = 
REMARK  14 active torsions:
REMARK  status: ('A' for Active; 'I' for Inactive)
REMARK    1  A    between atoms: C_1  and  C_2
REMARK    2  A    between atoms: C_2  and  O_3
REMARK    3  A    between atoms: O_3  and  C_4
REMARK    4  A    between atoms: C_9  and  N_10
REMARK    5  A    between atoms: N_13  and  C_14
REMARK    6  A    between atoms: N_13  and  C_32
REMARK    7  A    between atoms: C_14  and  C_15
REMARK    8  A    between atoms: N_17  and  C_18
REMARK    9  A    between atoms: N_17  and  C_26
REMARK   10  A    between atoms: C_18  and  C_19
REMARK   11  A    between atoms: C_19  and  C_20
REMARK   12  A    between atoms: C_26  and  C_27
REMARK   13  A    between atoms: C_32  and  C_33
REMARK   14  A    between atoms: C_32  and  C_34
REMARK                            x       y       z     vdW  Elec       q    Type
REMARK                         _______ _______ _______ _____ _____    ______ ____
ROOT
ATOM      1  C   UNL     1       0.687  10.202  18.276  0.00  0.00    +0.000 C 
ENDROOT
BRANCH   1   5
ATOM      2  N   UNL     1      -1.933  11.236  18.654  0.00  0.00    +0.000 N 
ATOM      3  C   UNL     1      -0.888  12.143  18.647  0.00  0.00    +0.000 C 
ATOM      4  O   UNL     1      -1.047  13.365  18.639  0.00  0.00    +0.000 OA
ATOM      5  N   UNL     1       0.394  11.598  18.629  0.00  0.00    +0.000 N 
ATOM      6  H   UNL     1      -1.748  10.247  18.599  0.00  0.00    +0.000 HD
BRANCH   2  12
ATOM      7  C   UNL     1      -4.189  10.994  17.759  0.00  0.00    +0.000 A 
ATOM      8  C   UNL     1      -5.567  11.250  17.856  0.00  0.00    +0.000 A 
ATOM      9  C   UNL     1      -6.071  12.048  18.879  0.00  0.00    +0.000 A 
ATOM     10  C   UNL     1      -5.213  12.582  19.832  0.00  0.00    +0.000 A 
ATOM     11  C   UNL     1      -3.846  12.316  19.765  0.00  0.00    +0.000 A 
ATOM     12  C   UNL     1      -3.319  11.532  18.734  0.00  0.00    +0.000 A 
BRANCH   7  13
ATOM     13  O   UNL     1      -3.620  10.267  16.732  0.00  0.00    +0.000 OA
BRANCH  13  15
ATOM     14  C   UNL     1      -3.038  10.017  14.402  0.00  0.00    +0.000 C 
ATOM     15  C   UNL     1      -3.423  10.987  15.505  0.00  0.00    +0.000 C 
ENDBRANCH  13  15
ENDBRANCH   7  13
ENDBRANCH   2  12
BRANCH   5  16
ATOM     16  C   UNL     1       1.579  12.473  18.803  0.00  0.00    +0.000 C 
ATOM     17  C   UNL     1       1.957  12.729  20.266  0.00  0.00    +0.000 C 
ATOM     18  C   UNL     1       2.811  12.066  17.990  0.00  0.00    +0.000 C 
ENDBRANCH   5  16
ENDBRANCH   1   5
BRANCH   1  19
ATOM     19  C   UNL     1       1.094   9.324  19.482  0.00  0.00    +0.000 C 
ATOM     20  O   UNL     1       0.718   9.624  20.618  0.00  0.00    +0.000 OA
ATOM     21  N   UNL     1       1.839   8.161  19.251  0.00  0.00    +0.000 N 
BRANCH  21  22
ATOM     22  C   UNL     1       2.191   7.310  20.406  0.00  0.00    +0.000 C 
BRANCH  22  23
ATOM     23  C   UNL     1       1.069   6.397  20.919  0.00  0.00    +0.000 C 
BRANCH  23  24
ATOM     24  C   UNL     1       1.405   4.939  20.685  0.00  0.00    +0.000 A 
ATOM     25  C   UNL     1       0.590   4.142  19.867  0.00  0.00    +0.000 A 
ATOM     26  C   UNL     1       0.888   2.792  19.666  0.00  0.00    +0.000 A 
ATOM     27  C   UNL     1       1.999   2.221  20.284  0.00  0.00    +0.000 A 
ATOM     28  C   UNL     1       2.812   2.999  21.105  0.00  0.00    +0.000 A 
ATOM     29  C   UNL     1       2.515   4.350  21.308  0.00  0.00    +0.000 A 
ENDBRANCH  23  24
ENDBRANCH  22  23
ENDBRANCH  21  22
BRANCH  21  30
ATOM     30  C   UNL     1       2.698   8.003  18.073  0.00  0.00    +0.000 C 
BRANCH  30  31
ATOM     31  C   UNL     1       3.324   6.651  18.032  0.00  0.00    +0.000 A 
ATOM     32  C   UNL     1       4.553   6.127  18.391  0.00  0.00    +0.000 A 
ATOM     33  C   UNL     1       4.516   4.748  18.082  0.00  0.00    +0.000 A 
ATOM     34  C   UNL     1       3.278   4.516  17.530  0.00  0.00    +0.000 A 
ATOM     35  O   UNL     1       2.551   5.662  17.493  0.00  0.00    +0.000 OA
ENDBRANCH  30  31
ENDBRANCH  21  30
ENDBRANCH   1  19
TORSDOF 11
ENDMDL
MODEL 6
REMARK VINA RESULT:      -7.2      2.911      6.310
REMARK  Name = 
REMARK  14 active torsions:
REMARK  status: ('A' for Active; 'I' for Inactive)
REMARK    1  A    between atoms: C_1  and  C_2
REMARK    2  A    between atoms: C_2  and  O_3
REMARK    3  A    between atoms: O_3  and  C_4
REMARK    4  A    between atoms: C_9  and  N_10
REMARK    5  A    between atoms: N_13  and  C_14
REMARK    6  A    between atoms: N_13  and  C_32
REMARK    7  A    between atoms: C_14  and  C_15
REMARK    8  A    between atoms: N_17  and  C_18
REMARK    9  A    between atoms: N_17  and  C_26
REMARK   10  A    between atoms: C_18  and  C_19
REMARK   11  A    between atoms: C_19  and  C_20
REMARK   12  A    between atoms: C_26  and  C_27
REMARK   13  A    between atoms: C_32  and  C_33
REMARK   14  A    between atoms: C_32  and  C_34
REMARK                            x       y       z     vdW  Elec       q    Type
REMARK                         _______ _______ _______ _____ _____    ______ ____
ROOT
ATOM      1  C   UNL     1       4.170   5.849  19.621  0.00  0.00    +0.000 C 
ENDROOT
BRANCH   1   5
ATOM      2  N   UNL     1       2.091   7.521  20.600  0.00  0.00    +0.000 N 
ATOM      3  C   UNL     1       1.770   6.203  20.329  0.00  0.00    +0.000 C 
ATOM      4  O   UNL     1       0.692   5.689  20.633  0.00  0.00    +0.000 OA
ATOM      5  N   UNL     1       2.757   5.452  19.695  0.00  0.00    +0.000 N 
ATOM      6  H   UNL     1       3.009   7.876  20.385  0.00  0.00    +0.000 HD
BRANCH   2  12
ATOM      7  C   UNL     1       0.502   9.350  20.322  0.00  0.00    +0.000 A 
ATOM      8  C   UNL     1      -0.369  10.298  20.886  0.00  0.00    +0.000 A 
ATOM      9  C   UNL     1      -0.481  10.427  22.267  0.00  0.00    +0.000 A 
ATOM     10  C   UNL     1       0.255   9.599  23.105  0.00  0.00    +0.000 A 
ATOM     11  C   UNL     1       1.104   8.635  22.561  0.00  0.00    +0.000 A 
ATOM     12  C   UNL     1       1.244   8.504  21.176  0.00  0.00    +0.000 A 
BRANCH   7  13
ATOM     13  O   UNL     1       0.707   9.219  18.963  0.00  0.00    +0.000 OA
BRANCH  13  15
ATOM     14  C   UNL     1      -1.131   9.855  17.532  0.00  0.00    +0.000 C 
ATOM     15  C   UNL     1       0.184  10.286  18.156  0.00  0.00    +0.000 C 
ENDBRANCH  13  15
ENDBRANCH   7  13
ENDBRANCH   2  12
BRANCH   5  16
ATOM     16  C   UNL     1       2.452   4.087  19.198  0.00  0.00    +0.000 C 
ATOM     17  C   UNL     1       2.020   3.107  20.295  0.00  0.00    +0.000 C 
ATOM     18  C   UNL     1       1.488   4.029  18.010  0.00  0.00    +0.000 C 
ENDBRANCH   5  16
ENDBRANCH   1   5
BRANCH   1  19
ATOM     19  C   UNL     1       5.049   4.881  18.796  0.00  0.00    +0.000 C 
ATOM     20  O   UNL     1       5.413   3.809  19.286  0.00  0.00    +0.000 OA
ATOM     21  N   UNL     1       5.369   5.218  17.475  0.00  0.00    +0.000 N 
BRANCH  21  22
ATOM     22  C   UNL     1       6.180   4.269  16.685  0.00  0.00    +0.000 C 
BRANCH  22  23
ATOM     23  C   UNL     1       5.469   3.640  15.479  0.00  0.00    +0.000 C 
BRANCH  23  24
ATOM     24  C   UNL     1       6.170   4.001  14.185  0.00  0.00    +0.000 A 
ATOM     25  C   UNL     1       5.811   3.375  12.982  0.00  0.00    +0.000 A 
ATOM     26  C   UNL     1       6.470   3.693  11.791  0.00  0.00    +0.000 A 
ATOM     27  C   UNL     1       7.498   4.634  11.790  0.00  0.00    +0.000 A 
ATOM     28  C   UNL     1       7.870   5.256  12.980  0.00  0.00    +0.000 A 
ATOM     29  C   UNL     1       7.212   4.939  14.172  0.00  0.00    +0.000 A 
ENDBRANCH  23  24
ENDBRANCH  22  23
ENDBRANCH  21  22
BRANCH  21  30
ATOM     30  C   UNL     1       5.398   6.607  17.006  0.00  0.00    +0.000 C 
BRANCH  30  31
ATOM     31  C   UNL     1       6.603   7.327  17.509  0.00  0.00    +0.000 A 
ATOM     32  C   UNL     1       7.148   8.583  17.311  0.00  0.00    +0.000 A 
ATOM     33  C   UNL     1       8.330   8.642  18.085  0.00  0.00    +0.000 A 
ATOM     34  C   UNL     1       8.449   7.413  18.690  0.00  0.00    +0.000 A 
ATOM     35  O   UNL     1       7.410   6.610  18.344  0.00  0.00    +0.000 OA
ENDBRANCH  30  31
ENDBRANCH  21  30
ENDBRANCH   1  19
TORSDOF 11
ENDMDL
MODEL 7
REMARK VINA RESULT:      -7.2      2.975      5.477
REMARK  Name = 
REMARK  14 active torsions:
REMARK  status: ('A' for Active; 'I' for Inactive)
REMARK    1  A    between atoms: C_1  and  C_2
REMARK    2  A    between atoms: C_2  and  O_3
REMARK    3  A    between atoms: O_3  and  C_4
REMARK    4  A    between atoms: C_9  and  N_10
REMARK    5  A    between atoms: N_13  and  C_14
REMARK    6  A    between atoms: N_13  and  C_32
REMARK    7  A    between atoms: C_14  and  C_15
REMARK    8  A    between atoms: N_17  and  C_18
REMARK    9  A    between atoms: N_17  and  C_26
REMARK   10  A    between atoms: C_18  and  C_19
REMARK   11  A    between atoms: C_19  and  C_20
REMARK   12  A    between atoms: C_26  and  C_27
REMARK   13  A    between atoms: C_32  and  C_33
REMARK   14  A    between atoms: C_32  and  C_34
REMARK                            x       y       z     vdW  Elec       q    Type
REMARK                         _______ _______ _______ _____ _____    ______ ____
ROOT
ATOM      1  C   UNL     1       3.341   6.417  19.930  0.00  0.00    +0.000 C 
ENDROOT
BRANCH   1   5
ATOM      2  N   UNL     1       1.493   8.575  19.931  0.00  0.00    +0.000 N 
ATOM      3  C   UNL     1       1.060   7.370  20.454  0.00  0.00    +0.000 C 
ATOM      4  O   UNL     1      -0.009   7.231  21.051  0.00  0.00    +0.000 OA
ATOM      5  N   UNL     1       1.922   6.288  20.289  0.00  0.00    +0.000 N 
ATOM      6  H   UNL     1       2.403   8.648  19.505  0.00  0.00    +0.000 HD
BRANCH   2  12
ATOM      7  C   UNL     1       0.760  10.599  21.080  0.00  0.00    +0.000 A 
ATOM      8  C   UNL     1       0.089  11.833  21.055  0.00  0.00    +0.000 A 
ATOM      9  C   UNL     1      -0.577  12.257  19.909  0.00  0.00    +0.000 A 
ATOM     10  C   UNL     1      -0.564  11.469  18.765  0.00  0.00    +0.000 A 
ATOM     11  C   UNL     1       0.120  10.254  18.765  0.00  0.00    +0.000 A 
ATOM     12  C   UNL     1       0.778   9.802  19.912  0.00  0.00    +0.000 A 
BRANCH   7  13
ATOM     13  O   UNL     1       1.381  10.092  22.204  0.00  0.00    +0.000 OA
BRANCH  13  15
ATOM     14  C   UNL     1      -0.821  10.206  23.187  0.00  0.00    +0.000 C 
ATOM     15  C   UNL     1       0.508   9.473  23.162  0.00  0.00    +0.000 C 
ENDBRANCH  13  15
ENDBRANCH   7  13
ENDBRANCH   2  12
BRANCH   5  16
ATOM     16  C   UNL     1       1.479   4.919  20.650  0.00  0.00    +0.000 C 
ATOM     17  C   UNL     1       1.061   4.062  19.449  0.00  0.00    +0.000 C 
ATOM     18  C   UNL     1       2.437   4.145  21.559  0.00  0.00    +0.000 C 
ENDBRANCH   5  16
ENDBRANCH   1   5
BRANCH   1  19
ATOM     19  C   UNL     1       3.605   6.395  18.407  0.00  0.00    +0.000 C 
ATOM     20  O   UNL     1       2.812   6.940  17.635  0.00  0.00    +0.000 OA
ATOM     21  N   UNL     1       4.782   5.801  17.933  0.00  0.00    +0.000 N 
BRANCH  21  22
ATOM     22  C   UNL     1       5.042   5.817  16.479  0.00  0.00    +0.000 C 
BRANCH  22  23
ATOM     23  C   UNL     1       6.488   5.516  16.064  0.00  0.00    +0.000 C 
BRANCH  23  24
ATOM     24  C   UNL     1       6.544   4.937  14.666  0.00  0.00    +0.000 A 
ATOM     25  C   UNL     1       5.604   3.981  14.252  0.00  0.00    +0.000 A 
ATOM     26  C   UNL     1       5.666   3.432  12.969  0.00  0.00    +0.000 A 
ATOM     27  C   UNL     1       6.671   3.826  12.087  0.00  0.00    +0.000 A 
ATOM     28  C   UNL     1       7.616   4.767  12.489  0.00  0.00    +0.000 A 
ATOM     29  C   UNL     1       7.556   5.318  13.772  0.00  0.00    +0.000 A 
ENDBRANCH  23  24
ENDBRANCH  22  23
ENDBRANCH  21  22
BRANCH  21  30
ATOM     30  C   UNL     1       5.489   4.758  18.684  0.00  0.00    +0.000 C 
BRANCH  30  31
ATOM     31  C   UNL     1       4.756   3.461  18.639  0.00  0.00    +0.000 A 
ATOM     32  C   UNL     1       3.906   2.845  17.737  0.00  0.00    +0.000 A 
ATOM     33  C   UNL     1       3.539   1.604  18.305  0.00  0.00    +0.000 A 
ATOM     34  C   UNL     1       4.165   1.545  19.527  0.00  0.00    +0.000 A 
ATOM     35  O   UNL     1       4.901   2.666  19.739  0.00  0.00    +0.000 OA
ENDBRANCH  30  31
ENDBRANCH  21  30
ENDBRANCH   1  19
TORSDOF 11
ENDMDL
MODEL 8
REMARK VINA RESULT:      -7.2      1.960      9.057
REMARK  Name = 
REMARK  14 active torsions:
REMARK  status: ('A' for Active; 'I' for Inactive)
REMARK    1  A    between atoms: C_1  and  C_2
REMARK    2  A    between atoms: C_2  and  O_3
REMARK    3  A    between atoms: O_3  and  C_4
REMARK    4  A    between atoms: C_9  and  N_10
REMARK    5  A    between atoms: N_13  and  C_14
REMARK    6  A    between atoms: N_13  and  C_32
REMARK    7  A    between atoms: C_14  and  C_15
REMARK    8  A    between atoms: N_17  and  C_18
REMARK    9  A    between atoms: N_17  and  C_26
REMARK   10  A    between atoms: C_18  and  C_19
REMARK   11  A    between atoms: C_19  and  C_20
REMARK   12  A    between atoms: C_26  and  C_27
REMARK   13  A    between atoms: C_32  and  C_33
REMARK   14  A    between atoms: C_32  and  C_34
REMARK                            x       y       z     vdW  Elec       q    Type
REMARK                         _______ _______ _______ _____ _____    ______ ____
ROOT
ATOM      1  C   UNL     1       1.195   9.607  18.665  0.00  0.00    +0.000 C 
ENDROOT
BRANCH   1   5
ATOM      2  N   UNL     1       2.344   7.020  18.423  0.00  0.00    +0.000 N 
ATOM      3  C   UNL     1       1.792   7.356  19.646  0.00  0.00    +0.000 C 
ATOM      4  O   UNL     1       1.637   6.553  20.568  0.00  0.00    +0.000 OA
ATOM      5  N   UNL     1       1.389   8.683  19.790  0.00  0.00    +0.000 N 
ATOM      6  H   UNL     1       2.393   7.701  17.682  0.00  0.00    +0.000 HD
BRANCH   2  12
ATOM      7  C   UNL     1       4.274   5.663  17.803  0.00  0.00    +0.000 A 
ATOM      8  C   UNL     1       4.823   4.413  17.473  0.00  0.00    +0.000 A 
ATOM      9  C   UNL     1       4.011   3.288  17.358  0.00  0.00    +0.000 A 
ATOM     10  C   UNL     1       2.646   3.389  17.594  0.00  0.00    +0.000 A 
ATOM     11  C   UNL     1       2.090   4.617  17.948  0.00  0.00    +0.000 A 
ATOM     12  C   UNL     1       2.886   5.762  18.050  0.00  0.00    +0.000 A 
BRANCH   7  13
ATOM     13  O   UNL     1       5.015   6.827  17.867  0.00  0.00    +0.000 OA
BRANCH  13  15
ATOM     14  C   UNL     1       7.411   7.057  17.686  0.00  0.00    +0.000 C 
ATOM     15  C   UNL     1       6.101   6.916  16.932  0.00  0.00    +0.000 C 
ENDBRANCH  13  15
ENDBRANCH   7  13
ENDBRANCH   2  12
BRANCH   5  16
ATOM     16  C   UNL     1       0.955   9.191  21.115  0.00  0.00    +0.000 C 
ATOM     17  C   UNL     1      -0.367   8.591  21.609  0.00  0.00    +0.000 C 
ATOM     18  C   UNL     1       2.020   9.132  22.213  0.00  0.00    +0.000 C 
ENDBRANCH   5  16
ENDBRANCH   1   5
BRANCH   1  19
ATOM     19  C   UNL     1       0.730  11.019  19.090  0.00  0.00    +0.000 C 
ATOM     20  O   UNL     1       1.542  11.821  19.558  0.00  0.00    +0.000 OA
ATOM     21  N   UNL     1      -0.605  11.384  18.877  0.00  0.00    +0.000 N 
BRANCH  21  22
ATOM     22  C   UNL     1      -1.030  12.748  19.253  0.00  0.00    +0.000 C 
BRANCH  22  23
ATOM     23  C   UNL     1      -1.082  13.030  20.761  0.00  0.00    +0.000 C 
BRANCH  23  24
ATOM     24  C   UNL     1      -2.507  12.988  21.274  0.00  0.00    +0.000 A 
ATOM     25  C   UNL     1      -2.766  12.856  22.646  0.00  0.00    +0.000 A 
ATOM     26  C   UNL     1      -4.080  12.798  23.119  0.00  0.00    +0.000 A 
ATOM     27  C   UNL     1      -5.148  12.863  22.226  0.00  0.00    +0.000 A 
ATOM     28  C   UNL     1      -4.903  12.985  20.860  0.00  0.00    +0.000 A 
ATOM     29  C   UNL     1      -3.590  13.044  20.385  0.00  0.00    +0.000 A 
ENDBRANCH  23  24
ENDBRANCH  22  23
ENDBRANCH  21  22
BRANCH  21  30
ATOM     30  C   UNL     1      -1.683  10.393  18.794  0.00  0.00    +0.000 C 
BRANCH  30  31
ATOM     31  C   UNL     1      -2.496  10.574  17.557  0.00  0.00    +0.000 A 
ATOM     32  C   UNL     1      -3.720  11.146  17.262  0.00  0.00    +0.000 A 
ATOM     33  C   UNL     1      -3.928  10.976  15.875  0.00  0.00    +0.000 A 
ATOM     34  C   UNL     1      -2.831  10.289  15.408  0.00  0.00    +0.000 A 
ATOM     35  O   UNL     1      -1.961  10.039  16.420  0.00  0.00    +0.000 OA
ENDBRANCH  30  31
ENDBRANCH  21  30
ENDBRANCH   1  19
TORSDOF 11
ENDMDL
MODEL 9
REMARK VINA RESULT:      -7.2      1.066      2.298
REMARK  Name = 
REMARK  14 active torsions:
REMARK  status: ('A' for Active; 'I' for Inactive)
REMARK    1  A    between atoms: C_1  and  C_2
REMARK    2  A    between atoms: C_2  and  O_3
REMARK    3  A    between atoms: O_3  and  C_4
REMARK    4  A    between atoms: C_9  and  N_10
REMARK    5  A    between atoms: N_13  and  C_14
REMARK    6  A    between atoms: N_13  and  C_32
REMARK    7  A    between atoms: C_14  and  C_15
REMARK    8  A    between atoms: N_17  and  C_18
REMARK    9  A    between atoms: N_17  and  C_26
REMARK   10  A    between atoms: C_18  and  C_19
REMARK   11  A    between atoms: C_19  and  C_20
REMARK   12  A    between atoms: C_26  and  C_27
REMARK   13  A    between atoms: C_32  and  C_33
REMARK   14  A    between atoms: C_32  and  C_34
REMARK                            x       y       z     vdW  Elec       q    Type
REMARK                         _______ _______ _______ _____ _____    ______ ____
ROOT
ATOM      1  C   UNL     1       0.803  10.062  19.959  0.00  0.00    +0.000 C 
ENDROOT
BRANCH   1   5
ATOM      2  N   UNL     1      -1.639  11.133  18.977  0.00  0.00    +0.000 N 
ATOM      3  C   UNL     1      -0.504  11.913  18.841  0.00  0.00    +0.000 C 
ATOM      4  O   UNL     1      -0.471  12.959  18.190  0.00  0.00    +0.000 OA
ATOM      5  N   UNL     1       0.641  11.440  19.478  0.00  0.00    +0.000 N 
ATOM      6  H   UNL     1      -1.597  10.256  19.470  0.00  0.00    +0.000 HD
BRANCH   2  12
ATOM      7  C   UNL     1      -3.840  12.129  19.310  0.00  0.00    +0.000 A 
ATOM      8  C   UNL     1      -5.113  12.456  18.812  0.00  0.00    +0.000 A 
ATOM      9  C   UNL     1      -5.496  12.066  17.532  0.00  0.00    +0.000 A 
ATOM     10  C   UNL     1      -4.610  11.367  16.722  0.00  0.00    +0.000 A 
ATOM     11  C   UNL     1      -3.334  11.058  17.193  0.00  0.00    +0.000 A 
ATOM     12  C   UNL     1      -2.937  11.424  18.482  0.00  0.00    +0.000 A 
BRANCH   7  13
ATOM     13  O   UNL     1      -3.425  12.428  20.593  0.00  0.00    +0.000 OA
BRANCH  13  15
ATOM     14  C   UNL     1      -4.068  13.923  22.376  0.00  0.00    +0.000 C 
ATOM     15  C   UNL     1      -4.475  12.736  21.522  0.00  0.00    +0.000 C 
ENDBRANCH  13  15
ENDBRANCH   7  13
ENDBRANCH   2  12
BRANCH   5  16
ATOM     16  C   UNL     1       1.859  12.286  19.548  0.00  0.00    +0.000 C 
ATOM     17  C   UNL     1       2.457  12.632  18.180  0.00  0.00    +0.000 C 
ATOM     18  C   UNL     1       1.727  13.542  20.414  0.00  0.00    +0.000 C 
ENDBRANCH   5  16
ENDBRANCH   1   5
BRANCH   1  19
ATOM     19  C   UNL     1       1.289   9.074  18.873  0.00  0.00    +0.000 C 
ATOM     20  O   UNL     1       1.125   9.340  17.679  0.00  0.00    +0.000 OA
ATOM     21  N   UNL     1       1.965   7.913  19.269  0.00  0.00    +0.000 N 
BRANCH  21  22
ATOM     22  C   UNL     1       2.457   6.994  18.222  0.00  0.00    +0.000 C 
BRANCH  22  23
ATOM     23  C   UNL     1       3.793   7.385  17.576  0.00  0.00    +0.000 C 
BRANCH  23  24
ATOM     24  C   UNL     1       4.458   6.186  16.933  0.00  0.00    +0.000 A 
ATOM     25  C   UNL     1       5.480   6.360  15.987  0.00  0.00    +0.000 A 
ATOM     26  C   UNL     1       6.081   5.254  15.379  0.00  0.00    +0.000 A 
ATOM     27  C   UNL     1       5.664   3.965  15.704  0.00  0.00    +0.000 A 
ATOM     28  C   UNL     1       4.644   3.779  16.635  0.00  0.00    +0.000 A 
ATOM     29  C   UNL     1       4.042   4.883  17.245  0.00  0.00    +0.000 A 
ENDBRANCH  23  24
ENDBRANCH  22  23
ENDBRANCH  21  22
BRANCH  21  30
ATOM     30  C   UNL     1       1.776   7.310  20.592  0.00  0.00    +0.000 C 
BRANCH  30  31
ATOM     31  C   UNL     1       1.902   5.825  20.538  0.00  0.00    +0.000 A 
ATOM     32  C   UNL     1       2.957   4.931  20.496  0.00  0.00    +0.000 A 
ATOM     33  C   UNL     1       2.393   3.636  20.444  0.00  0.00    +0.000 A 
ATOM     34  C   UNL     1       1.030   3.816  20.433  0.00  0.00    +0.000 A 
ATOM     35  O   UNL     1       0.724   5.137  20.486  0.00  0.00    +0.000 OA
ENDBRANCH  30  31
ENDBRANCH  21  30
ENDBRANCH   1  19
TORSDOF 11
ENDMDL
