MODEL 1
REMARK VINA RESULT:      -8.0      0.000      0.000
REMARK  Name = 
REMARK  8 active torsions:
REMARK  status: ('A' for Active; 'I' for Inactive)
REMARK    1  A    between atoms: C_1  and  C_2
REMARK    2  A    between atoms: N_4  and  C_5
REMARK    3  A    between atoms: C_5  and  C_6
REMARK    4  A    between atoms: C_9  and  O_10
REMARK    5  A    between atoms: O_10  and  C_11
REMARK    6  A    between atoms: C_11  and  C_12
REMARK    7  A    between atoms: C_12  and  C_13
REMARK    8  A    between atoms: C_13  and  N_14
REMARK                            x       y       z     vdW  Elec       q    Type
REMARK                         _______ _______ _______ _____ _____    ______ ____
ROOT
ATOM      1  C   UNL     1       5.271   4.522  17.701  0.00  0.00    +0.000 A 
ATOM      2  C   UNL     1       4.940   5.302  16.592  0.00  0.00    +0.000 A 
ATOM      3  C   UNL     1       5.607   6.498  16.347  0.00  0.00    +0.000 A 
ATOM      4  C   UNL     1       6.632   6.934  17.190  0.00  0.00    +0.000 A 
ATOM      5  C   UNL     1       6.917   6.198  18.342  0.00  0.00    +0.000 A 
ATOM      6  C   UNL     1       6.241   4.997  18.597  0.00  0.00    +0.000 A 
ENDROOT
BRANCH   1   7
ATOM      7  C   UNL     1       4.636   3.159  17.850  0.00  0.00    +0.000 C 
BRANCH   7  11
ATOM      8  C   UNL     1       0.649   4.660  20.387  0.00  0.00    +0.000 C 
ATOM      9  C   UNL     1       1.889   3.839  20.241  0.00  0.00    +0.000 A 
ATOM     10  C   UNL     1       2.684   3.863  19.166  0.00  0.00    +0.000 A 
ATOM     11  N   UNL     1       3.812   3.074  19.061  0.00  0.00    +0.000 N 
ATOM     12  C   UNL     1       4.212   2.231  20.089  0.00  0.00    +0.000 A 
ATOM     13  O   UNL     1       5.206   1.504  20.051  0.00  0.00    +0.000 OA
ATOM     14  N   UNL     1       3.408   2.230  21.197  0.00  0.00    +0.000 N 
ATOM     15  C   UNL     1       2.256   2.941  21.361  0.00  0.00    +0.000 A 
ATOM     16  O   UNL     1       1.563   2.843  22.367  0.00  0.00    +0.000 OA
ATOM     17  H   UNL     1       3.679   1.616  21.953  0.00  0.00    +0.000 HD
ENDBRANCH   7  11
ENDBRANCH   1   7
BRANCH   4  18
ATOM     18  O   UNL     1       7.418   8.041  16.956  0.00  0.00    +0.000 OA
BRANCH  18  19
ATOM     19  C   UNL     1       8.244   8.387  18.072  0.00  0.00    +0.000 C 
BRANCH  19  20
ATOM     20  C   UNL     1       8.604   9.867  18.095  0.00  0.00    +0.000 C 
BRANCH  20  21
ATOM     21  C   UNL     1       9.231  10.235  19.453  0.00  0.00    +0.000 C 
BRANCH  21  22
ATOM     22  N   UNL     1      10.341  11.201  19.344  0.00  0.00    +0.000 NA
ATOM     23  C   UNL     1      10.642  11.535  17.944  0.00  0.00    +0.000 C 
ATOM     24  C   UNL     1      11.851  12.462  17.839  0.00  0.00    +0.000 C 
ATOM     25  C   UNL     1      11.638  13.733  18.647  0.00  0.00    +0.000 C 
ATOM     26  C   UNL     1      11.259  13.388  20.082  0.00  0.00    +0.000 C 
ATOM     27  C   UNL     1      10.077  12.414  20.134  0.00  0.00    +0.000 C 
ENDBRANCH  21  22
ENDBRANCH  20  21
ENDBRANCH  19  20
ENDBRANCH  18  19
ENDBRANCH   4  18
TORSDOF 7
ENDMDL
MODEL 2
REMARK VINA RESULT:      -8.0      1.135      1.329
REMARK  Name = 
REMARK  8 active torsions:
REMARK  status: ('A' for Active; 'I' for Inactive)
REMARK    1  A    between atoms: C_1  and  C_2
REMARK    2  A    between atoms: N_4  and  C_5
REMARK    3  A    between atoms: C_5  and  C_6
REMARK    4  A    between atoms: C_9  and  O_10
REMARK    5  A    between atoms: O_10  and  C_11
REMARK    6  A    between atoms: C_11  and  C_12
REMARK    7  A    between atoms: C_12  and  C_13
REMARK    8  A    between atoms: C_13  and  N_14
REMARK                            x       y       z     vdW  Elec       q    Type
REMARK                         _______ _______ _______ _____ _____    ______ ____
ROOT
ATOM      1  C   UNL     1       4.656   4.557  16.811  0.00  0.00    +0.000 A 
ATOM      2  C   UNL     1       5.946   4.078  16.576  0.00  0.00    +0.000 A 
ATOM      3  C   UNL     1       7.031   4.947  16.573  0.00  0.00    +0.000 A 
ATOM      4  C   UNL     1       6.859   6.311  16.823  0.00  0.00    +0.000 A 
ATOM      5  C   UNL     1       5.564   6.809  16.984  0.00  0.00    +0.000 A 
ATOM      6  C   UNL     1       4.467   5.937  16.979  0.00  0.00    +0.000 A 
ENDROOT
BRANCH   1   7
ATOM      7  C   UNL     1       3.526   3.565  16.962  0.00  0.00    +0.000 C 
BRANCH   7  11
ATOM      8  C   UNL     1       1.537   5.707  20.966  0.00  0.00    +0.000 C 
ATOM      9  C   UNL     1       2.135   4.537  20.254  0.00  0.00    +0.000 A 
ATOM     10  C   UNL     1       2.555   4.563  18.986  0.00  0.00    +0.000 A 
ATOM     11  N   UNL     1       3.084   3.455  18.356  0.00  0.00    +0.000 N 
ATOM     12  C   UNL     1       3.248   2.246  19.021  0.00  0.00    +0.000 A 
ATOM     13  O   UNL     1       3.711   1.225  18.512  0.00  0.00    +0.000 OA
ATOM     14  N   UNL     1       2.839   2.233  20.328  0.00  0.00    +0.000 N 
ATOM     15  C   UNL     1       2.266   3.267  21.007  0.00  0.00    +0.000 A 
ATOM     16  O   UNL     1       1.877   3.156  22.164  0.00  0.00    +0.000 OA
ATOM     17  H   UNL     1       2.943   1.359  20.826  0.00  0.00    +0.000 HD
ENDBRANCH   7  11
ENDBRANCH   1   7
BRANCH   4  18
ATOM     18  O   UNL     1       7.888   7.218  16.952  0.00  0.00    +0.000 OA
BRANCH  18  19
ATOM     19  C   UNL     1       7.502   8.409  17.646  0.00  0.00    +0.000 C 
BRANCH  19  20
ATOM     20  C   UNL     1       8.664   9.054  18.389  0.00  0.00    +0.000 C 
BRANCH  20  21
ATOM     21  C   UNL     1       8.831  10.517  17.936  0.00  0.00    +0.000 C 
BRANCH  21  22
ATOM     22  N   UNL     1      10.060  11.153  18.448  0.00  0.00    +0.000 NA
ATOM     23  C   UNL     1      10.386  12.385  17.716  0.00  0.00    +0.000 C 
ATOM     24  C   UNL     1      11.708  12.983  18.192  0.00  0.00    +0.000 C 
ATOM     25  C   UNL     1      11.678  13.256  19.688  0.00  0.00    +0.000 C 
ATOM     26  C   UNL     1      11.273  11.998  20.445  0.00  0.00    +0.000 C 
ATOM     27  C   UNL     1       9.970  11.404  19.895  0.00  0.00    +0.000 C 
ENDBRANCH  21  22
ENDBRANCH  20  21
ENDBRANCH  19  20
ENDBRANCH  18  19
ENDBRANCH   4  18
TORSDOF 7
ENDMDL
MODEL 3
REMARK VINA RESULT:      -7.7      5.157      8.653
REMARK  Name = 
REMARK  8 active torsions:
REMARK  status: ('A' for Active; 'I' for Inactive)
REMARK    1  A    between atoms: C_1  and  C_2
REMARK    2  A    between atoms: N_4  and  C_5
REMARK    3  A    between atoms: C_5  and  C_6
REMARK    4  A    between atoms: C_9  and  O_10
REMARK    5  A    between atoms: O_10  and  C_11
REMARK    6  A    between atoms: C_11  and  C_12
REMARK    7  A    between atoms: C_12  and  C_13
REMARK    8  A    between atoms: C_13  and  N_14
REMARK                            x       y       z     vdW  Elec       q    Type
REMARK                         _______ _______ _______ _____ _____    ______ ____
ROOT
ATOM      1  C   UNL     1       3.681   4.840  18.992  0.00  0.00    +0.000 A 
ATOM      2  C   UNL     1       3.704   6.047  18.291  0.00  0.00    +0.000 A 
ATOM      3  C   UNL     1       2.940   7.127  18.721  0.00  0.00    +0.000 A 
ATOM      4  C   UNL     1       2.151   7.035  19.870  0.00  0.00    +0.000 A 
ATOM      5  C   UNL     1       2.064   5.809  20.533  0.00  0.00    +0.000 A 
ATOM      6  C   UNL     1       2.826   4.716  20.098  0.00  0.00    +0.000 A 
ENDROOT
BRANCH   1   7
ATOM      7  C   UNL     1       4.638   3.744  18.587  0.00  0.00    +0.000 C 
BRANCH   7  11
ATOM      8  C   UNL     1       5.441   4.113  13.709  0.00  0.00    +0.000 C 
ATOM      9  C   UNL     1       5.851   4.307  15.132  0.00  0.00    +0.000 A 
ATOM     10  C   UNL     1       5.106   3.952  16.184  0.00  0.00    +0.000 A 
ATOM     11  N   UNL     1       5.512   4.166  17.486  0.00  0.00    +0.000 N 
ATOM     12  C   UNL     1       6.744   4.731  17.784  0.00  0.00    +0.000 A 
ATOM     13  O   UNL     1       7.159   4.948  18.923  0.00  0.00    +0.000 OA
ATOM     14  N   UNL     1       7.514   5.069  16.702  0.00  0.00    +0.000 N 
ATOM     15  C   UNL     1       7.168   4.935  15.390  0.00  0.00    +0.000 A 
ATOM     16  O   UNL     1       7.895   5.313  14.479  0.00  0.00    +0.000 OA
ATOM     17  H   UNL     1       8.411   5.491  16.899  0.00  0.00    +0.000 HD
ENDBRANCH   7  11
ENDBRANCH   1   7
BRANCH   4  18
ATOM     18  O   UNL     1       1.458   8.087  20.429  0.00  0.00    +0.000 OA
BRANCH  18  19
ATOM     19  C   UNL     1       1.192   9.140  19.498  0.00  0.00    +0.000 C 
BRANCH  19  20
ATOM     20  C   UNL     1       0.381  10.272  20.114  0.00  0.00    +0.000 C 
BRANCH  20  21
ATOM     21  C   UNL     1      -0.217  11.156  19.002  0.00  0.00    +0.000 C 
BRANCH  21  22
ATOM     22  N   UNL     1      -1.622  10.831  18.687  0.00  0.00    +0.000 NA
ATOM     23  C   UNL     1      -2.474  12.030  18.684  0.00  0.00    +0.000 C 
ATOM     24  C   UNL     1      -3.940  11.670  18.449  0.00  0.00    +0.000 C 
ATOM     25  C   UNL     1      -4.113  10.901  17.148  0.00  0.00    +0.000 C 
ATOM     26  C   UNL     1      -3.180   9.697  17.120  0.00  0.00    +0.000 C 
ATOM     27  C   UNL     1      -1.731  10.100  17.415  0.00  0.00    +0.000 C 
ENDBRANCH  21  22
ENDBRANCH  20  21
ENDBRANCH  19  20
ENDBRANCH  18  19
ENDBRANCH   4  18
TORSDOF 7
ENDMDL
MODEL 4
REMARK VINA RESULT:      -7.6      1.239      1.602
REMARK  Name = 
REMARK  8 active torsions:
REMARK  status: ('A' for Active; 'I' for Inactive)
REMARK    1  A    between atoms: C_1  and  C_2
REMARK    2  A    between atoms: N_4  and  C_5
REMARK    3  A    between atoms: C_5  and  C_6
REMARK    4  A    between atoms: C_9  and  O_10
REMARK    5  A    between atoms: O_10  and  C_11
REMARK    6  A    between atoms: C_11  and  C_12
REMARK    7  A    between atoms: C_12  and  C_13
REMARK    8  A    between atoms: C_13  and  N_14
REMARK                            x       y       z     vdW  Elec       q    Type
REMARK                         _______ _______ _______ _____ _____    ______ ____
ROOT
ATOM      1  C   UNL     1       5.469   4.678  17.439  0.00  0.00    +0.000 A 
ATOM      2  C   UNL     1       5.999   4.645  18.730  0.00  0.00    +0.000 A 
ATOM      3  C   UNL     1       6.971   5.562  19.117  0.00  0.00    +0.000 A 
ATOM      4  C   UNL     1       7.423   6.544  18.232  0.00  0.00    +0.000 A 
ATOM      5  C   UNL     1       6.954   6.536  16.917  0.00  0.00    +0.000 A 
ATOM      6  C   UNL     1       5.981   5.609  16.522  0.00  0.00    +0.000 A 
ENDROOT
BRANCH   1   7
ATOM      7  C   UNL     1       4.308   3.771  17.104  0.00  0.00    +0.000 C 
BRANCH   7  11
ATOM      8  C   UNL     1       1.458   5.697  20.675  0.00  0.00    +0.000 C 
ATOM      9  C   UNL     1       2.085   4.541  19.966  0.00  0.00    +0.000 A 
ATOM     10  C   UNL     1       2.888   4.657  18.904  0.00  0.00    +0.000 A 
ATOM     11  N   UNL     1       3.432   3.562  18.262  0.00  0.00    +0.000 N 
ATOM     12  C   UNL     1       3.207   2.267  18.710  0.00  0.00    +0.000 A 
ATOM     13  O   UNL     1       3.664   1.253  18.180  0.00  0.00    +0.000 OA
ATOM     14  N   UNL     1       2.404   2.156  19.815  0.00  0.00    +0.000 N 
ATOM     15  C   UNL     1       1.792   3.180  20.475  0.00  0.00    +0.000 A 
ATOM     16  O   UNL     1       1.043   2.992  21.426  0.00  0.00    +0.000 OA
ATOM     17  H   UNL     1       2.222   1.221  20.150  0.00  0.00    +0.000 HD
ENDBRANCH   7  11
ENDBRANCH   1   7
BRANCH   4  18
ATOM     18  O   UNL     1       8.294   7.558  18.569  0.00  0.00    +0.000 OA
BRANCH  18  19
ATOM     19  C   UNL     1       8.297   8.631  17.624  0.00  0.00    +0.000 C 
BRANCH  19  20
ATOM     20  C   UNL     1       8.205   9.997  18.291  0.00  0.00    +0.000 C 
BRANCH  20  21
ATOM     21  C   UNL     1       9.490  10.277  19.094  0.00  0.00    +0.000 C 
BRANCH  21  22
ATOM     22  N   UNL     1      10.077  11.603  18.817  0.00  0.00    +0.000 NA
ATOM     23  C   UNL     1      11.456  11.498  18.319  0.00  0.00    +0.000 C 
ATOM     24  C   UNL     1      12.085  12.876  18.124  0.00  0.00    +0.000 C 
ATOM     25  C   UNL     1      11.251  13.729  17.180  0.00  0.00    +0.000 C 
ATOM     26  C   UNL     1       9.805  13.783  17.658  0.00  0.00    +0.000 C 
ATOM     27  C   UNL     1       9.236  12.378  17.891  0.00  0.00    +0.000 C 
ENDBRANCH  21  22
ENDBRANCH  20  21
ENDBRANCH  19  20
ENDBRANCH  18  19
ENDBRANCH   4  18
TORSDOF 7
ENDMDL
MODEL 5
REMARK VINA RESULT:      -7.6      5.730      9.238
REMARK  Name = 
REMARK  8 active torsions:
REMARK  status: ('A' for Active; 'I' for Inactive)
REMARK    1  A    between atoms: C_1  and  C_2
REMARK    2  A    between atoms: N_4  and  C_5
REMARK    3  A    between atoms: C_5  and  C_6
REMARK    4  A    between atoms: C_9  and  O_10
REMARK    5  A    between atoms: O_10  and  C_11
REMARK    6  A    between atoms: C_11  and  C_12
REMARK    7  A    between atoms: C_12  and  C_13
REMARK    8  A    between atoms: C_13  and  N_14
REMARK                            x       y       z     vdW  Elec       q    Type
REMARK                         _______ _______ _______ _____ _____    ______ ____
ROOT
ATOM      1  C   UNL     1       2.550   6.151  19.309  0.00  0.00    +0.000 A 
ATOM      2  C   UNL     1       2.616   6.786  18.068  0.00  0.00    +0.000 A 
ATOM      3  C   UNL     1       2.183   8.100  17.924  0.00  0.00    +0.000 A 
ATOM      4  C   UNL     1       1.693   8.817  19.017  0.00  0.00    +0.000 A 
ATOM      5  C   UNL     1       1.553   8.166  20.244  0.00  0.00    +0.000 A 
ATOM      6  C   UNL     1       1.981   6.839  20.391  0.00  0.00    +0.000 A 
ENDROOT
BRANCH   1   7
ATOM      7  C   UNL     1       3.172   4.782  19.461  0.00  0.00    +0.000 C 
BRANCH   7  11
ATOM      8  C   UNL     1       7.953   6.046  19.116  0.00  0.00    +0.000 C 
ATOM      9  C   UNL     1       6.737   5.333  18.621  0.00  0.00    +0.000 A 
ATOM     10  C   UNL     1       5.545   5.374  19.223  0.00  0.00    +0.000 A 
ATOM     11  N   UNL     1       4.449   4.684  18.746  0.00  0.00    +0.000 N 
ATOM     12  C   UNL     1       4.511   3.931  17.580  0.00  0.00    +0.000 A 
ATOM     13  O   UNL     1       3.568   3.294  17.107  0.00  0.00    +0.000 OA
ATOM     14  N   UNL     1       5.729   3.914  16.954  0.00  0.00    +0.000 N 
ATOM     15  C   UNL     1       6.868   4.527  17.384  0.00  0.00    +0.000 A 
ATOM     16  O   UNL     1       7.935   4.418  16.792  0.00  0.00    +0.000 OA
ATOM     17  H   UNL     1       5.796   3.364  16.109  0.00  0.00    +0.000 HD
ENDBRANCH   7  11
ENDBRANCH   1   7
BRANCH   4  18
ATOM     18  O   UNL     1       1.353  10.153  18.988  0.00  0.00    +0.000 OA
BRANCH  18  19
ATOM     19  C   UNL     1      -0.016  10.391  19.325  0.00  0.00    +0.000 C 
BRANCH  19  20
ATOM     20  C   UNL     1      -0.952  10.196  18.140  0.00  0.00    +0.000 C 
BRANCH  20  21
ATOM     21  C   UNL     1      -1.759  11.484  17.889  0.00  0.00    +0.000 C 
BRANCH  21  22
ATOM     22  N   UNL     1      -3.160  11.397  18.344  0.00  0.00    +0.000 NA
ATOM     23  C   UNL     1      -3.461  12.389  19.387  0.00  0.00    +0.000 C 
ATOM     24  C   UNL     1      -4.885  12.227  19.915  0.00  0.00    +0.000 C 
ATOM     25  C   UNL     1      -5.901  12.328  18.788  0.00  0.00    +0.000 C 
ATOM     26  C   UNL     1      -5.552  11.349  17.674  0.00  0.00    +0.000 C 
ATOM     27  C   UNL     1      -4.098  11.512  17.216  0.00  0.00    +0.000 C 
ENDBRANCH  21  22
ENDBRANCH  20  21
ENDBRANCH  19  20
ENDBRANCH  18  19
ENDBRANCH   4  18
TORSDOF 7
ENDMDL
MODEL 6
REMARK VINA RESULT:      -7.5      5.972      9.490
REMARK  Name = 
REMARK  8 active torsions:
REMARK  status: ('A' for Active; 'I' for Inactive)
REMARK    1  A    between atoms: C_1  and  C_2
REMARK    2  A    between atoms: N_4  and  C_5
REMARK    3  A    between atoms: C_5  and  C_6
REMARK    4  A    between atoms: C_9  and  O_10
REMARK    5  A    between atoms: O_10  and  C_11
REMARK    6  A    between atoms: C_11  and  C_12
REMARK    7  A    between atoms: C_12  and  C_13
REMARK    8  A    between atoms: C_13  and  N_14
REMARK                            x       y       z     vdW  Elec       q    Type
REMARK                         _______ _______ _______ _____ _____    ______ ____
ROOT
ATOM      1  C   UNL     1       2.632   6.468  19.136  0.00  0.00    +0.000 A 
ATOM      2  C   UNL     1       2.086   7.037  20.287  0.00  0.00    +0.000 A 
ATOM      3  C   UNL     1       1.544   8.317  20.252  0.00  0.00    +0.000 A 
ATOM      4  C   UNL     1       1.517   9.052  19.064  0.00  0.00    +0.000 A 
ATOM      5  C   UNL     1       2.128   8.520  17.927  0.00  0.00    +0.000 A 
ATOM      6  C   UNL     1       2.682   7.234  17.961  0.00  0.00    +0.000 A 
ENDROOT
BRANCH   1   7
ATOM      7  C   UNL     1       3.068   5.022  19.174  0.00  0.00    +0.000 C 
BRANCH   7  11
ATOM      8  C   UNL     1       7.947   5.899  19.291  0.00  0.00    +0.000 C 
ATOM      9  C   UNL     1       6.727   5.301  18.667  0.00  0.00    +0.000 A 
ATOM     10  C   UNL     1       5.493   5.423  19.164  0.00  0.00    +0.000 A 
ATOM     11  N   UNL     1       4.393   4.839  18.569  0.00  0.00    +0.000 N 
ATOM     12  C   UNL     1       4.499   4.116  17.388  0.00  0.00    +0.000 A 
ATOM     13  O   UNL     1       3.555   3.572  16.813  0.00  0.00    +0.000 OA
ATOM     14  N   UNL     1       5.763   4.017  16.870  0.00  0.00    +0.000 N 
ATOM     15  C   UNL     1       6.904   4.523  17.419  0.00  0.00    +0.000 A 
ATOM     16  O   UNL     1       8.008   4.342  16.918  0.00  0.00    +0.000 OA
ATOM     17  H   UNL     1       5.862   3.487  16.015  0.00  0.00    +0.000 HD
ENDBRANCH   7  11
ENDBRANCH   1   7
BRANCH   4  18
ATOM     18  O   UNL     1       0.898  10.275  18.915  0.00  0.00    +0.000 OA
BRANCH  18  19
ATOM     19  C   UNL     1      -0.521  10.209  19.086  0.00  0.00    +0.000 C 
BRANCH  19  20
ATOM     20  C   UNL     1      -1.243  11.376  18.427  0.00  0.00    +0.000 C 
BRANCH  20  21
ATOM     21  C   UNL     1      -2.391  10.853  17.542  0.00  0.00    +0.000 C 
BRANCH  21  22
ATOM     22  N   UNL     1      -3.731  11.179  18.068  0.00  0.00    +0.000 NA
ATOM     23  C   UNL     1      -3.666  12.144  19.176  0.00  0.00    +0.000 C 
ATOM     24  C   UNL     1      -5.048  12.402  19.772  0.00  0.00    +0.000 C 
ATOM     25  C   UNL     1      -6.021  12.890  18.709  0.00  0.00    +0.000 C 
ATOM     26  C   UNL     1      -6.038  11.926  17.529  0.00  0.00    +0.000 C 
ATOM     27  C   UNL     1      -4.624  11.656  17.001  0.00  0.00    +0.000 C 
ENDBRANCH  21  22
ENDBRANCH  20  21
ENDBRANCH  19  20
ENDBRANCH  18  19
ENDBRANCH   4  18
TORSDOF 7
ENDMDL
MODEL 7
REMARK VINA RESULT:      -7.5      5.188      8.667
REMARK  Name = 
REMARK  8 active torsions:
REMARK  status: ('A' for Active; 'I' for Inactive)
REMARK    1  A    between atoms: C_1  and  C_2
REMARK    2  A    between atoms: N_4  and  C_5
REMARK    3  A    between atoms: C_5  and  C_6
REMARK    4  A    between atoms: C_9  and  O_10
REMARK    5  A    between atoms: O_10  and  C_11
REMARK    6  A    between atoms: C_11  and  C_12
REMARK    7  A    between atoms: C_12  and  C_13
REMARK    8  A    between atoms: C_13  and  N_14
REMARK                            x       y       z     vdW  Elec       q    Type
REMARK                         _______ _______ _______ _____ _____    ______ ____
ROOT
ATOM      1  C   UNL     1       2.316   6.516  18.675  0.00  0.00    +0.000 A 
ATOM      2  C   UNL     1       2.103   7.817  18.217  0.00  0.00    +0.000 A 
ATOM      3  C   UNL     1       1.677   8.811  19.091  0.00  0.00    +0.000 A 
ATOM      4  C   UNL     1       1.472   8.536  20.445  0.00  0.00    +0.000 A 
ATOM      5  C   UNL     1       1.611   7.222  20.896  0.00  0.00    +0.000 A 
ATOM      6  C   UNL     1       2.032   6.216  20.015  0.00  0.00    +0.000 A 
ENDROOT
BRANCH   1   7
ATOM      7  C   UNL     1       2.926   5.504  17.734  0.00  0.00    +0.000 C 
BRANCH   7  11
ATOM      8  C   UNL     1       7.548   7.291  17.556  0.00  0.00    +0.000 C 
ATOM      9  C   UNL     1       6.559   6.217  17.875  0.00  0.00    +0.000 A 
ATOM     10  C   UNL     1       5.242   6.322  17.668  0.00  0.00    +0.000 A 
ATOM     11  N   UNL     1       4.358   5.314  17.995  0.00  0.00    +0.000 N 
ATOM     12  C   UNL     1       4.790   4.106  18.526  0.00  0.00    +0.000 A 
ATOM     13  O   UNL     1       4.049   3.172  18.837  0.00  0.00    +0.000 OA
ATOM     14  N   UNL     1       6.143   3.994  18.711  0.00  0.00    +0.000 N 
ATOM     15  C   UNL     1       7.076   4.957  18.459  0.00  0.00    +0.000 A 
ATOM     16  O   UNL     1       8.266   4.796  18.704  0.00  0.00    +0.000 OA
ATOM     17  H   UNL     1       6.476   3.125  19.105  0.00  0.00    +0.000 HD
ENDBRANCH   7  11
ENDBRANCH   1   7
BRANCH   4  18
ATOM     18  O   UNL     1       1.164   9.484  21.398  0.00  0.00    +0.000 OA
BRANCH  18  19
ATOM     19  C   UNL     1       0.798  10.746  20.835  0.00  0.00    +0.000 C 
BRANCH  19  20
ATOM     20  C   UNL     1      -0.690  11.038  20.974  0.00  0.00    +0.000 C 
BRANCH  20  21
ATOM     21  C   UNL     1      -1.186  11.841  19.756  0.00  0.00    +0.000 C 
BRANCH  21  22
ATOM     22  N   UNL     1      -2.059  11.063  18.857  0.00  0.00    +0.000 NA
ATOM     23  C   UNL     1      -3.349  11.732  18.631  0.00  0.00    +0.000 C 
ATOM     24  C   UNL     1      -4.279  10.874  17.776  0.00  0.00    +0.000 C 
ATOM     25  C   UNL     1      -3.631  10.524  16.445  0.00  0.00    +0.000 C 
ATOM     26  C   UNL     1      -2.264   9.893  16.675  0.00  0.00    +0.000 C 
ATOM     27  C   UNL     1      -1.387  10.764  17.583  0.00  0.00    +0.000 C 
ENDBRANCH  21  22
ENDBRANCH  20  21
ENDBRANCH  19  20
ENDBRANCH  18  19
ENDBRANCH   4  18
TORSDOF 7
ENDMDL
MODEL 8
REMARK VINA RESULT:      -7.5      5.726      8.628
REMARK  Name = 
REMARK  8 active torsions:
REMARK  status: ('A' for Active; 'I' for Inactive)
REMARK    1  A    between atoms: C_1  and  C_2
REMARK    2  A    between atoms: N_4  and  C_5
REMARK    3  A    between atoms: C_5  and  C_6
REMARK    4  A    between atoms: C_9  and  O_10
REMARK    5  A    between atoms: O_10  and  C_11
REMARK    6  A    between atoms: C_11  and  C_12
REMARK    7  A    between atoms: C_12  and  C_13
REMARK    8  A    between atoms: C_13  and  N_14
REMARK                            x       y       z     vdW  Elec       q    Type
REMARK                         _______ _______ _______ _____ _____    ______ ____
ROOT
ATOM      1  C   UNL     1       2.484   5.781  18.814  0.00  0.00    +0.000 A 
ATOM      2  C   UNL     1       1.976   5.641  20.106  0.00  0.00    +0.000 A 
ATOM      3  C   UNL     1       1.514   6.751  20.806  0.00  0.00    +0.000 A 
ATOM      4  C   UNL     1       1.531   8.022  20.226  0.00  0.00    +0.000 A 
ATOM      5  C   UNL     1       2.106   8.182  18.964  0.00  0.00    +0.000 A 
ATOM      6  C   UNL     1       2.580   7.067  18.260  0.00  0.00    +0.000 A 
ENDROOT
BRANCH   1   7
ATOM      7  C   UNL     1       2.830   4.538  18.029  0.00  0.00    +0.000 C 
BRANCH   7  11
ATOM      8  C   UNL     1       6.455   5.106  14.693  0.00  0.00    +0.000 C 
ATOM      9  C   UNL     1       5.961   4.757  16.060  0.00  0.00    +0.000 A 
ATOM     10  C   UNL     1       4.676   4.791  16.426  0.00  0.00    +0.000 A 
ATOM     11  N   UNL     1       4.260   4.481  17.705  0.00  0.00    +0.000 N 
ATOM     12  C   UNL     1       5.156   4.074  18.685  0.00  0.00    +0.000 A 
ATOM     13  O   UNL     1       4.845   3.787  19.842  0.00  0.00    +0.000 OA
ATOM     14  N   UNL     1       6.468   4.017  18.297  0.00  0.00    +0.000 N 
ATOM     15  C   UNL     1       6.964   4.351  17.071  0.00  0.00    +0.000 A 
ATOM     16  O   UNL     1       8.164   4.323  16.820  0.00  0.00    +0.000 OA
ATOM     17  H   UNL     1       7.137   3.732  19.000  0.00  0.00    +0.000 HD
ENDBRANCH   7  11
ENDBRANCH   1   7
BRANCH   4  18
ATOM     18  O   UNL     1       0.988   9.151  20.802  0.00  0.00    +0.000 OA
BRANCH  18  19
ATOM     19  C   UNL     1      -0.176   8.876  21.586  0.00  0.00    +0.000 C 
BRANCH  19  20
ATOM     20  C   UNL     1      -0.329   9.832  22.761  0.00  0.00    +0.000 C 
BRANCH  20  21
ATOM     21  C   UNL     1      -0.363  11.286  22.255  0.00  0.00    +0.000 C 
BRANCH  21  22
ATOM     22  N   UNL     1      -1.123  12.195  23.135  0.00  0.00    +0.000 NA
ATOM     23  C   UNL     1      -0.829  13.607  22.851  0.00  0.00    +0.000 C 
ATOM     24  C   UNL     1      -1.549  14.535  23.828  0.00  0.00    +0.000 C 
ATOM     25  C   UNL     1      -3.051  14.297  23.801  0.00  0.00    +0.000 C 
ATOM     26  C   UNL     1      -3.355  12.822  24.028  0.00  0.00    +0.000 C 
ATOM     27  C   UNL     1      -2.568  11.929  23.061  0.00  0.00    +0.000 C 
ENDBRANCH  21  22
ENDBRANCH  20  21
ENDBRANCH  19  20
ENDBRANCH  18  19
ENDBRANCH   4  18
TORSDOF 7
ENDMDL
MODEL 9
REMARK VINA RESULT:      -7.5      5.073      7.833
REMARK  Name = 
REMARK  8 active torsions:
REMARK  status: ('A' for Active; 'I' for Inactive)
REMARK    1  A    between atoms: C_1  and  C_2
REMARK    2  A    between atoms: N_4  and  C_5
REMARK    3  A    between atoms: C_5  and  C_6
REMARK    4  A    between atoms: C_9  and  O_10
REMARK    5  A    between atoms: O_10  and  C_11
REMARK    6  A    between atoms: C_11  and  C_12
REMARK    7  A    between atoms: C_12  and  C_13
REMARK    8  A    between atoms: C_13  and  N_14
REMARK                            x       y       z     vdW  Elec       q    Type
REMARK                         _______ _______ _______ _____ _____    ______ ____
ROOT
ATOM      1  C   UNL     1       4.086   5.442  18.423  0.00  0.00    +0.000 A 
ATOM      2  C   UNL     1       3.968   6.543  17.574  0.00  0.00    +0.000 A 
ATOM      3  C   UNL     1       3.097   7.582  17.883  0.00  0.00    +0.000 A 
ATOM      4  C   UNL     1       2.337   7.556  19.056  0.00  0.00    +0.000 A 
ATOM      5  C   UNL     1       2.393   6.424  19.872  0.00  0.00    +0.000 A 
ATOM      6  C   UNL     1       3.264   5.372  19.559  0.00  0.00    +0.000 A 
ENDROOT
BRANCH   1   7
ATOM      7  C   UNL     1       5.152   4.411  18.136  0.00  0.00    +0.000 C 
BRANCH   7  11
ATOM      8  C   UNL     1       5.381   3.720  13.232  0.00  0.00    +0.000 C 
ATOM      9  C   UNL     1       5.899   4.296  14.509  0.00  0.00    +0.000 A 
ATOM     10  C   UNL     1       5.332   4.105  15.705  0.00  0.00    +0.000 A 
ATOM     11  N   UNL     1       5.830   4.672  16.861  0.00  0.00    +0.000 N 
ATOM     12  C   UNL     1       6.980   5.449  16.857  0.00  0.00    +0.000 A 
ATOM     13  O   UNL     1       7.470   5.981  17.854  0.00  0.00    +0.000 OA
ATOM     14  N   UNL     1       7.571   5.620  15.633  0.00  0.00    +0.000 N 
ATOM     15  C   UNL     1       7.119   5.135  14.441  0.00  0.00    +0.000 A 
ATOM     16  O   UNL     1       7.679   5.380  13.379  0.00  0.00    +0.000 OA
ATOM     17  H   UNL     1       8.406   6.190  15.608  0.00  0.00    +0.000 HD
ENDBRANCH   7  11
ENDBRANCH   1   7
BRANCH   4  18
ATOM     18  O   UNL     1       1.540   8.592  19.494  0.00  0.00    +0.000 OA
BRANCH  18  19
ATOM     19  C   UNL     1       1.231   8.510  20.888  0.00  0.00    +0.000 C 
BRANCH  19  20
ATOM     20  C   UNL     1      -0.129   9.108  21.221  0.00  0.00    +0.000 C 
BRANCH  20  21
ATOM     21  C   UNL     1       0.050  10.496  21.866  0.00  0.00    +0.000 C 
BRANCH  21  22
ATOM     22  N   UNL     1      -0.229  11.612  20.941  0.00  0.00    +0.000 NA
ATOM     23  C   UNL     1       1.007  12.224  20.432  0.00  0.00    +0.000 C 
ATOM     24  C   UNL     1       0.707  13.435  19.551  0.00  0.00    +0.000 C 
ATOM     25  C   UNL     1      -0.206  13.057  18.394  0.00  0.00    +0.000 C 
ATOM     26  C   UNL     1      -1.456  12.361  18.915  0.00  0.00    +0.000 C 
ATOM     27  C   UNL     1      -1.104  11.187  19.838  0.00  0.00    +0.000 C 
ENDBRANCH  21  22
ENDBRANCH  20  21
ENDBRANCH  19  20
ENDBRANCH  18  19
ENDBRANCH   4  18
TORSDOF 7
ENDMDL
