MODEL 1
REMARK VINA RESULT:      -5.6      0.000      0.000
REMARK  Name = 
REMARK  5 active torsions:
REMARK  status: ('A' for Active; 'I' for Inactive)
REMARK    1  A    between atoms: C_1  and  C_2
REMARK    2  A    between atoms: C_2  and  C_3
REMARK    3  A    between atoms: N_6  and  C_7
REMARK    4  A    between atoms: C_7  and  C_8
REMARK    5  A    between atoms: C_8  and  O_9
REMARK                            x       y       z     vdW  Elec       q    Type
REMARK                         _______ _______ _______ _____ _____    ______ ____
ROOT
ATOM      1  C   UNL     1       5.134   5.751  15.885  0.00  0.00    +0.000 C 
ATOM      2  C   UNL     1       5.490   4.426  16.587  0.00  0.00    +0.000 C 
ATOM      3  C   UNL     1       5.630   3.309  15.532  0.00  0.00    +0.000 C 
ATOM      4  C   UNL     1       6.879   4.663  17.233  0.00  0.00    +0.000 C 
ATOM      5  O   UNL     1       7.937   4.496  16.626  0.00  0.00    +0.000 OA
ATOM      6  N   UNL     1       6.819   5.409  18.403  0.00  0.00    +0.000 N 
ATOM      7  C   UNL     1       5.802   5.102  19.391  0.00  0.00    +0.000 C 
ATOM      8  C   UNL     1       4.432   4.753  18.837  0.00  0.00    +0.000 C 
ATOM      9  O   UNL     1       3.433   4.860  19.553  0.00  0.00    +0.000 OA
ATOM     10  N   UNL     1       4.469   4.092  17.611  0.00  0.00    +0.000 N 
ATOM     11 CL   UNL     1       2.946   3.527  17.036  0.00  0.00    +0.000 Cl
ENDROOT
BRANCH   6  12
ATOM     12  C   UNL     1       7.952   6.243  18.797  0.00  0.00    +0.000 C 
BRANCH  12  13
ATOM     13  C   UNL     1       7.861   7.617  18.114  0.00  0.00    +0.000 C 
BRANCH  13  14
ATOM     14  O   UNL     1       7.940   7.517  16.694  0.00  0.00    +0.000 OA
ATOM     15  H   UNL     1       8.883   7.497  16.444  0.00  0.00    +0.000 HD
ENDBRANCH  13  14
ENDBRANCH  12  13
ENDBRANCH   6  12
TORSDOF 3
ENDMDL
MODEL 2
REMARK VINA RESULT:      -5.6      2.445      3.691
REMARK  Name = 
REMARK  5 active torsions:
REMARK  status: ('A' for Active; 'I' for Inactive)
REMARK    1  A    between atoms: C_1  and  C_2
REMARK    2  A    between atoms: C_2  and  C_3
REMARK    3  A    between atoms: N_6  and  C_7
REMARK    4  A    between atoms: C_7  and  C_8
REMARK    5  A    between atoms: C_8  and  O_9
REMARK                            x       y       z     vdW  Elec       q    Type
REMARK                         _______ _______ _______ _____ _____    ______ ____
ROOT
ATOM      1  C   UNL     1       3.543   1.499  18.554  0.00  0.00    +0.000 C 
ATOM      2  C   UNL     1       3.319   2.803  19.344  0.00  0.00    +0.000 C 
ATOM      3  C   UNL     1       3.350   2.496  20.856  0.00  0.00    +0.000 C 
ATOM      4  C   UNL     1       4.535   3.704  19.005  0.00  0.00    +0.000 C 
ATOM      5  O   UNL     1       5.601   3.647  19.617  0.00  0.00    +0.000 OA
ATOM      6  N   UNL     1       4.441   4.300  17.755  0.00  0.00    +0.000 N 
ATOM      7  C   UNL     1       3.185   4.901  17.344  0.00  0.00    +0.000 C 
ATOM      8  C   UNL     1       1.933   4.133  17.732  0.00  0.00    +0.000 C 
ATOM      9  O   UNL     1       0.879   4.326  17.121  0.00  0.00    +0.000 OA
ATOM     10  N   UNL     1       2.044   3.442  18.937  0.00  0.00    +0.000 N 
ATOM     11 CL   UNL     1       0.590   2.704  19.495  0.00  0.00    +0.000 Cl
ENDROOT
BRANCH   6  12
ATOM     12  C   UNL     1       5.654   4.634  17.011  0.00  0.00    +0.000 C 
BRANCH  12  13
ATOM     13  C   UNL     1       5.347   5.702  15.950  0.00  0.00    +0.000 C 
BRANCH  13  14
ATOM     14  O   UNL     1       6.041   6.922  16.198  0.00  0.00    +0.000 OA
ATOM     15  H   UNL     1       6.004   7.102  17.156  0.00  0.00    +0.000 HD
ENDBRANCH  13  14
ENDBRANCH  12  13
ENDBRANCH   6  12
TORSDOF 3
ENDMDL
MODEL 3
REMARK VINA RESULT:      -5.6      2.247      3.495
REMARK  Name = 
REMARK  5 active torsions:
REMARK  status: ('A' for Active; 'I' for Inactive)
REMARK    1  A    between atoms: C_1  and  C_2
REMARK    2  A    between atoms: C_2  and  C_3
REMARK    3  A    between atoms: N_6  and  C_7
REMARK    4  A    between atoms: C_7  and  C_8
REMARK    5  A    between atoms: C_8  and  O_9
REMARK                            x       y       z     vdW  Elec       q    Type
REMARK                         _______ _______ _______ _____ _____    ______ ____
ROOT
ATOM      1  C   UNL     1       4.091   1.800  18.185  0.00  0.00    +0.000 C 
ATOM      2  C   UNL     1       3.738   2.936  19.166  0.00  0.00    +0.000 C 
ATOM      3  C   UNL     1       3.888   2.427  20.614  0.00  0.00    +0.000 C 
ATOM      4  C   UNL     1       4.804   4.035  18.923  0.00  0.00    +0.000 C 
ATOM      5  O   UNL     1       5.900   4.041  19.485  0.00  0.00    +0.000 OA
ATOM      6  N   UNL     1       4.567   4.783  17.778  0.00  0.00    +0.000 N 
ATOM      7  C   UNL     1       3.223   5.256  17.501  0.00  0.00    +0.000 C 
ATOM      8  C   UNL     1       2.106   4.276  17.813  0.00  0.00    +0.000 C 
ATOM      9  O   UNL     1       1.005   4.406  17.271  0.00  0.00    +0.000 OA
ATOM     10  N   UNL     1       2.370   3.444  18.899  0.00  0.00    +0.000 N 
ATOM     11 CL   UNL     1       1.057   2.440  19.389  0.00  0.00    +0.000 Cl
ENDROOT
BRANCH   6  12
ATOM     12  C   UNL     1       5.685   5.383  17.053  0.00  0.00    +0.000 C 
BRANCH  12  13
ATOM     13  C   UNL     1       6.528   4.287  16.380  0.00  0.00    +0.000 C 
BRANCH  13  14
ATOM     14  O   UNL     1       7.789   4.110  17.021  0.00  0.00    +0.000 OA
ATOM     15  H   UNL     1       7.834   3.194  17.353  0.00  0.00    +0.000 HD
ENDBRANCH  13  14
ENDBRANCH  12  13
ENDBRANCH   6  12
TORSDOF 3
ENDMDL
MODEL 4
REMARK VINA RESULT:      -5.6      2.055      3.295
REMARK  Name = 
REMARK  5 active torsions:
REMARK  status: ('A' for Active; 'I' for Inactive)
REMARK    1  A    between atoms: C_1  and  C_2
REMARK    2  A    between atoms: C_2  and  C_3
REMARK    3  A    between atoms: N_6  and  C_7
REMARK    4  A    between atoms: C_7  and  C_8
REMARK    5  A    between atoms: C_8  and  O_9
REMARK                            x       y       z     vdW  Elec       q    Type
REMARK                         _______ _______ _______ _____ _____    ______ ____
ROOT
ATOM      1  C   UNL     1       3.999   5.550  19.579  0.00  0.00    +0.000 C 
ATOM      2  C   UNL     1       3.281   5.581  18.215  0.00  0.00    +0.000 C 
ATOM      3  C   UNL     1       2.237   6.717  18.213  0.00  0.00    +0.000 C 
ATOM      4  C   UNL     1       4.381   5.927  17.179  0.00  0.00    +0.000 C 
ATOM      5  O   UNL     1       4.706   7.083  16.909  0.00  0.00    +0.000 OA
ATOM      6  N   UNL     1       5.195   4.848  16.864  0.00  0.00    +0.000 N 
ATOM      7  C   UNL     1       4.593   3.552  16.610  0.00  0.00    +0.000 C 
ATOM      8  C   UNL     1       3.434   3.178  17.516  0.00  0.00    +0.000 C 
ATOM      9  O   UNL     1       3.117   1.993  17.652  0.00  0.00    +0.000 OA
ATOM     10  N   UNL     1       2.663   4.264  17.926  0.00  0.00    +0.000 N 
ATOM     11 CL   UNL     1       1.240   3.860  18.811  0.00  0.00    +0.000 Cl
ENDROOT
BRANCH   6  12
ATOM     12  C   UNL     1       6.579   5.072  16.452  0.00  0.00    +0.000 C 
BRANCH  12  13
ATOM     13  C   UNL     1       7.498   5.115  17.683  0.00  0.00    +0.000 C 
BRANCH  13  14
ATOM     14  O   UNL     1       8.354   3.978  17.755  0.00  0.00    +0.000 OA
ATOM     15  H   UNL     1       8.721   3.818  16.865  0.00  0.00    +0.000 HD
ENDBRANCH  13  14
ENDBRANCH  12  13
ENDBRANCH   6  12
TORSDOF 3
ENDMDL
MODEL 5
REMARK VINA RESULT:      -5.5      3.158      4.889
REMARK  Name = 
REMARK  5 active torsions:
REMARK  status: ('A' for Active; 'I' for Inactive)
REMARK    1  A    between atoms: C_1  and  C_2
REMARK    2  A    between atoms: C_2  and  C_3
REMARK    3  A    between atoms: N_6  and  C_7
REMARK    4  A    between atoms: C_7  and  C_8
REMARK    5  A    between atoms: C_8  and  O_9
REMARK                            x       y       z     vdW  Elec       q    Type
REMARK                         _______ _______ _______ _____ _____    ______ ____
ROOT
ATOM      1  C   UNL     1       5.299   4.259  18.974  0.00  0.00    +0.000 C 
ATOM      2  C   UNL     1       4.347   4.230  17.761  0.00  0.00    +0.000 C 
ATOM      3  C   UNL     1       5.148   3.885  16.490  0.00  0.00    +0.000 C 
ATOM      4  C   UNL     1       3.356   3.072  18.043  0.00  0.00    +0.000 C 
ATOM      5  O   UNL     1       3.593   1.901  17.744  0.00  0.00    +0.000 OA
ATOM      6  N   UNL     1       2.373   3.405  18.964  0.00  0.00    +0.000 N 
ATOM      7  C   UNL     1       1.698   4.685  18.854  0.00  0.00    +0.000 C 
ATOM      8  C   UNL     1       2.580   5.861  18.475  0.00  0.00    +0.000 C 
ATOM      9  O   UNL     1       2.216   7.012  18.731  0.00  0.00    +0.000 OA
ATOM     10  N   UNL     1       3.637   5.526  17.631  0.00  0.00    +0.000 N 
ATOM     11 CL   UNL     1       4.555   6.861  17.041  0.00  0.00    +0.000 Cl
ENDROOT
BRANCH   6  12
ATOM     12  C   UNL     1       1.778   2.368  19.806  0.00  0.00    +0.000 C 
BRANCH  12  13
ATOM     13  C   UNL     1       1.549   2.908  21.227  0.00  0.00    +0.000 C 
BRANCH  13  14
ATOM     14  O   UNL     1       2.650   2.633  22.089  0.00  0.00    +0.000 OA
ATOM     15  H   UNL     1       2.729   1.666  22.182  0.00  0.00    +0.000 HD
ENDBRANCH  13  14
ENDBRANCH  12  13
ENDBRANCH   6  12
TORSDOF 3
ENDMDL
MODEL 6
REMARK VINA RESULT:      -5.5      2.545      3.388
REMARK  Name = 
REMARK  5 active torsions:
REMARK  status: ('A' for Active; 'I' for Inactive)
REMARK    1  A    between atoms: C_1  and  C_2
REMARK    2  A    between atoms: C_2  and  C_3
REMARK    3  A    between atoms: N_6  and  C_7
REMARK    4  A    between atoms: C_7  and  C_8
REMARK    5  A    between atoms: C_8  and  O_9
REMARK                            x       y       z     vdW  Elec       q    Type
REMARK                         _______ _______ _______ _____ _____    ______ ____
ROOT
ATOM      1  C   UNL     1       2.584   5.892  19.417  0.00  0.00    +0.000 C 
ATOM      2  C   UNL     1       2.520   4.543  18.674  0.00  0.00    +0.000 C 
ATOM      3  C   UNL     1       1.389   4.589  17.626  0.00  0.00    +0.000 C 
ATOM      4  C   UNL     1       3.873   4.420  17.927  0.00  0.00    +0.000 C 
ATOM      5  O   UNL     1       4.066   4.899  16.810  0.00  0.00    +0.000 OA
ATOM      6  N   UNL     1       4.924   4.054  18.756  0.00  0.00    +0.000 N 
ATOM      7  C   UNL     1       4.733   2.985  19.720  0.00  0.00    +0.000 C 
ATOM      8  C   UNL     1       3.388   2.969  20.423  0.00  0.00    +0.000 C 
ATOM      9  O   UNL     1       3.264   2.379  21.500  0.00  0.00    +0.000 OA
ATOM     10  N   UNL     1       2.333   3.431  19.638  0.00  0.00    +0.000 N 
ATOM     11 CL   UNL     1       0.768   3.264  20.342  0.00  0.00    +0.000 Cl
ENDROOT
BRANCH   6  12
ATOM     12  C   UNL     1       6.286   4.478  18.440  0.00  0.00    +0.000 C 
BRANCH  12  13
ATOM     13  C   UNL     1       6.732   5.590  19.404  0.00  0.00    +0.000 C 
BRANCH  13  14
ATOM     14  O   UNL     1       8.099   5.455  19.784  0.00  0.00    +0.000 OA
ATOM     15  H   UNL     1       8.261   6.041  20.546  0.00  0.00    +0.000 HD
ENDBRANCH  13  14
ENDBRANCH  12  13
ENDBRANCH   6  12
TORSDOF 3
ENDMDL
MODEL 7
REMARK VINA RESULT:      -5.5      2.532      4.292
REMARK  Name = 
REMARK  5 active torsions:
REMARK  status: ('A' for Active; 'I' for Inactive)
REMARK    1  A    between atoms: C_1  and  C_2
REMARK    2  A    between atoms: C_2  and  C_3
REMARK    3  A    between atoms: N_6  and  C_7
REMARK    4  A    between atoms: C_7  and  C_8
REMARK    5  A    between atoms: C_8  and  O_9
REMARK                            x       y       z     vdW  Elec       q    Type
REMARK                         _______ _______ _______ _____ _____    ______ ____
ROOT
ATOM      1  C   UNL     1       6.606   4.191  16.143  0.00  0.00    +0.000 C 
ATOM      2  C   UNL     1       5.631   5.212  16.762  0.00  0.00    +0.000 C 
ATOM      3  C   UNL     1       5.196   6.223  15.682  0.00  0.00    +0.000 C 
ATOM      4  C   UNL     1       4.389   4.388  17.188  0.00  0.00    +0.000 C 
ATOM      5  O   UNL     1       3.460   4.133  16.421  0.00  0.00    +0.000 OA
ATOM      6  N   UNL     1       4.582   3.674  18.362  0.00  0.00    +0.000 N 
ATOM      7  C   UNL     1       5.221   4.323  19.493  0.00  0.00    +0.000 C 
ATOM      8  C   UNL     1       6.386   5.236  19.154  0.00  0.00    +0.000 C 
ATOM      9  O   UNL     1       7.221   5.514  20.018  0.00  0.00    +0.000 OA
ATOM     10  N   UNL     1       6.257   5.884  17.927  0.00  0.00    +0.000 N 
ATOM     11 CL   UNL     1       7.473   7.059  17.588  0.00  0.00    +0.000 Cl
ENDROOT
BRANCH   6  12
ATOM     12  C   UNL     1       3.855   2.427  18.588  0.00  0.00    +0.000 C 
BRANCH  12  13
ATOM     13  C   UNL     1       2.590   2.695  19.419  0.00  0.00    +0.000 C 
BRANCH  13  14
ATOM     14  O   UNL     1       1.500   3.130  18.612  0.00  0.00    +0.000 OA
ATOM     15  H   UNL     1       0.846   2.407  18.569  0.00  0.00    +0.000 HD
ENDBRANCH  13  14
ENDBRANCH  12  13
ENDBRANCH   6  12
TORSDOF 3
ENDMDL
MODEL 8
REMARK VINA RESULT:      -5.4      2.264      3.319
REMARK  Name = 
REMARK  5 active torsions:
REMARK  status: ('A' for Active; 'I' for Inactive)
REMARK    1  A    between atoms: C_1  and  C_2
REMARK    2  A    between atoms: C_2  and  C_3
REMARK    3  A    between atoms: N_6  and  C_7
REMARK    4  A    between atoms: C_7  and  C_8
REMARK    5  A    between atoms: C_8  and  O_9
REMARK                            x       y       z     vdW  Elec       q    Type
REMARK                         _______ _______ _______ _____ _____    ______ ____
ROOT
ATOM      1  C   UNL     1       2.505   5.769  19.757  0.00  0.00    +0.000 C 
ATOM      2  C   UNL     1       2.656   4.609  18.752  0.00  0.00    +0.000 C 
ATOM      3  C   UNL     1       1.478   4.639  17.757  0.00  0.00    +0.000 C 
ATOM      4  C   UNL     1       3.961   4.908  17.972  0.00  0.00    +0.000 C 
ATOM      5  O   UNL     1       3.995   5.629  16.975  0.00  0.00    +0.000 OA
ATOM      6  N   UNL     1       5.110   4.600  18.689  0.00  0.00    +0.000 N 
ATOM      7  C   UNL     1       5.181   3.344  19.413  0.00  0.00    +0.000 C 
ATOM      8  C   UNL     1       3.907   2.922  20.122  0.00  0.00    +0.000 C 
ATOM      9  O   UNL     1       3.960   2.116  21.055  0.00  0.00    +0.000 OA
ATOM     10  N   UNL     1       2.740   3.313  19.468  0.00  0.00    +0.000 N 
ATOM     11 CL   UNL     1       1.278   2.703  20.149  0.00  0.00    +0.000 Cl
ENDROOT
BRANCH   6  12
ATOM     12  C   UNL     1       6.346   5.339  18.443  0.00  0.00    +0.000 C 
BRANCH  12  13
ATOM     13  C   UNL     1       7.130   4.690  17.291  0.00  0.00    +0.000 C 
BRANCH  13  14
ATOM     14  O   UNL     1       8.292   4.006  17.752  0.00  0.00    +0.000 OA
ATOM     15  H   UNL     1       8.876   4.656  18.185  0.00  0.00    +0.000 HD
ENDBRANCH  13  14
ENDBRANCH  12  13
ENDBRANCH   6  12
TORSDOF 3
ENDMDL
MODEL 9
REMARK VINA RESULT:      -5.4      2.912      4.713
REMARK  Name = 
REMARK  5 active torsions:
REMARK  status: ('A' for Active; 'I' for Inactive)
REMARK    1  A    between atoms: C_1  and  C_2
REMARK    2  A    between atoms: C_2  and  C_3
REMARK    3  A    between atoms: N_6  and  C_7
REMARK    4  A    between atoms: C_7  and  C_8
REMARK    5  A    between atoms: C_8  and  O_9
REMARK                            x       y       z     vdW  Elec       q    Type
REMARK                         _______ _______ _______ _____ _____    ______ ____
ROOT
ATOM      1  C   UNL     1       5.907   4.544  18.439  0.00  0.00    +0.000 C 
ATOM      2  C   UNL     1       4.820   4.433  17.351  0.00  0.00    +0.000 C 
ATOM      3  C   UNL     1       5.429   3.798  16.084  0.00  0.00    +0.000 C 
ATOM      4  C   UNL     1       3.761   3.457  17.925  0.00  0.00    +0.000 C 
ATOM      5  O   UNL     1       3.845   2.234  17.808  0.00  0.00    +0.000 OA
ATOM      6  N   UNL     1       2.930   4.045  18.869  0.00  0.00    +0.000 N 
ATOM      7  C   UNL     1       2.376   5.360  18.609  0.00  0.00    +0.000 C 
ATOM      8  C   UNL     1       3.318   6.350  17.948  0.00  0.00    +0.000 C 
ATOM      9  O   UNL     1       3.100   7.562  18.038  0.00  0.00    +0.000 OA
ATOM     10  N   UNL     1       4.230   5.765  17.072  0.00  0.00    +0.000 N 
ATOM     11 CL   UNL     1       5.198   6.873  16.173  0.00  0.00    +0.000 Cl
ENDROOT
BRANCH   6  12
ATOM     12  C   UNL     1       2.341   3.232  19.931  0.00  0.00    +0.000 C 
BRANCH  12  13
ATOM     13  C   UNL     1       0.911   2.818  19.548  0.00  0.00    +0.000 C 
BRANCH  13  14
ATOM     14  O   UNL     1       0.895   1.750  18.605  0.00  0.00    +0.000 OA
ATOM     15  H   UNL     1       1.196   2.100  17.745  0.00  0.00    +0.000 HD
ENDBRANCH  13  14
ENDBRANCH  12  13
ENDBRANCH   6  12
TORSDOF 3
ENDMDL
