MODEL 1
REMARK VINA RESULT:      -5.8      0.000      0.000
REMARK  Name = 
REMARK  18 active torsions:
REMARK  status: ('A' for Active; 'I' for Inactive)
REMARK    1  A    between atoms: C_1  and  C_2
REMARK    2  A    between atoms: C_2  and  C_3
REMARK    3  A    between atoms: C_3  and  C_4
REMARK    4  A    between atoms: C_4  and  C_5
REMARK    5  A    between atoms: C_5  and  C_6
REMARK    6  A    between atoms: C_6  and  C_7
REMARK    7  A    between atoms: C_7  and  C_8
REMARK    8  A    between atoms: C_8  and  C_9
REMARK    9  A    between atoms: C_9  and  C_10
REMARK   10  A    between atoms: C_10  and  C_11
REMARK   11  A    between atoms: C_11  and  C_12
REMARK   12  A    between atoms: C_12  and  C_13
REMARK   13  A    between atoms: C_13  and  C_14
REMARK   14  A    between atoms: C_14  and  C_15
REMARK   15  A    between atoms: C_15  and  C_16
REMARK   16  A    between atoms: N_18  and  C_19
REMARK   17  A    between atoms: C_19  and  C_20
REMARK   18  A    between atoms: C_19  and  C_21
REMARK                            x       y       z     vdW  Elec       q    Type
REMARK                         _______ _______ _______ _____ _____    ______ ____
ROOT
ATOM      1  C   UNL     1       3.377   3.956  16.936  0.00  0.00    +0.000 C 
ENDROOT
BRANCH   1   2
ATOM      2  C   UNL     1       3.521   2.861  17.979  0.00  0.00    +0.000 C 
BRANCH   2   3
ATOM      3  C   UNL     1       2.388   1.858  17.842  0.00  0.00    +0.000 C 
BRANCH   3   4
ATOM      4  C   UNL     1       1.442   1.972  19.024  0.00  0.00    +0.000 C 
BRANCH   4   5
ATOM      5  C   UNL     1       1.152   3.433  19.318  0.00  0.00    +0.000 C 
BRANCH   5   6
ATOM      6  C   UNL     1       1.239   3.693  20.812  0.00  0.00    +0.000 C 
BRANCH   6   7
ATOM      7  C   UNL     1       1.738   5.104  21.069  0.00  0.00    +0.000 C 
BRANCH   7   8
ATOM      8  C   UNL     1       2.637   5.556  19.927  0.00  0.00    +0.000 C 
BRANCH   8   9
ATOM      9  C   UNL     1       2.402   7.027  19.625  0.00  0.00    +0.000 C 
BRANCH   9  11
ATOM     10  C   UNL     1       2.665   8.599  17.703  0.00  0.00    +0.000 C 
ATOM     11  C   UNL     1       2.159   7.237  18.138  0.00  0.00    +0.000 C 
ENDBRANCH   9  11
ENDBRANCH   8   9
ENDBRANCH   7   8
ENDBRANCH   6   7
ENDBRANCH   5   6
ENDBRANCH   4   5
ENDBRANCH   3   4
ENDBRANCH   2   3
ENDBRANCH   1   2
BRANCH   1  12
ATOM     12  C   UNL     1       4.706   4.204  16.239  0.00  0.00    +0.000 C 
BRANCH  12  13
ATOM     13  C   UNL     1       5.110   5.667  16.375  0.00  0.00    +0.000 C 
BRANCH  13  14
ATOM     14  C   UNL     1       6.605   5.822  16.132  0.00  0.00    +0.000 C 
BRANCH  14  15
ATOM     15  C   UNL     1       7.236   4.561  15.540  0.00  0.00    +0.000 C 
BRANCH  15  16
ATOM     16  C   UNL     1       7.081   4.573  14.028  0.00  0.00    +0.000 C 
ATOM     17  O   UNL     1       7.545   5.460  13.320  0.00  0.00    +0.000 OA
ATOM     18  N   UNL     1       6.390   3.498  13.513  0.00  0.00    +0.000 N 
ATOM     19  H   UNL     1       5.952   2.832  14.134  0.00  0.00    +0.000 HD
BRANCH  18  20
ATOM     20  C   UNL     1       6.152   3.398  12.070  0.00  0.00    +0.000 C 
ATOM     21  C   UNL     1       6.876   2.192  11.484  0.00  0.00    +0.000 C 
ATOM     22  C   UNL     1       4.660   3.319  11.744  0.00  0.00    +0.000 C 
ENDBRANCH  18  20
ENDBRANCH  15  16
ENDBRANCH  14  15
ENDBRANCH  13  14
ENDBRANCH  12  13
ENDBRANCH   1  12
TORSDOF 15
ENDMDL
MODEL 2
REMARK VINA RESULT:      -5.7      3.304      5.723
REMARK  Name = 
REMARK  18 active torsions:
REMARK  status: ('A' for Active; 'I' for Inactive)
REMARK    1  A    between atoms: C_1  and  C_2
REMARK    2  A    between atoms: C_2  and  C_3
REMARK    3  A    between atoms: C_3  and  C_4
REMARK    4  A    between atoms: C_4  and  C_5
REMARK    5  A    between atoms: C_5  and  C_6
REMARK    6  A    between atoms: C_6  and  C_7
REMARK    7  A    between atoms: C_7  and  C_8
REMARK    8  A    between atoms: C_8  and  C_9
REMARK    9  A    between atoms: C_9  and  C_10
REMARK   10  A    between atoms: C_10  and  C_11
REMARK   11  A    between atoms: C_11  and  C_12
REMARK   12  A    between atoms: C_12  and  C_13
REMARK   13  A    between atoms: C_13  and  C_14
REMARK   14  A    between atoms: C_14  and  C_15
REMARK   15  A    between atoms: C_15  and  C_16
REMARK   16  A    between atoms: N_18  and  C_19
REMARK   17  A    between atoms: C_19  and  C_20
REMARK   18  A    between atoms: C_19  and  C_21
REMARK                            x       y       z     vdW  Elec       q    Type
REMARK                         _______ _______ _______ _____ _____    ______ ____
ROOT
ATOM      1  C   UNL     1       1.688   6.038  20.496  0.00  0.00    +0.000 C 
ENDROOT
BRANCH   1   2
ATOM      2  C   UNL     1       2.768   6.522  19.543  0.00  0.00    +0.000 C 
BRANCH   2   3
ATOM      3  C   UNL     1       2.140   6.994  18.242  0.00  0.00    +0.000 C 
BRANCH   3   4
ATOM      4  C   UNL     1       2.559   8.424  17.948  0.00  0.00    +0.000 C 
BRANCH   4   5
ATOM      5  C   UNL     1       1.343   9.334  17.959  0.00  0.00    +0.000 C 
BRANCH   5   6
ATOM      6  C   UNL     1       1.077   9.833  19.370  0.00  0.00    +0.000 C 
BRANCH   6   7
ATOM      7  C   UNL     1      -0.403  10.114  19.554  0.00  0.00    +0.000 C 
BRANCH   7   8
ATOM      8  C   UNL     1      -0.896  11.054  18.463  0.00  0.00    +0.000 C 
BRANCH   8   9
ATOM      9  C   UNL     1      -2.293  11.555  18.793  0.00  0.00    +0.000 C 
BRANCH   9  11
ATOM     10  C   UNL     1      -3.247   9.760  17.344  0.00  0.00    +0.000 C 
ATOM     11  C   UNL     1      -3.256  11.244  17.657  0.00  0.00    +0.000 C 
ENDBRANCH   9  11
ENDBRANCH   8   9
ENDBRANCH   7   8
ENDBRANCH   6   7
ENDBRANCH   5   6
ENDBRANCH   4   5
ENDBRANCH   3   4
ENDBRANCH   2   3
ENDBRANCH   1   2
BRANCH   1  12
ATOM     12  C   UNL     1       1.932   4.587  20.883  0.00  0.00    +0.000 C 
BRANCH  12  13
ATOM     13  C   UNL     1       1.027   3.666  20.076  0.00  0.00    +0.000 C 
BRANCH  13  14
ATOM     14  C   UNL     1       1.651   3.379  18.716  0.00  0.00    +0.000 C 
BRANCH  14  15
ATOM     15  C   UNL     1       2.854   2.440  18.810  0.00  0.00    +0.000 C 
BRANCH  15  16
ATOM     16  C   UNL     1       4.125   3.203  18.477  0.00  0.00    +0.000 C 
ATOM     17  O   UNL     1       5.033   3.366  19.284  0.00  0.00    +0.000 OA
ATOM     18  N   UNL     1       4.184   3.686  17.187  0.00  0.00    +0.000 N 
ATOM     19  H   UNL     1       3.382   3.605  16.578  0.00  0.00    +0.000 HD
BRANCH  18  20
ATOM     20  C   UNL     1       5.347   4.459  16.742  0.00  0.00    +0.000 C 
ATOM     21  C   UNL     1       6.014   3.792  15.545  0.00  0.00    +0.000 C 
ATOM     22  C   UNL     1       4.974   5.900  16.395  0.00  0.00    +0.000 C 
ENDBRANCH  18  20
ENDBRANCH  15  16
ENDBRANCH  14  15
ENDBRANCH  13  14
ENDBRANCH  12  13
ENDBRANCH   1  12
TORSDOF 15
ENDMDL
MODEL 3
REMARK VINA RESULT:      -5.7      1.493      3.318
REMARK  Name = 
REMARK  18 active torsions:
REMARK  status: ('A' for Active; 'I' for Inactive)
REMARK    1  A    between atoms: C_1  and  C_2
REMARK    2  A    between atoms: C_2  and  C_3
REMARK    3  A    between atoms: C_3  and  C_4
REMARK    4  A    between atoms: C_4  and  C_5
REMARK    5  A    between atoms: C_5  and  C_6
REMARK    6  A    between atoms: C_6  and  C_7
REMARK    7  A    between atoms: C_7  and  C_8
REMARK    8  A    between atoms: C_8  and  C_9
REMARK    9  A    between atoms: C_9  and  C_10
REMARK   10  A    between atoms: C_10  and  C_11
REMARK   11  A    between atoms: C_11  and  C_12
REMARK   12  A    between atoms: C_12  and  C_13
REMARK   13  A    between atoms: C_13  and  C_14
REMARK   14  A    between atoms: C_14  and  C_15
REMARK   15  A    between atoms: C_15  and  C_16
REMARK   16  A    between atoms: N_18  and  C_19
REMARK   17  A    between atoms: C_19  and  C_20
REMARK   18  A    between atoms: C_19  and  C_21
REMARK                            x       y       z     vdW  Elec       q    Type
REMARK                         _______ _______ _______ _____ _____    ______ ____
ROOT
ATOM      1  C   UNL     1       5.770   5.451  19.009  0.00  0.00    +0.000 C 
ENDROOT
BRANCH   1   2
ATOM      2  C   UNL     1       5.002   6.249  17.970  0.00  0.00    +0.000 C 
BRANCH   2   3
ATOM      3  C   UNL     1       3.517   5.946  18.073  0.00  0.00    +0.000 C 
BRANCH   3   4
ATOM      4  C   UNL     1       3.116   5.789  19.530  0.00  0.00    +0.000 C 
BRANCH   4   5
ATOM      5  C   UNL     1       1.656   5.383  19.626  0.00  0.00    +0.000 C 
BRANCH   5   6
ATOM      6  C   UNL     1       1.442   4.483  20.832  0.00  0.00    +0.000 C 
BRANCH   6   7
ATOM      7  C   UNL     1       1.099   3.076  20.379  0.00  0.00    +0.000 C 
BRANCH   7   8
ATOM      8  C   UNL     1       1.055   3.012  18.859  0.00  0.00    +0.000 C 
BRANCH   8   9
ATOM      9  C   UNL     1       1.901   1.853  18.357  0.00  0.00    +0.000 C 
BRANCH   9  11
ATOM     10  C   UNL     1       4.204   2.147  19.274  0.00  0.00    +0.000 C 
ATOM     11  C   UNL     1       3.318   2.316  18.054  0.00  0.00    +0.000 C 
ENDBRANCH   9  11
ENDBRANCH   8   9
ENDBRANCH   7   8
ENDBRANCH   6   7
ENDBRANCH   5   6
ENDBRANCH   4   5
ENDBRANCH   3   4
ENDBRANCH   2   3
ENDBRANCH   1   2
BRANCH   1  12
ATOM     12  C   UNL     1       7.211   5.249  18.565  0.00  0.00    +0.000 C 
BRANCH  12  13
ATOM     13  C   UNL     1       7.386   5.691  17.117  0.00  0.00    +0.000 C 
BRANCH  13  14
ATOM     14  C   UNL     1       7.196   4.504  16.181  0.00  0.00    +0.000 C 
BRANCH  14  15
ATOM     15  C   UNL     1       7.003   4.932  14.725  0.00  0.00    +0.000 C 
BRANCH  15  16
ATOM     16  C   UNL     1       5.945   4.060  14.073  0.00  0.00    +0.000 C 
ATOM     17  O   UNL     1       4.839   3.873  14.570  0.00  0.00    +0.000 OA
ATOM     18  N   UNL     1       6.319   3.506  12.867  0.00  0.00    +0.000 N 
ATOM     19  H   UNL     1       7.265   3.615  12.532  0.00  0.00    +0.000 HD
BRANCH  18  20
ATOM     20  C   UNL     1       5.398   2.627  12.142  0.00  0.00    +0.000 C 
ATOM     21  C   UNL     1       4.402   3.441  11.326  0.00  0.00    +0.000 C 
ATOM     22  C   UNL     1       6.141   1.649  11.232  0.00  0.00    +0.000 C 
ENDBRANCH  18  20
ENDBRANCH  15  16
ENDBRANCH  14  15
ENDBRANCH  13  14
ENDBRANCH  12  13
ENDBRANCH   1  12
TORSDOF 15
ENDMDL
MODEL 4
REMARK VINA RESULT:      -5.7      1.460      3.224
REMARK  Name = 
REMARK  18 active torsions:
REMARK  status: ('A' for Active; 'I' for Inactive)
REMARK    1  A    between atoms: C_1  and  C_2
REMARK    2  A    between atoms: C_2  and  C_3
REMARK    3  A    between atoms: C_3  and  C_4
REMARK    4  A    between atoms: C_4  and  C_5
REMARK    5  A    between atoms: C_5  and  C_6
REMARK    6  A    between atoms: C_6  and  C_7
REMARK    7  A    between atoms: C_7  and  C_8
REMARK    8  A    between atoms: C_8  and  C_9
REMARK    9  A    between atoms: C_9  and  C_10
REMARK   10  A    between atoms: C_10  and  C_11
REMARK   11  A    between atoms: C_11  and  C_12
REMARK   12  A    between atoms: C_12  and  C_13
REMARK   13  A    between atoms: C_13  and  C_14
REMARK   14  A    between atoms: C_14  and  C_15
REMARK   15  A    between atoms: C_15  and  C_16
REMARK   16  A    between atoms: N_18  and  C_19
REMARK   17  A    between atoms: C_19  and  C_20
REMARK   18  A    between atoms: C_19  and  C_21
REMARK                            x       y       z     vdW  Elec       q    Type
REMARK                         _______ _______ _______ _____ _____    ______ ____
ROOT
ATOM      1  C   UNL     1       7.460   6.216  18.438  0.00  0.00    +0.000 C 
ENDROOT
BRANCH   1   2
ATOM      2  C   UNL     1       6.757   4.893  18.691  0.00  0.00    +0.000 C 
BRANCH   2   3
ATOM      3  C   UNL     1       5.559   5.104  19.599  0.00  0.00    +0.000 C 
BRANCH   3   4
ATOM      4  C   UNL     1       4.280   4.714  18.878  0.00  0.00    +0.000 C 
BRANCH   4   5
ATOM      5  C   UNL     1       3.199   5.746  19.141  0.00  0.00    +0.000 C 
BRANCH   5   6
ATOM      6  C   UNL     1       2.529   5.471  20.478  0.00  0.00    +0.000 C 
BRANCH   6   7
ATOM      7  C   UNL     1       1.321   4.574  20.282  0.00  0.00    +0.000 C 
BRANCH   7   8
ATOM      8  C   UNL     1       1.495   3.285  21.073  0.00  0.00    +0.000 C 
BRANCH   8   9
ATOM      9  C   UNL     1       1.644   2.104  20.127  0.00  0.00    +0.000 C 
BRANCH   9  11
ATOM     10  C   UNL     1       2.287   2.123  17.715  0.00  0.00    +0.000 C 
ATOM     11  C   UNL     1       1.210   2.487  18.719  0.00  0.00    +0.000 C 
ENDBRANCH   9  11
ENDBRANCH   8   9
ENDBRANCH   7   8
ENDBRANCH   6   7
ENDBRANCH   5   6
ENDBRANCH   4   5
ENDBRANCH   3   4
ENDBRANCH   2   3
ENDBRANCH   1   2
BRANCH   1  12
ATOM     12  C   UNL     1       7.246   6.667  17.001  0.00  0.00    +0.000 C 
BRANCH  12  13
ATOM     13  C   UNL     1       5.757   6.743  16.687  0.00  0.00    +0.000 C 
BRANCH  13  14
ATOM     14  C   UNL     1       5.483   6.167  15.304  0.00  0.00    +0.000 C 
BRANCH  14  15
ATOM     15  C   UNL     1       5.867   4.690  15.199  0.00  0.00    +0.000 C 
BRANCH  15  16
ATOM     16  C   UNL     1       6.141   4.336  13.747  0.00  0.00    +0.000 C 
ATOM     17  O   UNL     1       7.173   4.658  13.168  0.00  0.00    +0.000 OA
ATOM     18  N   UNL     1       5.143   3.609  13.134  0.00  0.00    +0.000 N 
ATOM     19  H   UNL     1       4.273   3.435  13.617  0.00  0.00    +0.000 HD
BRANCH  18  20
ATOM     20  C   UNL     1       5.273   3.220  11.727  0.00  0.00    +0.000 C 
ATOM     21  C   UNL     1       5.856   1.818  11.605  0.00  0.00    +0.000 C 
ATOM     22  C   UNL     1       3.935   3.293  10.991  0.00  0.00    +0.000 C 
ENDBRANCH  18  20
ENDBRANCH  15  16
ENDBRANCH  14  15
ENDBRANCH  13  14
ENDBRANCH  12  13
ENDBRANCH   1  12
TORSDOF 15
ENDMDL
MODEL 5
REMARK VINA RESULT:      -5.6      2.395      4.901
REMARK  Name = 
REMARK  18 active torsions:
REMARK  status: ('A' for Active; 'I' for Inactive)
REMARK    1  A    between atoms: C_1  and  C_2
REMARK    2  A    between atoms: C_2  and  C_3
REMARK    3  A    between atoms: C_3  and  C_4
REMARK    4  A    between atoms: C_4  and  C_5
REMARK    5  A    between atoms: C_5  and  C_6
REMARK    6  A    between atoms: C_6  and  C_7
REMARK    7  A    between atoms: C_7  and  C_8
REMARK    8  A    between atoms: C_8  and  C_9
REMARK    9  A    between atoms: C_9  and  C_10
REMARK   10  A    between atoms: C_10  and  C_11
REMARK   11  A    between atoms: C_11  and  C_12
REMARK   12  A    between atoms: C_12  and  C_13
REMARK   13  A    between atoms: C_13  and  C_14
REMARK   14  A    between atoms: C_14  and  C_15
REMARK   15  A    between atoms: C_15  and  C_16
REMARK   16  A    between atoms: N_18  and  C_19
REMARK   17  A    between atoms: C_19  and  C_20
REMARK   18  A    between atoms: C_19  and  C_21
REMARK                            x       y       z     vdW  Elec       q    Type
REMARK                         _______ _______ _______ _____ _____    ______ ____
ROOT
ATOM      1  C   UNL     1       1.145   3.228  20.874  0.00  0.00    +0.000 C 
ENDROOT
BRANCH   1   2
ATOM      2  C   UNL     1       1.289   4.498  20.052  0.00  0.00    +0.000 C 
BRANCH   2   3
ATOM      3  C   UNL     1       1.745   5.644  20.939  0.00  0.00    +0.000 C 
BRANCH   3   4
ATOM      4  C   UNL     1       1.851   6.923  20.126  0.00  0.00    +0.000 C 
BRANCH   4   5
ATOM      5  C   UNL     1       2.333   6.607  18.721  0.00  0.00    +0.000 C 
BRANCH   5   6
ATOM      6  C   UNL     1       2.860   7.867  18.054  0.00  0.00    +0.000 C 
BRANCH   6   7
ATOM      7  C   UNL     1       1.707   8.778  17.673  0.00  0.00    +0.000 C 
BRANCH   7   8
ATOM      8  C   UNL     1       2.087  10.231  17.916  0.00  0.00    +0.000 C 
BRANCH   8   9
ATOM      9  C   UNL     1       1.227  10.821  19.022  0.00  0.00    +0.000 C 
BRANCH   9  11
ATOM     10  C   UNL     1      -0.353   9.780  20.651  0.00  0.00    +0.000 C 
ATOM     11  C   UNL     1      -0.060  10.025  19.183  0.00  0.00    +0.000 C 
ENDBRANCH   9  11
ENDBRANCH   8   9
ENDBRANCH   7   8
ENDBRANCH   6   7
ENDBRANCH   5   6
ENDBRANCH   4   5
ENDBRANCH   3   4
ENDBRANCH   2   3
ENDBRANCH   1   2
BRANCH   1  12
ATOM     12  C   UNL     1       2.504   2.758  21.370  0.00  0.00    +0.000 C 
BRANCH  12  13
ATOM     13  C   UNL     1       3.604   3.235  20.430  0.00  0.00    +0.000 C 
BRANCH  13  14
ATOM     14  C   UNL     1       4.190   2.054  19.668  0.00  0.00    +0.000 C 
BRANCH  14  15
ATOM     15  C   UNL     1       3.384   1.707  18.415  0.00  0.00    +0.000 C 
BRANCH  15  16
ATOM     16  C   UNL     1       3.454   2.859  17.427  0.00  0.00    +0.000 C 
ATOM     17  O   UNL     1       2.457   3.430  16.999  0.00  0.00    +0.000 OA
ATOM     18  N   UNL     1       4.732   3.225  17.061  0.00  0.00    +0.000 N 
ATOM     19  H   UNL     1       5.523   2.678  17.369  0.00  0.00    +0.000 HD
BRANCH  18  20
ATOM     20  C   UNL     1       4.941   4.309  16.098  0.00  0.00    +0.000 C 
ATOM     21  C   UNL     1       5.411   5.576  16.802  0.00  0.00    +0.000 C 
ATOM     22  C   UNL     1       5.938   3.919  15.008  0.00  0.00    +0.000 C 
ENDBRANCH  18  20
ENDBRANCH  15  16
ENDBRANCH  14  15
ENDBRANCH  13  14
ENDBRANCH  12  13
ENDBRANCH   1  12
TORSDOF 15
ENDMDL
MODEL 6
REMARK VINA RESULT:      -5.6      4.640      6.607
REMARK  Name = 
REMARK  18 active torsions:
REMARK  status: ('A' for Active; 'I' for Inactive)
REMARK    1  A    between atoms: C_1  and  C_2
REMARK    2  A    between atoms: C_2  and  C_3
REMARK    3  A    between atoms: C_3  and  C_4
REMARK    4  A    between atoms: C_4  and  C_5
REMARK    5  A    between atoms: C_5  and  C_6
REMARK    6  A    between atoms: C_6  and  C_7
REMARK    7  A    between atoms: C_7  and  C_8
REMARK    8  A    between atoms: C_8  and  C_9
REMARK    9  A    between atoms: C_9  and  C_10
REMARK   10  A    between atoms: C_10  and  C_11
REMARK   11  A    between atoms: C_11  and  C_12
REMARK   12  A    between atoms: C_12  and  C_13
REMARK   13  A    between atoms: C_13  and  C_14
REMARK   14  A    between atoms: C_14  and  C_15
REMARK   15  A    between atoms: C_15  and  C_16
REMARK   16  A    between atoms: N_18  and  C_19
REMARK   17  A    between atoms: C_19  and  C_20
REMARK   18  A    between atoms: C_19  and  C_21
REMARK                            x       y       z     vdW  Elec       q    Type
REMARK                         _______ _______ _______ _____ _____    ______ ____
ROOT
ATOM      1  C   UNL     1       5.880   5.197  17.909  0.00  0.00    +0.000 C 
ENDROOT
BRANCH   1   2
ATOM      2  C   UNL     1       5.407   5.045  19.345  0.00  0.00    +0.000 C 
BRANCH   2   3
ATOM      3  C   UNL     1       3.959   5.486  19.466  0.00  0.00    +0.000 C 
BRANCH   3   4
ATOM      4  C   UNL     1       3.253   4.674  20.539  0.00  0.00    +0.000 C 
BRANCH   4   5
ATOM      5  C   UNL     1       1.892   5.278  20.836  0.00  0.00    +0.000 C 
BRANCH   5   6
ATOM      6  C   UNL     1       0.793   4.379  20.296  0.00  0.00    +0.000 C 
BRANCH   6   7
ATOM      7  C   UNL     1       1.164   2.921  20.495  0.00  0.00    +0.000 C 
BRANCH   7   8
ATOM      8  C   UNL     1       1.111   2.182  19.165  0.00  0.00    +0.000 C 
BRANCH   8   9
ATOM      9  C   UNL     1       1.320   3.154  18.015  0.00  0.00    +0.000 C 
BRANCH   9  11
ATOM     10  C   UNL     1       3.376   1.737  17.992  0.00  0.00    +0.000 C 
ATOM     11  C   UNL     1       2.662   2.907  17.341  0.00  0.00    +0.000 C 
ENDBRANCH   9  11
ENDBRANCH   8   9
ENDBRANCH   7   8
ENDBRANCH   6   7
ENDBRANCH   5   6
ENDBRANCH   4   5
ENDBRANCH   3   4
ENDBRANCH   2   3
ENDBRANCH   1   2
BRANCH   1  12
ATOM     12  C   UNL     1       6.105   6.664  17.575  0.00  0.00    +0.000 C 
BRANCH  12  13
ATOM     13  C   UNL     1       7.572   6.914  17.252  0.00  0.00    +0.000 C 
BRANCH  13  14
ATOM     14  C   UNL     1       8.168   7.899  18.249  0.00  0.00    +0.000 C 
BRANCH  14  15
ATOM     15  C   UNL     1       8.109   9.344  17.750  0.00  0.00    +0.000 C 
BRANCH  15  16
ATOM     16  C   UNL     1       9.043  10.209  18.580  0.00  0.00    +0.000 C 
ATOM     17  O   UNL     1       9.316   9.959  19.749  0.00  0.00    +0.000 OA
ATOM     18  N   UNL     1       9.574  11.289  17.908  0.00  0.00    +0.000 N 
ATOM     19  H   UNL     1       9.261  11.508  16.974  0.00  0.00    +0.000 HD
BRANCH  18  20
ATOM     20  C   UNL     1      10.475  12.215  18.599  0.00  0.00    +0.000 C 
ATOM     21  C   UNL     1      11.931  11.844  18.347  0.00  0.00    +0.000 C 
ATOM     22  C   UNL     1      10.228  13.666  18.185  0.00  0.00    +0.000 C 
ENDBRANCH  18  20
ENDBRANCH  15  16
ENDBRANCH  14  15
ENDBRANCH  13  14
ENDBRANCH  12  13
ENDBRANCH   1  12
TORSDOF 15
ENDMDL
MODEL 7
REMARK VINA RESULT:      -5.6      1.245      2.806
REMARK  Name = 
REMARK  18 active torsions:
REMARK  status: ('A' for Active; 'I' for Inactive)
REMARK    1  A    between atoms: C_1  and  C_2
REMARK    2  A    between atoms: C_2  and  C_3
REMARK    3  A    between atoms: C_3  and  C_4
REMARK    4  A    between atoms: C_4  and  C_5
REMARK    5  A    between atoms: C_5  and  C_6
REMARK    6  A    between atoms: C_6  and  C_7
REMARK    7  A    between atoms: C_7  and  C_8
REMARK    8  A    between atoms: C_8  and  C_9
REMARK    9  A    between atoms: C_9  and  C_10
REMARK   10  A    between atoms: C_10  and  C_11
REMARK   11  A    between atoms: C_11  and  C_12
REMARK   12  A    between atoms: C_12  and  C_13
REMARK   13  A    between atoms: C_13  and  C_14
REMARK   14  A    between atoms: C_14  and  C_15
REMARK   15  A    between atoms: C_15  and  C_16
REMARK   16  A    between atoms: N_18  and  C_19
REMARK   17  A    between atoms: C_19  and  C_20
REMARK   18  A    between atoms: C_19  and  C_21
REMARK                            x       y       z     vdW  Elec       q    Type
REMARK                         _______ _______ _______ _____ _____    ______ ____
ROOT
ATOM      1  C   UNL     1       5.304   5.480  18.796  0.00  0.00    +0.000 C 
ENDROOT
BRANCH   1   2
ATOM      2  C   UNL     1       4.123   6.135  18.101  0.00  0.00    +0.000 C 
BRANCH   2   3
ATOM      3  C   UNL     1       3.305   5.087  17.365  0.00  0.00    +0.000 C 
BRANCH   3   4
ATOM      4  C   UNL     1       4.022   3.748  17.396  0.00  0.00    +0.000 C 
BRANCH   4   5
ATOM      5  C   UNL     1       3.014   2.623  17.544  0.00  0.00    +0.000 C 
BRANCH   5   6
ATOM      6  C   UNL     1       3.368   1.759  18.743  0.00  0.00    +0.000 C 
BRANCH   6   7
ATOM      7  C   UNL     1       2.551   2.180  19.950  0.00  0.00    +0.000 C 
BRANCH   7   8
ATOM      8  C   UNL     1       1.168   2.638  19.511  0.00  0.00    +0.000 C 
BRANCH   8   9
ATOM      9  C   UNL     1       0.783   3.918  20.235  0.00  0.00    +0.000 C 
BRANCH   9  11
ATOM     10  C   UNL     1       1.828   6.120  20.780  0.00  0.00    +0.000 C 
ATOM     11  C   UNL     1       2.020   4.615  20.785  0.00  0.00    +0.000 C 
ENDBRANCH   9  11
ENDBRANCH   8   9
ENDBRANCH   7   8
ENDBRANCH   6   7
ENDBRANCH   5   6
ENDBRANCH   4   5
ENDBRANCH   3   4
ENDBRANCH   2   3
ENDBRANCH   1   2
BRANCH   1  12
ATOM     12  C   UNL     1       6.610   5.912  18.147  0.00  0.00    +0.000 C 
BRANCH  12  13
ATOM     13  C   UNL     1       7.517   4.707  17.929  0.00  0.00    +0.000 C 
BRANCH  13  14
ATOM     14  C   UNL     1       7.521   4.314  16.458  0.00  0.00    +0.000 C 
BRANCH  14  15
ATOM     15  C   UNL     1       6.717   5.284  15.590  0.00  0.00    +0.000 C 
BRANCH  15  16
ATOM     16  C   UNL     1       6.796   4.853  14.135  0.00  0.00    +0.000 C 
ATOM     17  O   UNL     1       7.402   5.495  13.284  0.00  0.00    +0.000 OA
ATOM     18  N   UNL     1       6.144   3.673  13.850  0.00  0.00    +0.000 N 
ATOM     19  H   UNL     1       5.587   3.217  14.558  0.00  0.00    +0.000 HD
BRANCH  18  20
ATOM     20  C   UNL     1       6.126   3.154  12.479  0.00  0.00    +0.000 C 
ATOM     21  C   UNL     1       4.763   3.378  11.834  0.00  0.00    +0.000 C 
ATOM     22  C   UNL     1       7.219   3.785  11.618  0.00  0.00    +0.000 C 
ENDBRANCH  18  20
ENDBRANCH  15  16
ENDBRANCH  14  15
ENDBRANCH  13  14
ENDBRANCH  12  13
ENDBRANCH   1  12
TORSDOF 15
ENDMDL
MODEL 8
REMARK VINA RESULT:      -5.6      3.922      7.492
REMARK  Name = 
REMARK  18 active torsions:
REMARK  status: ('A' for Active; 'I' for Inactive)
REMARK    1  A    between atoms: C_1  and  C_2
REMARK    2  A    between atoms: C_2  and  C_3
REMARK    3  A    between atoms: C_3  and  C_4
REMARK    4  A    between atoms: C_4  and  C_5
REMARK    5  A    between atoms: C_5  and  C_6
REMARK    6  A    between atoms: C_6  and  C_7
REMARK    7  A    between atoms: C_7  and  C_8
REMARK    8  A    between atoms: C_8  and  C_9
REMARK    9  A    between atoms: C_9  and  C_10
REMARK   10  A    between atoms: C_10  and  C_11
REMARK   11  A    between atoms: C_11  and  C_12
REMARK   12  A    between atoms: C_12  and  C_13
REMARK   13  A    between atoms: C_13  and  C_14
REMARK   14  A    between atoms: C_14  and  C_15
REMARK   15  A    between atoms: C_15  and  C_16
REMARK   16  A    between atoms: N_18  and  C_19
REMARK   17  A    between atoms: C_19  and  C_20
REMARK   18  A    between atoms: C_19  and  C_21
REMARK                            x       y       z     vdW  Elec       q    Type
REMARK                         _______ _______ _______ _____ _____    ______ ____
ROOT
ATOM      1  C   UNL     1       2.071   5.159  20.928  0.00  0.00    +0.000 C 
ENDROOT
BRANCH   1   2
ATOM      2  C   UNL     1       1.714   3.683  20.970  0.00  0.00    +0.000 C 
BRANCH   2   3
ATOM      3  C   UNL     1       2.694   2.885  20.127  0.00  0.00    +0.000 C 
BRANCH   3   4
ATOM      4  C   UNL     1       1.941   2.016  19.134  0.00  0.00    +0.000 C 
BRANCH   4   5
ATOM      5  C   UNL     1       2.372   2.353  17.718  0.00  0.00    +0.000 C 
BRANCH   5   6
ATOM      6  C   UNL     1       3.820   2.813  17.709  0.00  0.00    +0.000 C 
BRANCH   6   7
ATOM      7  C   UNL     1       4.033   3.845  16.615  0.00  0.00    +0.000 C 
BRANCH   7   8
ATOM      8  C   UNL     1       5.274   4.673  16.914  0.00  0.00    +0.000 C 
BRANCH   8   9
ATOM      9  C   UNL     1       5.733   5.402  15.661  0.00  0.00    +0.000 C 
BRANCH   9  11
ATOM     10  C   UNL     1       6.198   3.884  13.734  0.00  0.00    +0.000 C 
ATOM     11  C   UNL     1       6.798   4.597  14.931  0.00  0.00    +0.000 C 
ENDBRANCH   9  11
ENDBRANCH   8   9
ENDBRANCH   7   8
ENDBRANCH   6   7
ENDBRANCH   5   6
ENDBRANCH   4   5
ENDBRANCH   3   4
ENDBRANCH   2   3
ENDBRANCH   1   2
BRANCH   1  12
ATOM     12  C   UNL     1       3.090   5.428  19.831  0.00  0.00    +0.000 C 
BRANCH  12  13
ATOM     13  C   UNL     1       2.503   6.367  18.784  0.00  0.00    +0.000 C 
BRANCH  13  14
ATOM     14  C   UNL     1       2.164   7.710  19.416  0.00  0.00    +0.000 C 
BRANCH  14  15
ATOM     15  C   UNL     1       1.794   8.770  18.376  0.00  0.00    +0.000 C 
BRANCH  15  16
ATOM     16  C   UNL     1       0.813   9.759  18.983  0.00  0.00    +0.000 C 
ATOM     17  O   UNL     1       0.521   9.759  20.174  0.00  0.00    +0.000 OA
ATOM     18  N   UNL     1       0.289  10.669  18.090  0.00  0.00    +0.000 N 
ATOM     19  H   UNL     1       0.489  10.585  17.104  0.00  0.00    +0.000 HD
BRANCH  18  20
ATOM     20  C   UNL     1      -0.685  11.666  18.542  0.00  0.00    +0.000 C 
ATOM     21  C   UNL     1      -0.131  13.076  18.381  0.00  0.00    +0.000 C 
ATOM     22  C   UNL     1      -2.014  11.542  17.797  0.00  0.00    +0.000 C 
ENDBRANCH  18  20
ENDBRANCH  15  16
ENDBRANCH  14  15
ENDBRANCH  13  14
ENDBRANCH  12  13
ENDBRANCH   1  12
TORSDOF 15
ENDMDL
MODEL 9
REMARK VINA RESULT:      -5.6      4.749      8.049
REMARK  Name = 
REMARK  18 active torsions:
REMARK  status: ('A' for Active; 'I' for Inactive)
REMARK    1  A    between atoms: C_1  and  C_2
REMARK    2  A    between atoms: C_2  and  C_3
REMARK    3  A    between atoms: C_3  and  C_4
REMARK    4  A    between atoms: C_4  and  C_5
REMARK    5  A    between atoms: C_5  and  C_6
REMARK    6  A    between atoms: C_6  and  C_7
REMARK    7  A    between atoms: C_7  and  C_8
REMARK    8  A    between atoms: C_8  and  C_9
REMARK    9  A    between atoms: C_9  and  C_10
REMARK   10  A    between atoms: C_10  and  C_11
REMARK   11  A    between atoms: C_11  and  C_12
REMARK   12  A    between atoms: C_12  and  C_13
REMARK   13  A    between atoms: C_13  and  C_14
REMARK   14  A    between atoms: C_14  and  C_15
REMARK   15  A    between atoms: C_15  and  C_16
REMARK   16  A    between atoms: N_18  and  C_19
REMARK   17  A    between atoms: C_19  and  C_20
REMARK   18  A    between atoms: C_19  and  C_21
REMARK                            x       y       z     vdW  Elec       q    Type
REMARK                         _______ _______ _______ _____ _____    ______ ____
ROOT
ATOM      1  C   UNL     1       2.657   7.104  17.622  0.00  0.00    +0.000 C 
ENDROOT
BRANCH   1   2
ATOM      2  C   UNL     1       4.112   6.752  17.885  0.00  0.00    +0.000 C 
BRANCH   2   3
ATOM      3  C   UNL     1       4.910   6.843  16.596  0.00  0.00    +0.000 C 
BRANCH   3   4
ATOM      4  C   UNL     1       5.196   5.451  16.058  0.00  0.00    +0.000 C 
BRANCH   4   5
ATOM      5  C   UNL     1       5.284   4.460  17.205  0.00  0.00    +0.000 C 
BRANCH   5   6
ATOM      6  C   UNL     1       4.294   3.327  16.994  0.00  0.00    +0.000 C 
BRANCH   6   7
ATOM      7  C   UNL     1       3.641   2.951  18.312  0.00  0.00    +0.000 C 
BRANCH   7   8
ATOM      8  C   UNL     1       2.165   2.648  18.095  0.00  0.00    +0.000 C 
BRANCH   8   9
ATOM      9  C   UNL     1       1.316   3.823  18.552  0.00  0.00    +0.000 C 
BRANCH   9  11
ATOM     10  C   UNL     1       1.173   3.079  20.931  0.00  0.00    +0.000 C 
ATOM     11  C   UNL     1       1.631   4.184  19.996  0.00  0.00    +0.000 C 
ENDBRANCH   9  11
ENDBRANCH   8   9
ENDBRANCH   7   8
ENDBRANCH   6   7
ENDBRANCH   5   6
ENDBRANCH   4   5
ENDBRANCH   3   4
ENDBRANCH   2   3
ENDBRANCH   1   2
BRANCH   1  12
ATOM     12  C   UNL     1       2.167   8.128  18.635  0.00  0.00    +0.000 C 
BRANCH  12  13
ATOM     13  C   UNL     1       1.433   9.261  17.929  0.00  0.00    +0.000 C 
BRANCH  13  14
ATOM     14  C   UNL     1       0.888  10.249  18.952  0.00  0.00    +0.000 C 
BRANCH  14  15
ATOM     15  C   UNL     1      -0.626  10.124  19.139  0.00  0.00    +0.000 C 
BRANCH  15  16
ATOM     16  C   UNL     1      -1.340  10.970  18.099  0.00  0.00    +0.000 C 
ATOM     17  O   UNL     1      -1.191  12.184  18.014  0.00  0.00    +0.000 OA
ATOM     18  N   UNL     1      -2.159  10.262  17.245  0.00  0.00    +0.000 N 
ATOM     19  H   UNL     1      -2.321   9.277  17.399  0.00  0.00    +0.000 HD
BRANCH  18  20
ATOM     20  C   UNL     1      -2.922  10.961  16.208  0.00  0.00    +0.000 C 
ATOM     21  C   UNL     1      -2.913  10.172  14.905  0.00  0.00    +0.000 C 
ATOM     22  C   UNL     1      -4.363  11.228  16.645  0.00  0.00    +0.000 C 
ENDBRANCH  18  20
ENDBRANCH  15  16
ENDBRANCH  14  15
ENDBRANCH  13  14
ENDBRANCH  12  13
ENDBRANCH   1  12
TORSDOF 15
ENDMDL
