MODEL 1
REMARK VINA RESULT:      -7.1      0.000      0.000
REMARK  Name = 
REMARK  10 active torsions:
REMARK  status: ('A' for Active; 'I' for Inactive)
REMARK    1  A    between atoms: C_1  and  C_2
REMARK    2  A    between atoms: C_4  and  C_5
REMARK    3  A    between atoms: C_5  and  C_6
REMARK    4  A    between atoms: C_6  and  C_7
REMARK    5  A    between atoms: C_6  and  C_8
REMARK    6  A    between atoms: C_11  and  C_12
REMARK    7  A    between atoms: C_16  and  S_17
REMARK    8  A    between atoms: S_17  and  N_20
REMARK    9  A    between atoms: N_20  and  C_21
REMARK   10  A    between atoms: C_24  and  C_25
REMARK                            x       y       z     vdW  Elec       q    Type
REMARK                         _______ _______ _______ _____ _____    ______ ____
ROOT
ATOM      1  C   UNL     1       1.235  11.231  18.743  0.00  0.00    +0.000 A 
ATOM      2  C   UNL     1       2.217  12.256  18.413  0.00  0.00    +0.000 A 
ATOM      3  C   UNL     1       1.696  13.518  18.275  0.00  0.00    +0.000 A 
ATOM      4  S   UNL     1       0.023  13.520  18.508  0.00  0.00    +0.000 S 
ATOM      5  C   UNL     1      -0.038  11.820  18.824  0.00  0.00    +0.000 A 
ENDROOT
BRANCH   1  12
ATOM      6  C   UNL     1       0.812   9.542  21.411  0.00  0.00    +0.000 C 
ATOM      7  C   UNL     1       1.430   9.056  20.139  0.00  0.00    +0.000 A 
ATOM      8  C   UNL     1       1.806   7.700  20.197  0.00  0.00    +0.000 A 
ATOM      9  C   UNL     1       2.319   7.012  19.103  0.00  0.00    +0.000 A 
ATOM     10  C   UNL     1       2.480   7.721  17.920  0.00  0.00    +0.000 A 
ATOM     11  C   UNL     1       2.170   9.092  17.868  0.00  0.00    +0.000 A 
ATOM     12  C   UNL     1       1.638   9.806  18.973  0.00  0.00    +0.000 A 
BRANCH   9  13
ATOM     13  C   UNL     1       2.634   5.548  19.263  0.00  0.00    +0.000 C 
BRANCH  13  14
ATOM     14  C   UNL     1       1.411   4.620  19.313  0.00  0.00    +0.000 C 
ATOM     15  C   UNL     1       1.461   3.526  18.240  0.00  0.00    +0.000 C 
ATOM     16  C   UNL     1       1.329   3.973  20.697  0.00  0.00    +0.000 C 
ENDBRANCH  13  14
ENDBRANCH   9  13
ENDBRANCH   1  12
BRANCH   5  17
ATOM     17  S   UNL     1      -1.722  11.295  19.172  0.00  0.00    +0.000 S 
ATOM     18  O   UNL     1      -1.845   9.996  18.543  0.00  0.00    +0.000 OA
ATOM     19  O   UNL     1      -1.911  11.528  20.586  0.00  0.00    +0.000 OA
BRANCH  17  20
ATOM     20  N   UNL     1      -2.853  12.200  18.275  0.00  0.00    +0.000 N 
ATOM     21  H   UNL     1      -2.651  11.859  17.326  0.00  0.00    +0.000 HD
BRANCH  20  22
ATOM     22  C   UNL     1      -4.168  11.740  18.598  0.00  0.00    +0.000 A 
ATOM     23  O   UNL     1      -4.818  10.724  17.964  0.00  0.00    +0.000 OA
ATOM     24  N   UNL     1      -6.098  10.597  18.487  0.00  0.00    +0.000 NA
ATOM     25  C   UNL     1      -6.205  11.560  19.418  0.00  0.00    +0.000 A 
ATOM     26  C   UNL     1      -7.481  11.776  20.135  0.00  0.00    +0.000 C 
ATOM     27  C   UNL     1      -5.003  12.285  19.531  0.00  0.00    +0.000 A 
ATOM     28 BR   UNL     1      -4.680  13.735  20.666  0.00  0.00    +0.000 Br
ENDBRANCH  20  22
ENDBRANCH  17  20
ENDBRANCH   5  17
TORSDOF 6
ENDMDL
MODEL 2
REMARK VINA RESULT:      -7.1      7.015     10.306
REMARK  Name = 
REMARK  10 active torsions:
REMARK  status: ('A' for Active; 'I' for Inactive)
REMARK    1  A    between atoms: C_1  and  C_2
REMARK    2  A    between atoms: C_4  and  C_5
REMARK    3  A    between atoms: C_5  and  C_6
REMARK    4  A    between atoms: C_6  and  C_7
REMARK    5  A    between atoms: C_6  and  C_8
REMARK    6  A    between atoms: C_11  and  C_12
REMARK    7  A    between atoms: C_16  and  S_17
REMARK    8  A    between atoms: S_17  and  N_20
REMARK    9  A    between atoms: N_20  and  C_21
REMARK   10  A    between atoms: C_24  and  C_25
REMARK                            x       y       z     vdW  Elec       q    Type
REMARK                         _______ _______ _______ _____ _____    ______ ____
ROOT
ATOM      1  C   UNL     1       2.463   4.715  18.210  0.00  0.00    +0.000 A 
ATOM      2  C   UNL     1       1.538   3.637  18.536  0.00  0.00    +0.000 A 
ATOM      3  C   UNL     1       1.992   2.384  18.214  0.00  0.00    +0.000 A 
ATOM      4  S   UNL     1       3.517   2.449  17.492  0.00  0.00    +0.000 S 
ATOM      5  C   UNL     1       3.615   4.172  17.617  0.00  0.00    +0.000 A 
ENDROOT
BRANCH   1  12
ATOM      6  C   UNL     1       1.893   5.928  21.101  0.00  0.00    +0.000 C 
ATOM      7  C   UNL     1       1.921   6.681  19.810  0.00  0.00    +0.000 A 
ATOM      8  C   UNL     1       1.694   8.062  19.976  0.00  0.00    +0.000 A 
ATOM      9  C   UNL     1       1.761   8.970  18.926  0.00  0.00    +0.000 A 
ATOM     10  C   UNL     1       2.041   8.466  17.663  0.00  0.00    +0.000 A 
ATOM     11  C   UNL     1       2.204   7.082  17.472  0.00  0.00    +0.000 A 
ATOM     12  C   UNL     1       2.147   6.144  18.535  0.00  0.00    +0.000 A 
BRANCH   9  13
ATOM     13  C   UNL     1       1.557  10.431  19.229  0.00  0.00    +0.000 C 
BRANCH  13  14
ATOM     14  C   UNL     1       0.190  10.787  19.832  0.00  0.00    +0.000 C 
ATOM     15  C   UNL     1       0.094  12.261  20.237  0.00  0.00    +0.000 C 
ATOM     16  C   UNL     1      -0.906  10.465  18.813  0.00  0.00    +0.000 C 
ENDBRANCH  13  14
ENDBRANCH   9  13
ENDBRANCH   1  12
BRANCH   5  17
ATOM     17  S   UNL     1       5.173   4.773  16.953  0.00  0.00    +0.000 S 
ATOM     18  O   UNL     1       4.801   5.770  15.970  0.00  0.00    +0.000 OA
ATOM     19  O   UNL     1       6.001   5.048  18.107  0.00  0.00    +0.000 OA
BRANCH  17  20
ATOM     20  N   UNL     1       5.921   3.604  15.964  0.00  0.00    +0.000 N 
ATOM     21  H   UNL     1       5.100   3.225  15.474  0.00  0.00    +0.000 HD
BRANCH  20  22
ATOM     22  C   UNL     1       6.707   4.274  14.975  0.00  0.00    +0.000 A 
ATOM     23  O   UNL     1       7.738   5.123  15.241  0.00  0.00    +0.000 OA
ATOM     24  N   UNL     1       8.225   5.646  14.050  0.00  0.00    +0.000 NA
ATOM     25  C   UNL     1       7.459   5.115  13.082  0.00  0.00    +0.000 A 
ATOM     26  C   UNL     1       7.644   5.515  11.670  0.00  0.00    +0.000 C 
ATOM     27  C   UNL     1       6.507   4.229  13.624  0.00  0.00    +0.000 A 
ATOM     28 BR   UNL     1       5.205   3.278  12.678  0.00  0.00    +0.000 Br
ENDBRANCH  20  22
ENDBRANCH  17  20
ENDBRANCH   5  17
TORSDOF 6
ENDMDL
MODEL 3
REMARK VINA RESULT:      -7.1      6.633      9.750
REMARK  Name = 
REMARK  10 active torsions:
REMARK  status: ('A' for Active; 'I' for Inactive)
REMARK    1  A    between atoms: C_1  and  C_2
REMARK    2  A    between atoms: C_4  and  C_5
REMARK    3  A    between atoms: C_5  and  C_6
REMARK    4  A    between atoms: C_6  and  C_7
REMARK    5  A    between atoms: C_6  and  C_8
REMARK    6  A    between atoms: C_11  and  C_12
REMARK    7  A    between atoms: C_16  and  S_17
REMARK    8  A    between atoms: S_17  and  N_20
REMARK    9  A    between atoms: N_20  and  C_21
REMARK   10  A    between atoms: C_24  and  C_25
REMARK                            x       y       z     vdW  Elec       q    Type
REMARK                         _______ _______ _______ _____ _____    ______ ____
ROOT
ATOM      1  C   UNL     1       2.031   4.325  18.725  0.00  0.00    +0.000 A 
ATOM      2  C   UNL     1       0.866   3.501  18.430  0.00  0.00    +0.000 A 
ATOM      3  C   UNL     1       1.093   2.150  18.508  0.00  0.00    +0.000 A 
ATOM      4  S   UNL     1       2.700   1.818  18.910  0.00  0.00    +0.000 S 
ATOM      5  C   UNL     1       3.126   3.493  19.012  0.00  0.00    +0.000 A 
ENDROOT
BRANCH   1  12
ATOM      6  C   UNL     1       1.627   6.202  21.269  0.00  0.00    +0.000 C 
ATOM      7  C   UNL     1       1.797   6.648  19.852  0.00  0.00    +0.000 A 
ATOM      8  C   UNL     1       1.800   8.050  19.717  0.00  0.00    +0.000 A 
ATOM      9  C   UNL     1       2.031   8.691  18.505  0.00  0.00    +0.000 A 
ATOM     10  C   UNL     1       2.243   7.892  17.390  0.00  0.00    +0.000 A 
ATOM     11  C   UNL     1       2.178   6.491  17.499  0.00  0.00    +0.000 A 
ATOM     12  C   UNL     1       1.951   5.822  18.730  0.00  0.00    +0.000 A 
BRANCH   9  13
ATOM     13  C   UNL     1       2.067  10.196  18.488  0.00  0.00    +0.000 C 
BRANCH  13  14
ATOM     14  C   UNL     1       0.811  10.885  19.041  0.00  0.00    +0.000 C 
ATOM     15  C   UNL     1       0.876  12.411  18.918  0.00  0.00    +0.000 C 
ATOM     16  C   UNL     1      -0.418  10.364  18.291  0.00  0.00    +0.000 C 
ENDBRANCH  13  14
ENDBRANCH   9  13
ENDBRANCH   1  12
BRANCH   5  17
ATOM     17  S   UNL     1       4.856   3.685  19.462  0.00  0.00    +0.000 S 
ATOM     18  O   UNL     1       4.965   5.042  19.956  0.00  0.00    +0.000 OA
ATOM     19  O   UNL     1       5.180   2.513  20.245  0.00  0.00    +0.000 OA
BRANCH  17  20
ATOM     20  N   UNL     1       5.853   3.760  18.082  0.00  0.00    +0.000 N 
ATOM     21  H   UNL     1       5.153   3.965  17.359  0.00  0.00    +0.000 HD
BRANCH  20  22
ATOM     22  C   UNL     1       6.686   4.918  18.180  0.00  0.00    +0.000 A 
ATOM     23  O   UNL     1       7.656   5.106  19.116  0.00  0.00    +0.000 OA
ATOM     24  N   UNL     1       8.213   6.369  18.959  0.00  0.00    +0.000 NA
ATOM     25  C   UNL     1       7.547   6.931  17.937  0.00  0.00    +0.000 A 
ATOM     26  C   UNL     1       7.825   8.328  17.535  0.00  0.00    +0.000 C 
ATOM     27  C   UNL     1       6.594   6.041  17.407  0.00  0.00    +0.000 A 
ATOM     28 BR   UNL     1       5.410   6.384  16.001  0.00  0.00    +0.000 Br
ENDBRANCH  20  22
ENDBRANCH  17  20
ENDBRANCH   5  17
TORSDOF 6
ENDMDL
MODEL 4
REMARK VINA RESULT:      -7.0      1.397      1.630
REMARK  Name = 
REMARK  10 active torsions:
REMARK  status: ('A' for Active; 'I' for Inactive)
REMARK    1  A    between atoms: C_1  and  C_2
REMARK    2  A    between atoms: C_4  and  C_5
REMARK    3  A    between atoms: C_5  and  C_6
REMARK    4  A    between atoms: C_6  and  C_7
REMARK    5  A    between atoms: C_6  and  C_8
REMARK    6  A    between atoms: C_11  and  C_12
REMARK    7  A    between atoms: C_16  and  S_17
REMARK    8  A    between atoms: S_17  and  N_20
REMARK    9  A    between atoms: N_20  and  C_21
REMARK   10  A    between atoms: C_24  and  C_25
REMARK                            x       y       z     vdW  Elec       q    Type
REMARK                         _______ _______ _______ _____ _____    ______ ____
ROOT
ATOM      1  C   UNL     1       1.171  11.564  18.939  0.00  0.00    +0.000 A 
ATOM      2  C   UNL     1       2.149  12.551  18.499  0.00  0.00    +0.000 A 
ATOM      3  C   UNL     1       1.672  13.835  18.443  0.00  0.00    +0.000 A 
ATOM      4  S   UNL     1       0.044  13.907  18.886  0.00  0.00    +0.000 S 
ATOM      5  C   UNL     1      -0.053  12.206  19.189  0.00  0.00    +0.000 A 
ENDROOT
BRANCH   1  12
ATOM      6  C   UNL     1       0.945   9.831  21.604  0.00  0.00    +0.000 C 
ATOM      7  C   UNL     1       1.412   9.351  20.267  0.00  0.00    +0.000 A 
ATOM      8  C   UNL     1       1.736   7.979  20.261  0.00  0.00    +0.000 A 
ATOM      9  C   UNL     1       2.108   7.298  19.108  0.00  0.00    +0.000 A 
ATOM     10  C   UNL     1       2.181   8.027  17.929  0.00  0.00    +0.000 A 
ATOM     11  C   UNL     1       1.924   9.410  17.935  0.00  0.00    +0.000 A 
ATOM     12  C   UNL     1       1.535  10.119  19.101  0.00  0.00    +0.000 A 
BRANCH   9  13
ATOM     13  C   UNL     1       2.376   5.819  19.207  0.00  0.00    +0.000 C 
BRANCH  13  14
ATOM     14  C   UNL     1       2.642   5.113  17.869  0.00  0.00    +0.000 C 
ATOM     15  C   UNL     1       4.089   4.626  17.741  0.00  0.00    +0.000 C 
ATOM     16  C   UNL     1       1.689   3.924  17.731  0.00  0.00    +0.000 C 
ENDBRANCH  13  14
ENDBRANCH   9  13
ENDBRANCH   1  12
BRANCH   5  17
ATOM     17  S   UNL     1      -1.701  11.749  19.742  0.00  0.00    +0.000 S 
ATOM     18  O   UNL     1      -2.099  10.660  18.873  0.00  0.00    +0.000 OA
ATOM     19  O   UNL     1      -1.605  11.639  21.180  0.00  0.00    +0.000 OA
BRANCH  17  20
ATOM     20  N   UNL     1      -2.850  12.936  19.322  0.00  0.00    +0.000 N 
ATOM     21  H   UNL     1      -2.947  12.751  18.316  0.00  0.00    +0.000 HD
BRANCH  20  22
ATOM     22  C   UNL     1      -4.103  12.593  19.919  0.00  0.00    +0.000 A 
ATOM     23  O   UNL     1      -4.382  12.671  21.250  0.00  0.00    +0.000 OA
ATOM     24  N   UNL     1      -5.665  12.193  21.482  0.00  0.00    +0.000 NA
ATOM     25  C   UNL     1      -6.131  11.812  20.281  0.00  0.00    +0.000 A 
ATOM     26  C   UNL     1      -7.459  11.171  20.157  0.00  0.00    +0.000 C 
ATOM     27  C   UNL     1      -5.186  12.070  19.270  0.00  0.00    +0.000 A 
ATOM     28 BR   UNL     1      -5.368  11.684  17.450  0.00  0.00    +0.000 Br
ENDBRANCH  20  22
ENDBRANCH  17  20
ENDBRANCH   5  17
TORSDOF 6
ENDMDL
MODEL 5
REMARK VINA RESULT:      -6.9      7.327      9.484
REMARK  Name = 
REMARK  10 active torsions:
REMARK  status: ('A' for Active; 'I' for Inactive)
REMARK    1  A    between atoms: C_1  and  C_2
REMARK    2  A    between atoms: C_4  and  C_5
REMARK    3  A    between atoms: C_5  and  C_6
REMARK    4  A    between atoms: C_6  and  C_7
REMARK    5  A    between atoms: C_6  and  C_8
REMARK    6  A    between atoms: C_11  and  C_12
REMARK    7  A    between atoms: C_16  and  S_17
REMARK    8  A    between atoms: S_17  and  N_20
REMARK    9  A    between atoms: N_20  and  C_21
REMARK   10  A    between atoms: C_24  and  C_25
REMARK                            x       y       z     vdW  Elec       q    Type
REMARK                         _______ _______ _______ _____ _____    ______ ____
ROOT
ATOM      1  C   UNL     1       6.500   5.747  16.924  0.00  0.00    +0.000 A 
ATOM      2  C   UNL     1       7.201   4.836  16.029  0.00  0.00    +0.000 A 
ATOM      3  C   UNL     1       6.397   3.899  15.431  0.00  0.00    +0.000 A 
ATOM      4  S   UNL     1       4.792   4.055  15.931  0.00  0.00    +0.000 S 
ATOM      5  C   UNL     1       5.136   5.409  16.953  0.00  0.00    +0.000 A 
ENDROOT
BRANCH   1  12
ATOM      6  C   UNL     1       8.316   5.497  19.530  0.00  0.00    +0.000 C 
ATOM      7  C   UNL     1       8.034   6.746  18.759  0.00  0.00    +0.000 A 
ATOM      8  C   UNL     1       8.699   7.874  19.281  0.00  0.00    +0.000 A 
ATOM      9  C   UNL     1       8.653   9.124  18.675  0.00  0.00    +0.000 A 
ATOM     10  C   UNL     1       7.894   9.247  17.519  0.00  0.00    +0.000 A 
ATOM     11  C   UNL     1       7.173   8.145  17.024  0.00  0.00    +0.000 A 
ATOM     12  C   UNL     1       7.216   6.861  17.627  0.00  0.00    +0.000 A 
BRANCH   9  13
ATOM     13  C   UNL     1       9.449  10.245  19.289  0.00  0.00    +0.000 C 
BRANCH  13  14
ATOM     14  C   UNL     1       9.991  11.282  18.294  0.00  0.00    +0.000 C 
ATOM     15  C   UNL     1       9.192  12.589  18.314  0.00  0.00    +0.000 C 
ATOM     16  C   UNL     1      11.457  11.574  18.623  0.00  0.00    +0.000 C 
ENDBRANCH  13  14
ENDBRANCH   9  13
ENDBRANCH   1  12
BRANCH   5  17
ATOM     17  S   UNL     1       3.641   5.999  17.757  0.00  0.00    +0.000 S 
ATOM     18  O   UNL     1       3.569   7.407  17.425  0.00  0.00    +0.000 OA
ATOM     19  O   UNL     1       2.617   5.037  17.414  0.00  0.00    +0.000 OA
BRANCH  17  20
ATOM     20  N   UNL     1       3.831   6.072  19.449  0.00  0.00    +0.000 N 
ATOM     21  H   UNL     1       3.539   7.042  19.626  0.00  0.00    +0.000 HD
BRANCH  20  22
ATOM     22  C   UNL     1       2.844   5.235  20.058  0.00  0.00    +0.000 A 
ATOM     23  O   UNL     1       1.644   5.665  20.538  0.00  0.00    +0.000 OA
ATOM     24  N   UNL     1       0.973   4.600  21.126  0.00  0.00    +0.000 NA
ATOM     25  C   UNL     1       1.796   3.546  21.008  0.00  0.00    +0.000 A 
ATOM     26  C   UNL     1       1.436   2.239  21.601  0.00  0.00    +0.000 C 
ATOM     27  C   UNL     1       2.974   3.901  20.321  0.00  0.00    +0.000 A 
ATOM     28 BR   UNL     1       4.424   2.783  19.945  0.00  0.00    +0.000 Br
ENDBRANCH  20  22
ENDBRANCH  17  20
ENDBRANCH   5  17
TORSDOF 6
ENDMDL
MODEL 6
REMARK VINA RESULT:      -6.9      6.762      9.702
REMARK  Name = 
REMARK  10 active torsions:
REMARK  status: ('A' for Active; 'I' for Inactive)
REMARK    1  A    between atoms: C_1  and  C_2
REMARK    2  A    between atoms: C_4  and  C_5
REMARK    3  A    between atoms: C_5  and  C_6
REMARK    4  A    between atoms: C_6  and  C_7
REMARK    5  A    between atoms: C_6  and  C_8
REMARK    6  A    between atoms: C_11  and  C_12
REMARK    7  A    between atoms: C_16  and  S_17
REMARK    8  A    between atoms: S_17  and  N_20
REMARK    9  A    between atoms: N_20  and  C_21
REMARK   10  A    between atoms: C_24  and  C_25
REMARK                            x       y       z     vdW  Elec       q    Type
REMARK                         _______ _______ _______ _____ _____    ______ ____
ROOT
ATOM      1  C   UNL     1       2.515   4.686  18.256  0.00  0.00    +0.000 A 
ATOM      2  C   UNL     1       1.633   4.057  17.281  0.00  0.00    +0.000 A 
ATOM      3  C   UNL     1       2.134   2.910  16.719  0.00  0.00    +0.000 A 
ATOM      4  S   UNL     1       3.677   2.559  17.311  0.00  0.00    +0.000 S 
ATOM      5  C   UNL     1       3.698   3.935  18.361  0.00  0.00    +0.000 A 
ENDROOT
BRANCH   1  12
ATOM      6  C   UNL     1       1.823   4.898  21.359  0.00  0.00    +0.000 C 
ATOM      7  C   UNL     1       1.826   6.019  20.369  0.00  0.00    +0.000 A 
ATOM      8  C   UNL     1       1.513   7.264  20.951  0.00  0.00    +0.000 A 
ATOM      9  C   UNL     1       1.542   8.457  20.239  0.00  0.00    +0.000 A 
ATOM     10  C   UNL     1       1.873   8.391  18.893  0.00  0.00    +0.000 A 
ATOM     11  C   UNL     1       2.124   7.148  18.285  0.00  0.00    +0.000 A 
ATOM     12  C   UNL     1       2.107   5.921  19.000  0.00  0.00    +0.000 A 
BRANCH   9  13
ATOM     13  C   UNL     1       1.244   9.736  20.977  0.00  0.00    +0.000 C 
BRANCH  13  14
ATOM     14  C   UNL     1      -0.196   9.871  21.493  0.00  0.00    +0.000 C 
ATOM     15  C   UNL     1      -0.289   9.731  23.016  0.00  0.00    +0.000 C 
ATOM     16  C   UNL     1      -0.756  11.231  21.070  0.00  0.00    +0.000 C 
ENDBRANCH  13  14
ENDBRANCH   9  13
ENDBRANCH   1  12
BRANCH   5  17
ATOM     17  S   UNL     1       5.234   4.004  19.292  0.00  0.00    +0.000 S 
ATOM     18  O   UNL     1       5.295   5.355  19.812  0.00  0.00    +0.000 OA
ATOM     19  O   UNL     1       5.233   2.820  20.121  0.00  0.00    +0.000 OA
BRANCH  17  20
ATOM     20  N   UNL     1       6.589   3.992  18.258  0.00  0.00    +0.000 N 
ATOM     21  H   UNL     1       6.124   3.902  17.346  0.00  0.00    +0.000 HD
BRANCH  20  22
ATOM     22  C   UNL     1       7.193   5.288  18.278  0.00  0.00    +0.000 A 
ATOM     23  O   UNL     1       8.157   5.687  19.154  0.00  0.00    +0.000 OA
ATOM     24  N   UNL     1       8.458   7.024  18.932  0.00  0.00    +0.000 NA
ATOM     25  C   UNL     1       7.649   7.416  17.933  0.00  0.00    +0.000 A 
ATOM     26  C   UNL     1       7.640   8.824  17.480  0.00  0.00    +0.000 C 
ATOM     27  C   UNL     1       6.855   6.344  17.481  0.00  0.00    +0.000 A 
ATOM     28 BR   UNL     1       5.560   6.410  16.134  0.00  0.00    +0.000 Br
ENDBRANCH  20  22
ENDBRANCH  17  20
ENDBRANCH   5  17
TORSDOF 6
ENDMDL
MODEL 7
REMARK VINA RESULT:      -6.9      3.644      5.682
REMARK  Name = 
REMARK  10 active torsions:
REMARK  status: ('A' for Active; 'I' for Inactive)
REMARK    1  A    between atoms: C_1  and  C_2
REMARK    2  A    between atoms: C_4  and  C_5
REMARK    3  A    between atoms: C_5  and  C_6
REMARK    4  A    between atoms: C_6  and  C_7
REMARK    5  A    between atoms: C_6  and  C_8
REMARK    6  A    between atoms: C_11  and  C_12
REMARK    7  A    between atoms: C_16  and  S_17
REMARK    8  A    between atoms: S_17  and  N_20
REMARK    9  A    between atoms: N_20  and  C_21
REMARK   10  A    between atoms: C_24  and  C_25
REMARK                            x       y       z     vdW  Elec       q    Type
REMARK                         _______ _______ _______ _____ _____    ______ ____
ROOT
ATOM      1  C   UNL     1       0.122  10.622  18.741  0.00  0.00    +0.000 A 
ATOM      2  C   UNL     1      -1.136  10.529  18.012  0.00  0.00    +0.000 A 
ATOM      3  C   UNL     1      -1.831  11.708  17.927  0.00  0.00    +0.000 A 
ATOM      4  S   UNL     1      -1.026  12.957  18.730  0.00  0.00    +0.000 S 
ATOM      5  C   UNL     1       0.296  11.940  19.195  0.00  0.00    +0.000 A 
ENDROOT
BRANCH   1  12
ATOM      6  C   UNL     1       0.446   8.789  21.327  0.00  0.00    +0.000 C 
ATOM      7  C   UNL     1       1.154   8.619  20.021  0.00  0.00    +0.000 A 
ATOM      8  C   UNL     1       2.007   7.497  20.003  0.00  0.00    +0.000 A 
ATOM      9  C   UNL     1       2.699   7.094  18.867  0.00  0.00    +0.000 A 
ATOM     10  C   UNL     1       2.546   7.860  17.719  0.00  0.00    +0.000 A 
ATOM     11  C   UNL     1       1.749   9.019  17.743  0.00  0.00    +0.000 A 
ATOM     12  C   UNL     1       1.030   9.439  18.892  0.00  0.00    +0.000 A 
BRANCH   9  13
ATOM     13  C   UNL     1       3.538   5.846  18.947  0.00  0.00    +0.000 C 
BRANCH  13  14
ATOM     14  C   UNL     1       3.361   4.865  17.778  0.00  0.00    +0.000 C 
ATOM     15  C   UNL     1       4.393   3.734  17.799  0.00  0.00    +0.000 C 
ATOM     16  C   UNL     1       1.951   4.271  17.831  0.00  0.00    +0.000 C 
ENDBRANCH  13  14
ENDBRANCH   9  13
ENDBRANCH   1  12
BRANCH   5  17
ATOM     17  S   UNL     1       1.520  12.872  20.125  0.00  0.00    +0.000 S 
ATOM     18  O   UNL     1       1.668  12.151  21.374  0.00  0.00    +0.000 OA
ATOM     19  O   UNL     1       2.605  13.110  19.199  0.00  0.00    +0.000 OA
BRANCH  17  20
ATOM     20  N   UNL     1       0.887  14.354  20.678  0.00  0.00    +0.000 N 
ATOM     21  H   UNL     1       0.263  14.021  21.424  0.00  0.00    +0.000 HD
BRANCH  20  22
ATOM     22  C   UNL     1       1.931  15.088  21.322  0.00  0.00    +0.000 A 
ATOM     23  O   UNL     1       2.355  14.884  22.601  0.00  0.00    +0.000 OA
ATOM     24  N   UNL     1       3.330  15.821  22.919  0.00  0.00    +0.000 NA
ATOM     25  C   UNL     1       3.462  16.591  21.826  0.00  0.00    +0.000 A 
ATOM     26  C   UNL     1       4.370  17.758  21.832  0.00  0.00    +0.000 C 
ATOM     27  C   UNL     1       2.614  16.146  20.793  0.00  0.00    +0.000 A 
ATOM     28 BR   UNL     1       2.424  16.916  19.100  0.00  0.00    +0.000 Br
ENDBRANCH  20  22
ENDBRANCH  17  20
ENDBRANCH   5  17
TORSDOF 6
ENDMDL
MODEL 8
REMARK VINA RESULT:      -6.9      5.232      7.849
REMARK  Name = 
REMARK  10 active torsions:
REMARK  status: ('A' for Active; 'I' for Inactive)
REMARK    1  A    between atoms: C_1  and  C_2
REMARK    2  A    between atoms: C_4  and  C_5
REMARK    3  A    between atoms: C_5  and  C_6
REMARK    4  A    between atoms: C_6  and  C_7
REMARK    5  A    between atoms: C_6  and  C_8
REMARK    6  A    between atoms: C_11  and  C_12
REMARK    7  A    between atoms: C_16  and  S_17
REMARK    8  A    between atoms: S_17  and  N_20
REMARK    9  A    between atoms: N_20  and  C_21
REMARK   10  A    between atoms: C_24  and  C_25
REMARK                            x       y       z     vdW  Elec       q    Type
REMARK                         _______ _______ _______ _____ _____    ______ ____
ROOT
ATOM      1  C   UNL     1       4.159   3.488  19.272  0.00  0.00    +0.000 A 
ATOM      2  C   UNL     1       4.575   2.284  19.980  0.00  0.00    +0.000 A 
ATOM      3  C   UNL     1       3.826   1.992  21.091  0.00  0.00    +0.000 A 
ATOM      4  S   UNL     1       2.622   3.150  21.344  0.00  0.00    +0.000 S 
ATOM      5  C   UNL     1       3.067   4.065  19.943  0.00  0.00    +0.000 A 
ENDROOT
BRANCH   1  12
ATOM      6  C   UNL     1       6.772   5.298  19.053  0.00  0.00    +0.000 C 
ATOM      7  C   UNL     1       6.002   4.706  17.916  0.00  0.00    +0.000 A 
ATOM      8  C   UNL     1       6.569   4.997  16.660  0.00  0.00    +0.000 A 
ATOM      9  C   UNL     1       6.073   4.479  15.469  0.00  0.00    +0.000 A 
ATOM     10  C   UNL     1       4.954   3.660  15.546  0.00  0.00    +0.000 A 
ATOM     11  C   UNL     1       4.339   3.415  16.787  0.00  0.00    +0.000 A 
ATOM     12  C   UNL     1       4.838   3.930  18.011  0.00  0.00    +0.000 A 
BRANCH   9  13
ATOM     13  C   UNL     1       6.794   4.812  14.190  0.00  0.00    +0.000 C 
BRANCH  13  14
ATOM     14  C   UNL     1       6.540   3.840  13.027  0.00  0.00    +0.000 C 
ATOM     15  C   UNL     1       5.079   3.846  12.566  0.00  0.00    +0.000 C 
ATOM     16  C   UNL     1       7.448   4.215  11.853  0.00  0.00    +0.000 C 
ENDBRANCH  13  14
ENDBRANCH   9  13
ENDBRANCH   1  12
BRANCH   5  17
ATOM     17  S   UNL     1       1.995   5.494  19.747  0.00  0.00    +0.000 S 
ATOM     18  O   UNL     1       1.722   5.564  18.326  0.00  0.00    +0.000 OA
ATOM     19  O   UNL     1       0.972   5.347  20.758  0.00  0.00    +0.000 OA
BRANCH  17  20
ATOM     20  N   UNL     1       2.848   6.950  19.986  0.00  0.00    +0.000 N 
ATOM     21  H   UNL     1       3.722   6.736  19.489  0.00  0.00    +0.000 HD
BRANCH  20  22
ATOM     22  C   UNL     1       2.204   7.987  19.243  0.00  0.00    +0.000 A 
ATOM     23  O   UNL     1       2.535   8.362  17.977  0.00  0.00    +0.000 OA
ATOM     24  N   UNL     1       1.754   9.445  17.595  0.00  0.00    +0.000 NA
ATOM     25  C   UNL     1       0.975   9.719  18.655  0.00  0.00    +0.000 A 
ATOM     26  C   UNL     1       0.058  10.879  18.636  0.00  0.00    +0.000 C 
ATOM     27  C   UNL     1       1.214   8.809  19.703  0.00  0.00    +0.000 A 
ATOM     28 BR   UNL     1       0.397   8.807  21.384  0.00  0.00    +0.000 Br
ENDBRANCH  20  22
ENDBRANCH  17  20
ENDBRANCH   5  17
TORSDOF 6
ENDMDL
MODEL 9
REMARK VINA RESULT:      -6.9      5.238      7.717
REMARK  Name = 
REMARK  10 active torsions:
REMARK  status: ('A' for Active; 'I' for Inactive)
REMARK    1  A    between atoms: C_1  and  C_2
REMARK    2  A    between atoms: C_4  and  C_5
REMARK    3  A    between atoms: C_5  and  C_6
REMARK    4  A    between atoms: C_6  and  C_7
REMARK    5  A    between atoms: C_6  and  C_8
REMARK    6  A    between atoms: C_11  and  C_12
REMARK    7  A    between atoms: C_16  and  S_17
REMARK    8  A    between atoms: S_17  and  N_20
REMARK    9  A    between atoms: N_20  and  C_21
REMARK   10  A    between atoms: C_24  and  C_25
REMARK                            x       y       z     vdW  Elec       q    Type
REMARK                         _______ _______ _______ _____ _____    ______ ____
ROOT
ATOM      1  C   UNL     1       4.046   3.565  19.269  0.00  0.00    +0.000 A 
ATOM      2  C   UNL     1       4.472   2.375  19.993  0.00  0.00    +0.000 A 
ATOM      3  C   UNL     1       3.746   2.110  21.126  0.00  0.00    +0.000 A 
ATOM      4  S   UNL     1       2.553   3.279  21.379  0.00  0.00    +0.000 S 
ATOM      5  C   UNL     1       2.972   4.161  19.950  0.00  0.00    +0.000 A 
ENDROOT
BRANCH   1  12
ATOM      6  C   UNL     1       6.718   5.274  18.957  0.00  0.00    +0.000 C 
ATOM      7  C   UNL     1       5.889   4.708  17.848  0.00  0.00    +0.000 A 
ATOM      8  C   UNL     1       6.426   4.974  16.573  0.00  0.00    +0.000 A 
ATOM      9  C   UNL     1       5.871   4.471  15.402  0.00  0.00    +0.000 A 
ATOM     10  C   UNL     1       4.725   3.696  15.518  0.00  0.00    +0.000 A 
ATOM     11  C   UNL     1       4.142   3.478  16.779  0.00  0.00    +0.000 A 
ATOM     12  C   UNL     1       4.701   3.978  17.985  0.00  0.00    +0.000 A 
BRANCH   9  13
ATOM     13  C   UNL     1       6.562   4.772  14.098  0.00  0.00    +0.000 C 
BRANCH  13  14
ATOM     14  C   UNL     1       6.379   3.711  13.003  0.00  0.00    +0.000 C 
ATOM     15  C   UNL     1       4.976   3.741  12.387  0.00  0.00    +0.000 C 
ATOM     16  C   UNL     1       7.422   3.936  11.906  0.00  0.00    +0.000 C 
ENDBRANCH  13  14
ENDBRANCH   9  13
ENDBRANCH   1  12
BRANCH   5  17
ATOM     17  S   UNL     1       1.902   5.591  19.747  0.00  0.00    +0.000 S 
ATOM     18  O   UNL     1       1.870   5.834  18.318  0.00  0.00    +0.000 OA
ATOM     19  O   UNL     1       0.728   5.308  20.542  0.00  0.00    +0.000 OA
BRANCH  17  20
ATOM     20  N   UNL     1       2.654   7.016  20.302  0.00  0.00    +0.000 N 
ATOM     21  H   UNL     1       3.150   7.307  19.450  0.00  0.00    +0.000 HD
BRANCH  20  22
ATOM     22  C   UNL     1       1.648   8.003  20.541  0.00  0.00    +0.000 A 
ATOM     23  O   UNL     1       0.886   8.085  21.667  0.00  0.00    +0.000 OA
ATOM     24  N   UNL     1      -0.034   9.116  21.529  0.00  0.00    +0.000 NA
ATOM     25  C   UNL     1       0.176   9.626  20.304  0.00  0.00    +0.000 A 
ATOM     26  C   UNL     1      -0.689  10.705  19.778  0.00  0.00    +0.000 C 
ATOM     27  C   UNL     1       1.242   8.966  19.662  0.00  0.00    +0.000 A 
ATOM     28 BR   UNL     1       1.882   9.302  17.938  0.00  0.00    +0.000 Br
ENDBRANCH  20  22
ENDBRANCH  17  20
ENDBRANCH   5  17
TORSDOF 6
ENDMDL
