MODEL 1
REMARK VINA RESULT:      -8.2      0.000      0.000
REMARK  Name = 
REMARK  8 active torsions:
REMARK  status: ('A' for Active; 'I' for Inactive)
REMARK    1  A    between atoms: C_1  and  C_2
REMARK    2  A    between atoms: C_2  and  O_3
REMARK    3  A    between atoms: O_3  and  C_4
REMARK    4  A    between atoms: C_8  and  C_9
REMARK    5  A    between atoms: C_11  and  C_12
REMARK    6  A    between atoms: C_17  and  O_18
REMARK    7  A    between atoms: N_19  and  C_20
REMARK    8  A    between atoms: C_29  and  O_30
REMARK                            x       y       z     vdW  Elec       q    Type
REMARK                         _______ _______ _______ _____ _____    ______ ____
ROOT
ATOM      1  C   UNL     1       4.730   4.329  16.951  0.00  0.00    +0.000 A 
ATOM      2  N   UNL     1       5.515   5.197  17.625  0.00  0.00    +0.000 NA
ATOM      3  C   UNL     1       6.597   5.729  16.987  0.00  0.00    +0.000 A 
ATOM      4  C   UNL     1       6.859   5.394  15.661  0.00  0.00    +0.000 A 
ATOM      5  N   UNL     1       7.850   5.752  14.788  0.00  0.00    +0.000 NA
ATOM      6  C   UNL     1       7.574   5.109  13.688  0.00  0.00    +0.000 A 
ATOM      7  N   UNL     1       6.427   4.333  13.763  0.00  0.00    +0.000 N 
ATOM      8  C   UNL     1       5.962   4.511  15.067  0.00  0.00    +0.000 A 
ATOM      9  N   UNL     1       4.901   3.925  15.671  0.00  0.00    +0.000 NA
ENDROOT
BRANCH   7  10
ATOM     10  C   UNL     1       5.853   3.542  12.726  0.00  0.00    +0.000 A 
ATOM     11  C   UNL     1       6.437   2.315  12.370  0.00  0.00    +0.000 A 
ATOM     12  C   UNL     1       5.887   1.536  11.349  0.00  0.00    +0.000 A 
ATOM     13  C   UNL     1       4.761   1.982  10.663  0.00  0.00    +0.000 A 
ATOM     14  C   UNL     1       4.184   3.202  11.005  0.00  0.00    +0.000 A 
ATOM     15 CL   UNL     1       2.814   3.768  10.129  0.00  0.00    +0.000 Cl
ATOM     16  C   UNL     1       4.714   3.981  12.038  0.00  0.00    +0.000 A 
ENDBRANCH   7  10
BRANCH   1  21
ATOM     17  C   UNL     1       2.506   2.563  19.535  0.00  0.00    +0.000 A 
ATOM     18  C   UNL     1       1.245   2.837  18.995  0.00  0.00    +0.000 A 
ATOM     19  C   UNL     1       1.120   3.548  17.811  0.00  0.00    +0.000 A 
ATOM     20  C   UNL     1       2.264   4.014  17.165  0.00  0.00    +0.000 A 
ATOM     21  C   UNL     1       3.560   3.783  17.680  0.00  0.00    +0.000 A 
ATOM     22  C   UNL     1       3.658   3.040  18.884  0.00  0.00    +0.000 A 
BRANCH  22  23
ATOM     23  O   UNL     1       4.883   2.805  19.463  0.00  0.00    +0.000 OA
ATOM     24  H   UNL     1       5.018   3.454  20.181  0.00  0.00    +0.000 HD
ENDBRANCH  22  23
BRANCH  17  25
ATOM     25  O   UNL     1       2.431   1.859  20.706  0.00  0.00    +0.000 OA
BRANCH  25  27
ATOM     26  C   UNL     1       2.262   3.878  21.940  0.00  0.00    +0.000 C 
ATOM     27  C   UNL     1       1.741   2.457  21.801  0.00  0.00    +0.000 C 
ENDBRANCH  25  27
ENDBRANCH  17  25
ENDBRANCH   1  21
BRANCH   3  28
ATOM     28  C   UNL     1       7.460   6.663  17.756  0.00  0.00    +0.000 C 
ATOM     29  N   UNL     1       7.668   7.887  17.176  0.00  0.00    +0.000 N 
ATOM     30  O   UNL     1       7.967   6.393  18.836  0.00  0.00    +0.000 OA
ATOM     31  H   UNL     1       7.214   8.125  16.304  0.00  0.00    +0.000 HD
ATOM     32  H   UNL     1       8.223   8.576  17.663  0.00  0.00    +0.000 HD
ENDBRANCH   3  28
BRANCH   6  33
ATOM     33  O   UNL     1       8.313   5.302  12.612  0.00  0.00    +0.000 OA
ATOM     34  H   UNL     1       9.180   5.527  13.001  0.00  0.00    +0.000 HD
ENDBRANCH   6  33
TORSDOF 7
ENDMDL
MODEL 2
REMARK VINA RESULT:      -8.2      0.948      1.294
REMARK  Name = 
REMARK  8 active torsions:
REMARK  status: ('A' for Active; 'I' for Inactive)
REMARK    1  A    between atoms: C_1  and  C_2
REMARK    2  A    between atoms: C_2  and  O_3
REMARK    3  A    between atoms: O_3  and  C_4
REMARK    4  A    between atoms: C_8  and  C_9
REMARK    5  A    between atoms: C_11  and  C_12
REMARK    6  A    between atoms: C_17  and  O_18
REMARK    7  A    between atoms: N_19  and  C_20
REMARK    8  A    between atoms: C_29  and  O_30
REMARK                            x       y       z     vdW  Elec       q    Type
REMARK                         _______ _______ _______ _____ _____    ______ ____
ROOT
ATOM      1  C   UNL     1       4.711   4.355  17.036  0.00  0.00    +0.000 A 
ATOM      2  N   UNL     1       5.513   5.207  17.710  0.00  0.00    +0.000 NA
ATOM      3  C   UNL     1       6.587   5.743  17.062  0.00  0.00    +0.000 A 
ATOM      4  C   UNL     1       6.824   5.429  15.727  0.00  0.00    +0.000 A 
ATOM      5  N   UNL     1       7.803   5.796  14.843  0.00  0.00    +0.000 NA
ATOM      6  C   UNL     1       7.504   5.173  13.737  0.00  0.00    +0.000 A 
ATOM      7  N   UNL     1       6.353   4.402  13.820  0.00  0.00    +0.000 N 
ATOM      8  C   UNL     1       5.912   4.562  15.134  0.00  0.00    +0.000 A 
ATOM      9  N   UNL     1       4.859   3.971  15.747  0.00  0.00    +0.000 NA
ENDROOT
BRANCH   7  10
ATOM     10  C   UNL     1       5.757   3.632  12.779  0.00  0.00    +0.000 A 
ATOM     11  C   UNL     1       4.609   4.106  12.121  0.00  0.00    +0.000 A 
ATOM     12  C   UNL     1       4.013   3.354  11.106  0.00  0.00    +0.000 A 
ATOM     13  C   UNL     1       4.544   2.118  10.749  0.00  0.00    +0.000 A 
ATOM     14  C   UNL     1       5.676   1.641  11.405  0.00  0.00    +0.000 A 
ATOM     15 CL   UNL     1       6.308   0.095  10.988  0.00  0.00    +0.000 Cl
ATOM     16  C   UNL     1       6.293   2.392  12.409  0.00  0.00    +0.000 A 
ENDBRANCH   7  10
BRANCH   1  21
ATOM     17  C   UNL     1       2.519   2.584  19.644  0.00  0.00    +0.000 A 
ATOM     18  C   UNL     1       1.253   2.846  19.112  0.00  0.00    +0.000 A 
ATOM     19  C   UNL     1       1.114   3.551  17.925  0.00  0.00    +0.000 A 
ATOM     20  C   UNL     1       2.250   4.022  17.269  0.00  0.00    +0.000 A 
ATOM     21  C   UNL     1       3.551   3.803  17.775  0.00  0.00    +0.000 A 
ATOM     22  C   UNL     1       3.663   3.067  18.982  0.00  0.00    +0.000 A 
BRANCH  22  23
ATOM     23  O   UNL     1       4.895   2.844  19.553  0.00  0.00    +0.000 OA
ATOM     24  H   UNL     1       4.922   1.924  19.884  0.00  0.00    +0.000 HD
ENDBRANCH  22  23
BRANCH  17  25
ATOM     25  O   UNL     1       2.458   1.886  20.819  0.00  0.00    +0.000 OA
BRANCH  25  27
ATOM     26  C   UNL     1       2.261   3.986  21.904  0.00  0.00    +0.000 C 
ATOM     27  C   UNL     1       1.855   2.522  21.942  0.00  0.00    +0.000 C 
ENDBRANCH  25  27
ENDBRANCH  17  25
ENDBRANCH   1  21
BRANCH   3  28
ATOM     28  C   UNL     1       7.469   6.660  17.832  0.00  0.00    +0.000 C 
ATOM     29  N   UNL     1       7.700   7.880  17.254  0.00  0.00    +0.000 N 
ATOM     30  O   UNL     1       7.972   6.379  18.911  0.00  0.00    +0.000 OA
ATOM     31  H   UNL     1       7.250   8.128  16.382  0.00  0.00    +0.000 HD
ATOM     32  H   UNL     1       8.268   8.558  17.740  0.00  0.00    +0.000 HD
ENDBRANCH   3  28
BRANCH   6  33
ATOM     33  O   UNL     1       8.226   5.380  12.652  0.00  0.00    +0.000 OA
ATOM     34  H   UNL     1       9.100   5.042  12.925  0.00  0.00    +0.000 HD
ENDBRANCH   6  33
TORSDOF 7
ENDMDL
MODEL 3
REMARK VINA RESULT:      -7.6      1.046      1.267
REMARK  Name = 
REMARK  8 active torsions:
REMARK  status: ('A' for Active; 'I' for Inactive)
REMARK    1  A    between atoms: C_1  and  C_2
REMARK    2  A    between atoms: C_2  and  O_3
REMARK    3  A    between atoms: O_3  and  C_4
REMARK    4  A    between atoms: C_8  and  C_9
REMARK    5  A    between atoms: C_11  and  C_12
REMARK    6  A    between atoms: C_17  and  O_18
REMARK    7  A    between atoms: N_19  and  C_20
REMARK    8  A    between atoms: C_29  and  O_30
REMARK                            x       y       z     vdW  Elec       q    Type
REMARK                         _______ _______ _______ _____ _____    ______ ____
ROOT
ATOM      1  C   UNL     1       4.962   4.052  16.968  0.00  0.00    +0.000 A 
ATOM      2  N   UNL     1       5.699   4.965  17.636  0.00  0.00    +0.000 NA
ATOM      3  C   UNL     1       6.696   5.615  16.968  0.00  0.00    +0.000 A 
ATOM      4  C   UNL     1       6.918   5.351  15.620  0.00  0.00    +0.000 A 
ATOM      5  N   UNL     1       7.828   5.827  14.714  0.00  0.00    +0.000 NA
ATOM      6  C   UNL     1       7.555   5.199  13.605  0.00  0.00    +0.000 A 
ATOM      7  N   UNL     1       6.487   4.320  13.705  0.00  0.00    +0.000 N 
ATOM      8  C   UNL     1       6.076   4.411  15.035  0.00  0.00    +0.000 A 
ATOM      9  N   UNL     1       5.104   3.709  15.667  0.00  0.00    +0.000 NA
ENDROOT
BRANCH   7  10
ATOM     10  C   UNL     1       5.935   3.516  12.666  0.00  0.00    +0.000 A 
ATOM     11  C   UNL     1       6.585   2.336  12.266  0.00  0.00    +0.000 A 
ATOM     12  C   UNL     1       6.056   1.545  11.244  0.00  0.00    +0.000 A 
ATOM     13  C   UNL     1       4.884   1.932  10.600  0.00  0.00    +0.000 A 
ATOM     14  C   UNL     1       4.241   3.105  10.986  0.00  0.00    +0.000 A 
ATOM     15 CL   UNL     1       2.812   3.599  10.162  0.00  0.00    +0.000 Cl
ATOM     16  C   UNL     1       4.750   3.894  12.022  0.00  0.00    +0.000 A 
ENDBRANCH   7  10
BRANCH   1  21
ATOM     17  C   UNL     1       1.841   3.364  19.095  0.00  0.00    +0.000 A 
ATOM     18  C   UNL     1       1.862   1.966  19.110  0.00  0.00    +0.000 A 
ATOM     19  C   UNL     1       2.877   1.266  18.473  0.00  0.00    +0.000 A 
ATOM     20  C   UNL     1       3.872   1.965  17.793  0.00  0.00    +0.000 A 
ATOM     21  C   UNL     1       3.885   3.377  17.730  0.00  0.00    +0.000 A 
ATOM     22  C   UNL     1       2.844   4.067  18.402  0.00  0.00    +0.000 A 
BRANCH  22  23
ATOM     23  O   UNL     1       2.771   5.440  18.356  0.00  0.00    +0.000 OA
ATOM     24  H   UNL     1       3.254   5.751  17.566  0.00  0.00    +0.000 HD
ENDBRANCH  22  23
BRANCH  17  25
ATOM     25  O   UNL     1       0.765   3.878  19.767  0.00  0.00    +0.000 OA
BRANCH  25  27
ATOM     26  C   UNL     1       2.165   4.097  21.669  0.00  0.00    +0.000 C 
ATOM     27  C   UNL     1       1.019   4.719  20.889  0.00  0.00    +0.000 C 
ENDBRANCH  25  27
ENDBRANCH  17  25
ENDBRANCH   1  21
BRANCH   3  28
ATOM     28  C   UNL     1       7.510   6.597  17.731  0.00  0.00    +0.000 C 
ATOM     29  N   UNL     1       7.660   7.824  17.139  0.00  0.00    +0.000 N 
ATOM     30  O   UNL     1       8.025   6.363  18.815  0.00  0.00    +0.000 OA
ATOM     31  H   UNL     1       7.198   8.032  16.264  0.00  0.00    +0.000 HD
ATOM     32  H   UNL     1       8.179   8.545  17.621  0.00  0.00    +0.000 HD
ENDBRANCH   3  28
BRANCH   6  33
ATOM     33  O   UNL     1       8.218   5.496  12.503  0.00  0.00    +0.000 OA
ATOM     34  H   UNL     1       8.258   4.630  12.053  0.00  0.00    +0.000 HD
ENDBRANCH   6  33
TORSDOF 7
ENDMDL
MODEL 4
REMARK VINA RESULT:      -7.4      4.107      5.957
REMARK  Name = 
REMARK  8 active torsions:
REMARK  status: ('A' for Active; 'I' for Inactive)
REMARK    1  A    between atoms: C_1  and  C_2
REMARK    2  A    between atoms: C_2  and  O_3
REMARK    3  A    between atoms: O_3  and  C_4
REMARK    4  A    between atoms: C_8  and  C_9
REMARK    5  A    between atoms: C_11  and  C_12
REMARK    6  A    between atoms: C_17  and  O_18
REMARK    7  A    between atoms: N_19  and  C_20
REMARK    8  A    between atoms: C_29  and  O_30
REMARK                            x       y       z     vdW  Elec       q    Type
REMARK                         _______ _______ _______ _____ _____    ______ ____
ROOT
ATOM      1  C   UNL     1       2.434   6.136  19.024  0.00  0.00    +0.000 A 
ATOM      2  N   UNL     1       1.856   5.389  19.989  0.00  0.00    +0.000 NA
ATOM      3  C   UNL     1       2.124   4.051  20.027  0.00  0.00    +0.000 A 
ATOM      4  C   UNL     1       2.996   3.488  19.101  0.00  0.00    +0.000 A 
ATOM      5  N   UNL     1       3.436   2.208  18.891  0.00  0.00    +0.000 NA
ATOM      6  C   UNL     1       4.236   2.293  17.866  0.00  0.00    +0.000 A 
ATOM      7  N   UNL     1       4.376   3.580  17.368  0.00  0.00    +0.000 N 
ATOM      8  C   UNL     1       3.551   4.365  18.174  0.00  0.00    +0.000 A 
ATOM      9  N   UNL     1       3.282   5.689  18.069  0.00  0.00    +0.000 NA
ENDROOT
BRANCH   7  10
ATOM     10  C   UNL     1       5.197   3.997  16.279  0.00  0.00    +0.000 A 
ATOM     11  C   UNL     1       6.298   4.839  16.509  0.00  0.00    +0.000 A 
ATOM     12  C   UNL     1       7.103   5.260  15.448  0.00  0.00    +0.000 A 
ATOM     13  C   UNL     1       6.808   4.860  14.148  0.00  0.00    +0.000 A 
ATOM     14  C   UNL     1       5.712   4.033  13.915  0.00  0.00    +0.000 A 
ATOM     15 CL   UNL     1       5.329   3.570  12.301  0.00  0.00    +0.000 Cl
ATOM     16  C   UNL     1       4.911   3.589  14.970  0.00  0.00    +0.000 A 
ENDBRANCH   7  10
BRANCH   1  21
ATOM     17  C   UNL     1       1.411   9.674  20.107  0.00  0.00    +0.000 A 
ATOM     18  C   UNL     1       1.609  10.361  18.905  0.00  0.00    +0.000 A 
ATOM     19  C   UNL     1       2.034   9.690  17.767  0.00  0.00    +0.000 A 
ATOM     20  C   UNL     1       2.287   8.322  17.831  0.00  0.00    +0.000 A 
ATOM     21  C   UNL     1       2.123   7.585  19.026  0.00  0.00    +0.000 A 
ATOM     22  C   UNL     1       1.674   8.293  20.169  0.00  0.00    +0.000 A 
BRANCH  22  23
ATOM     23  O   UNL     1       1.524   7.650  21.376  0.00  0.00    +0.000 OA
ATOM     24  H   UNL     1       1.319   6.710  21.204  0.00  0.00    +0.000 HD
ENDBRANCH  22  23
BRANCH  17  25
ATOM     25  O   UNL     1       1.000  10.499  21.119  0.00  0.00    +0.000 OA
BRANCH  25  27
ATOM     26  C   UNL     1      -0.510  10.144  22.914  0.00  0.00    +0.000 C 
ATOM     27  C   UNL     1      -0.388  10.513  21.445  0.00  0.00    +0.000 C 
ENDBRANCH  25  27
ENDBRANCH  17  25
ENDBRANCH   1  21
BRANCH   3  28
ATOM     28  C   UNL     1       1.457   3.245  21.083  0.00  0.00    +0.000 C 
ATOM     29  N   UNL     1       0.384   2.500  20.668  0.00  0.00    +0.000 N 
ATOM     30  O   UNL     1       1.814   3.221  22.253  0.00  0.00    +0.000 OA
ATOM     31  H   UNL     1       0.116   2.487  19.692  0.00  0.00    +0.000 HD
ATOM     32  H   UNL     1      -0.094   1.909  21.332  0.00  0.00    +0.000 HD
ENDBRANCH   3  28
BRANCH   6  33
ATOM     33  O   UNL     1       4.890   1.224  17.454  0.00  0.00    +0.000 OA
ATOM     34  H   UNL     1       4.354   0.502  17.834  0.00  0.00    +0.000 HD
ENDBRANCH   6  33
TORSDOF 7
ENDMDL
MODEL 5
REMARK VINA RESULT:      -7.2      1.628      1.952
REMARK  Name = 
REMARK  8 active torsions:
REMARK  status: ('A' for Active; 'I' for Inactive)
REMARK    1  A    between atoms: C_1  and  C_2
REMARK    2  A    between atoms: C_2  and  O_3
REMARK    3  A    between atoms: O_3  and  C_4
REMARK    4  A    between atoms: C_8  and  C_9
REMARK    5  A    between atoms: C_11  and  C_12
REMARK    6  A    between atoms: C_17  and  O_18
REMARK    7  A    between atoms: N_19  and  C_20
REMARK    8  A    between atoms: C_29  and  O_30
REMARK                            x       y       z     vdW  Elec       q    Type
REMARK                         _______ _______ _______ _____ _____    ______ ____
ROOT
ATOM      1  C   UNL     1       4.727   4.483  16.986  0.00  0.00    +0.000 A 
ATOM      2  N   UNL     1       5.555   5.331  17.633  0.00  0.00    +0.000 NA
ATOM      3  C   UNL     1       6.646   5.812  16.968  0.00  0.00    +0.000 A 
ATOM      4  C   UNL     1       6.872   5.448  15.645  0.00  0.00    +0.000 A 
ATOM      5  N   UNL     1       7.861   5.755  14.749  0.00  0.00    +0.000 NA
ATOM      6  C   UNL     1       7.543   5.106  13.664  0.00  0.00    +0.000 A 
ATOM      7  N   UNL     1       6.369   4.375  13.771  0.00  0.00    +0.000 N 
ATOM      8  C   UNL     1       5.933   4.591  15.079  0.00  0.00    +0.000 A 
ATOM      9  N   UNL     1       4.862   4.053  15.710  0.00  0.00    +0.000 NA
ENDROOT
BRANCH   7  10
ATOM     10  C   UNL     1       5.748   3.591  12.755  0.00  0.00    +0.000 A 
ATOM     11  C   UNL     1       4.582   4.053  12.122  0.00  0.00    +0.000 A 
ATOM     12  C   UNL     1       3.962   3.288  11.131  0.00  0.00    +0.000 A 
ATOM     13  C   UNL     1       4.487   2.049  10.776  0.00  0.00    +0.000 A 
ATOM     14  C   UNL     1       5.637   1.583  11.408  0.00  0.00    +0.000 A 
ATOM     15 CL   UNL     1       6.263   0.034  10.993  0.00  0.00    +0.000 Cl
ATOM     16  C   UNL     1       6.278   2.348  12.386  0.00  0.00    +0.000 A 
ENDBRANCH   7  10
BRANCH   1  21
ATOM     17  C   UNL     1       1.698   4.264  19.336  0.00  0.00    +0.000 A 
ATOM     18  C   UNL     1       1.294   2.949  19.085  0.00  0.00    +0.000 A 
ATOM     19  C   UNL     1       2.001   2.145  18.202  0.00  0.00    +0.000 A 
ATOM     20  C   UNL     1       3.112   2.664  17.541  0.00  0.00    +0.000 A 
ATOM     21  C   UNL     1       3.550   3.993  17.742  0.00  0.00    +0.000 A 
ATOM     22  C   UNL     1       2.818   4.786  18.661  0.00  0.00    +0.000 A 
BRANCH  22  23
ATOM     23  O   UNL     1       3.164   6.099  18.883  0.00  0.00    +0.000 OA
ATOM     24  H   UNL     1       3.926   6.321  18.313  0.00  0.00    +0.000 HD
ENDBRANCH  22  23
BRANCH  17  25
ATOM     25  O   UNL     1       0.879   4.902  20.226  0.00  0.00    +0.000 OA
BRANCH  25  27
ATOM     26  C   UNL     1       0.899   7.156  20.968  0.00  0.00    +0.000 C 
ATOM     27  C   UNL     1       1.482   5.769  21.184  0.00  0.00    +0.000 C 
ENDBRANCH  25  27
ENDBRANCH  17  25
ENDBRANCH   1  21
BRANCH   3  28
ATOM     28  C   UNL     1       7.556   6.725  17.708  0.00  0.00    +0.000 C 
ATOM     29  N   UNL     1       7.773   7.944  17.123  0.00  0.00    +0.000 N 
ATOM     30  O   UNL     1       8.093   6.442  18.771  0.00  0.00    +0.000 OA
ATOM     31  H   UNL     1       7.296   8.194  16.267  0.00  0.00    +0.000 HD
ATOM     32  H   UNL     1       8.360   8.620  17.591  0.00  0.00    +0.000 HD
ENDBRANCH   3  28
BRANCH   6  33
ATOM     33  O   UNL     1       8.270   5.255  12.573  0.00  0.00    +0.000 OA
ATOM     34  H   UNL     1       8.881   4.496  12.634  0.00  0.00    +0.000 HD
ENDBRANCH   6  33
TORSDOF 7
ENDMDL
MODEL 6
REMARK VINA RESULT:      -7.2      8.447     10.732
REMARK  Name = 
REMARK  8 active torsions:
REMARK  status: ('A' for Active; 'I' for Inactive)
REMARK    1  A    between atoms: C_1  and  C_2
REMARK    2  A    between atoms: C_2  and  O_3
REMARK    3  A    between atoms: O_3  and  C_4
REMARK    4  A    between atoms: C_8  and  C_9
REMARK    5  A    between atoms: C_11  and  C_12
REMARK    6  A    between atoms: C_17  and  O_18
REMARK    7  A    between atoms: N_19  and  C_20
REMARK    8  A    between atoms: C_29  and  O_30
REMARK                            x       y       z     vdW  Elec       q    Type
REMARK                         _______ _______ _______ _____ _____    ______ ____
ROOT
ATOM      1  C   UNL     1      -1.894  10.972  19.519  0.00  0.00    +0.000 A 
ATOM      2  N   UNL     1      -2.172  11.807  20.543  0.00  0.00    +0.000 NA
ATOM      3  C   UNL     1      -1.420  11.722  21.678  0.00  0.00    +0.000 A 
ATOM      4  C   UNL     1      -0.375  10.806  21.755  0.00  0.00    +0.000 A 
ATOM      5  N   UNL     1       0.520  10.493  22.742  0.00  0.00    +0.000 NA
ATOM      6  C   UNL     1       1.256   9.543  22.237  0.00  0.00    +0.000 A 
ATOM      7  N   UNL     1       0.913   9.197  20.939  0.00  0.00    +0.000 N 
ATOM      8  C   UNL     1      -0.169  10.020  20.625  0.00  0.00    +0.000 A 
ATOM      9  N   UNL     1      -0.915  10.038  19.495  0.00  0.00    +0.000 NA
ENDROOT
BRANCH   7  10
ATOM     10  C   UNL     1       1.544   8.221  20.114  0.00  0.00    +0.000 A 
ATOM     11  C   UNL     1       1.991   8.569  18.828  0.00  0.00    +0.000 A 
ATOM     12  C   UNL     1       2.603   7.617  18.008  0.00  0.00    +0.000 A 
ATOM     13  C   UNL     1       2.759   6.308  18.455  0.00  0.00    +0.000 A 
ATOM     14  C   UNL     1       2.308   5.957  19.725  0.00  0.00    +0.000 A 
ATOM     15 CL   UNL     1       2.467   4.328  20.260  0.00  0.00    +0.000 Cl
ATOM     16  C   UNL     1       1.712   6.904  20.562  0.00  0.00    +0.000 A 
ENDBRANCH   7  10
BRANCH   1  21
ATOM     17  C   UNL     1      -3.186  10.780  15.909  0.00  0.00    +0.000 A 
ATOM     18  C   UNL     1      -4.438  11.382  16.069  0.00  0.00    +0.000 A 
ATOM     19  C   UNL     1      -4.840  11.864  17.306  0.00  0.00    +0.000 A 
ATOM     20  C   UNL     1      -3.995  11.725  18.405  0.00  0.00    +0.000 A 
ATOM     21  C   UNL     1      -2.729  11.106  18.302  0.00  0.00    +0.000 A 
ATOM     22  C   UNL     1      -2.338  10.636  17.023  0.00  0.00    +0.000 A 
BRANCH  22  23
ATOM     23  O   UNL     1      -1.135   9.992  16.852  0.00  0.00    +0.000 OA
ATOM     24  H   UNL     1      -0.835   9.656  17.719  0.00  0.00    +0.000 HD
ENDBRANCH  22  23
BRANCH  17  25
ATOM     25  O   UNL     1      -2.968  10.361  14.625  0.00  0.00    +0.000 OA
BRANCH  25  27
ATOM     26  C   UNL     1      -3.714   9.850  12.432  0.00  0.00    +0.000 C 
ATOM     27  C   UNL     1      -4.066   9.803  13.910  0.00  0.00    +0.000 C 
ENDBRANCH  25  27
ENDBRANCH  17  25
ENDBRANCH   1  21
BRANCH   3  28
ATOM     28  C   UNL     1      -1.761  12.635  22.801  0.00  0.00    +0.000 C 
ATOM     29  N   UNL     1      -2.945  12.371  23.437  0.00  0.00    +0.000 N 
ATOM     30  O   UNL     1      -1.056  13.568  23.161  0.00  0.00    +0.000 OA
ATOM     31  H   UNL     1      -3.506  11.574  23.167  0.00  0.00    +0.000 HD
ATOM     32  H   UNL     1      -3.219  12.938  24.227  0.00  0.00    +0.000 HD
ENDBRANCH   3  28
BRANCH   6  33
ATOM     33  O   UNL     1       2.277   9.068  22.926  0.00  0.00    +0.000 OA
ATOM     34  H   UNL     1       2.847   8.711  22.218  0.00  0.00    +0.000 HD
ENDBRANCH   6  33
TORSDOF 7
ENDMDL
MODEL 7
REMARK VINA RESULT:      -7.0      8.624     10.816
REMARK  Name = 
REMARK  8 active torsions:
REMARK  status: ('A' for Active; 'I' for Inactive)
REMARK    1  A    between atoms: C_1  and  C_2
REMARK    2  A    between atoms: C_2  and  O_3
REMARK    3  A    between atoms: O_3  and  C_4
REMARK    4  A    between atoms: C_8  and  C_9
REMARK    5  A    between atoms: C_11  and  C_12
REMARK    6  A    between atoms: C_17  and  O_18
REMARK    7  A    between atoms: N_19  and  C_20
REMARK    8  A    between atoms: C_29  and  O_30
REMARK                            x       y       z     vdW  Elec       q    Type
REMARK                         _______ _______ _______ _____ _____    ______ ____
ROOT
ATOM      1  C   UNL     1      -1.634  10.690  19.295  0.00  0.00    +0.000 A 
ATOM      2  N   UNL     1      -1.860  11.660  20.206  0.00  0.00    +0.000 NA
ATOM      3  C   UNL     1      -1.136  11.651  21.363  0.00  0.00    +0.000 A 
ATOM      4  C   UNL     1      -0.171  10.671  21.573  0.00  0.00    +0.000 A 
ATOM      5  N   UNL     1       0.680  10.408  22.614  0.00  0.00    +0.000 NA
ATOM      6  C   UNL     1       1.344   9.350  22.242  0.00  0.00    +0.000 A 
ATOM      7  N   UNL     1       0.996   8.880  20.985  0.00  0.00    +0.000 N 
ATOM      8  C   UNL     1      -0.011   9.743  20.549  0.00  0.00    +0.000 A 
ATOM      9  N   UNL     1      -0.734   9.685  19.405  0.00  0.00    +0.000 NA
ENDROOT
BRANCH   7  10
ATOM     10  C   UNL     1       1.558   7.766  20.296  0.00  0.00    +0.000 A 
ATOM     11  C   UNL     1       2.208   7.954  19.065  0.00  0.00    +0.000 A 
ATOM     12  C   UNL     1       2.756   6.868  18.378  0.00  0.00    +0.000 A 
ATOM     13  C   UNL     1       2.645   5.584  18.903  0.00  0.00    +0.000 A 
ATOM     14  C   UNL     1       1.993   5.391  20.118  0.00  0.00    +0.000 A 
ATOM     15 CL   UNL     1       1.825   3.797  20.746  0.00  0.00    +0.000 Cl
ATOM     16  C   UNL     1       1.458   6.472  20.825  0.00  0.00    +0.000 A 
ENDBRANCH   7  10
BRANCH   1  21
ATOM     17  C   UNL     1      -4.329  11.527  16.692  0.00  0.00    +0.000 A 
ATOM     18  C   UNL     1      -3.846  10.795  15.602  0.00  0.00    +0.000 A 
ATOM     19  C   UNL     1      -2.696  10.028  15.716  0.00  0.00    +0.000 A 
ATOM     20  C   UNL     1      -2.002  10.006  16.924  0.00  0.00    +0.000 A 
ATOM     21  C   UNL     1      -2.435  10.743  18.049  0.00  0.00    +0.000 A 
ATOM     22  C   UNL     1      -3.622  11.506  17.909  0.00  0.00    +0.000 A 
BRANCH  22  23
ATOM     23  O   UNL     1      -4.087  12.276  18.950  0.00  0.00    +0.000 OA
ATOM     24  H   UNL     1      -4.770  12.884  18.606  0.00  0.00    +0.000 HD
ENDBRANCH  22  23
BRANCH  17  25
ATOM     25  O   UNL     1      -5.466  12.225  16.391  0.00  0.00    +0.000 OA
BRANCH  25  27
ATOM     26  C   UNL     1      -7.152  13.546  17.410  0.00  0.00    +0.000 C 
ATOM     27  C   UNL     1      -6.556  12.152  17.306  0.00  0.00    +0.000 C 
ENDBRANCH  25  27
ENDBRANCH  17  25
ENDBRANCH   1  21
BRANCH   3  28
ATOM     28  C   UNL     1      -1.420  12.715  22.362  0.00  0.00    +0.000 C 
ATOM     29  N   UNL     1      -0.417  13.628  22.551  0.00  0.00    +0.000 N 
ATOM     30  O   UNL     1      -2.466  12.801  22.990  0.00  0.00    +0.000 OA
ATOM     31  H   UNL     1       0.431  13.581  22.001  0.00  0.00    +0.000 HD
ATOM     32  H   UNL     1      -0.559  14.392  23.196  0.00  0.00    +0.000 HD
ENDBRANCH   3  28
BRANCH   6  33
ATOM     33  O   UNL     1       2.311   8.881  23.008  0.00  0.00    +0.000 OA
ATOM     34  H   UNL     1       1.975   9.082  23.902  0.00  0.00    +0.000 HD
ENDBRANCH   6  33
TORSDOF 7
ENDMDL
MODEL 8
REMARK VINA RESULT:      -7.0      7.941     10.278
REMARK  Name = 
REMARK  8 active torsions:
REMARK  status: ('A' for Active; 'I' for Inactive)
REMARK    1  A    between atoms: C_1  and  C_2
REMARK    2  A    between atoms: C_2  and  O_3
REMARK    3  A    between atoms: O_3  and  C_4
REMARK    4  A    between atoms: C_8  and  C_9
REMARK    5  A    between atoms: C_11  and  C_12
REMARK    6  A    between atoms: C_17  and  O_18
REMARK    7  A    between atoms: N_19  and  C_20
REMARK    8  A    between atoms: C_29  and  O_30
REMARK                            x       y       z     vdW  Elec       q    Type
REMARK                         _______ _______ _______ _____ _____    ______ ____
ROOT
ATOM      1  C   UNL     1       1.092   9.830  18.671  0.00  0.00    +0.000 A 
ATOM      2  N   UNL     1      -0.190   9.720  18.262  0.00  0.00    +0.000 NA
ATOM      3  C   UNL     1      -0.953  10.850  18.196  0.00  0.00    +0.000 A 
ATOM      4  C   UNL     1      -0.400  12.084  18.522  0.00  0.00    +0.000 A 
ATOM      5  N   UNL     1      -0.911  13.354  18.560  0.00  0.00    +0.000 NA
ATOM      6  C   UNL     1       0.082  14.102  18.952  0.00  0.00    +0.000 A 
ATOM      7  N   UNL     1       1.259  13.403  19.174  0.00  0.00    +0.000 N 
ATOM      8  C   UNL     1       0.939  12.072  18.902  0.00  0.00    +0.000 A 
ATOM      9  N   UNL     1       1.722  10.974  19.025  0.00  0.00    +0.000 NA
ENDROOT
BRANCH   7  10
ATOM     10  C   UNL     1       2.516  13.939  19.578  0.00  0.00    +0.000 A 
ATOM     11  C   UNL     1       2.767  14.199  20.936  0.00  0.00    +0.000 A 
ATOM     12  C   UNL     1       3.993  14.732  21.342  0.00  0.00    +0.000 A 
ATOM     13  C   UNL     1       4.971  15.028  20.397  0.00  0.00    +0.000 A 
ATOM     14  C   UNL     1       4.723  14.781  19.049  0.00  0.00    +0.000 A 
ATOM     15 CL   UNL     1       5.921  15.183  17.880  0.00  0.00    +0.000 Cl
ATOM     16  C   UNL     1       3.508  14.229  18.633  0.00  0.00    +0.000 A 
ENDBRANCH   7  10
BRANCH   1  21
ATOM     17  C   UNL     1       2.597   6.470  19.762  0.00  0.00    +0.000 A 
ATOM     18  C   UNL     1       3.422   6.208  18.664  0.00  0.00    +0.000 A 
ATOM     19  C   UNL     1       3.512   7.109  17.613  0.00  0.00    +0.000 A 
ATOM     20  C   UNL     1       2.753   8.277  17.643  0.00  0.00    +0.000 A 
ATOM     21  C   UNL     1       1.887   8.580  18.719  0.00  0.00    +0.000 A 
ATOM     22  C   UNL     1       1.827   7.648  19.786  0.00  0.00    +0.000 A 
BRANCH  22  23
ATOM     23  O   UNL     1       0.981   7.858  20.851  0.00  0.00    +0.000 OA
ATOM     24  H   UNL     1       1.487   7.735  21.678  0.00  0.00    +0.000 HD
ENDBRANCH  22  23
BRANCH  17  25
ATOM     25  O   UNL     1       2.632   5.469  20.694  0.00  0.00    +0.000 OA
BRANCH  25  27
ATOM     26  C   UNL     1       0.938   3.863  20.266  0.00  0.00    +0.000 C 
ATOM     27  C   UNL     1       2.434   4.131  20.243  0.00  0.00    +0.000 C 
ENDBRANCH  25  27
ENDBRANCH  17  25
ENDBRANCH   1  21
BRANCH   3  28
ATOM     28  C   UNL     1      -2.368  10.701  17.766  0.00  0.00    +0.000 C 
ATOM     29  N   UNL     1      -2.923  11.803  17.170  0.00  0.00    +0.000 N 
ATOM     30  O   UNL     1      -3.025   9.680  17.918  0.00  0.00    +0.000 OA
ATOM     31  H   UNL     1      -2.366  12.632  17.007  0.00  0.00    +0.000 HD
ATOM     32  H   UNL     1      -3.872  11.756  16.830  0.00  0.00    +0.000 HD
ENDBRANCH   3  28
BRANCH   6  33
ATOM     33  O   UNL     1      -0.069  15.411  19.018  0.00  0.00    +0.000 OA
ATOM     34  H   UNL     1       0.588  15.722  18.366  0.00  0.00    +0.000 HD
ENDBRANCH   6  33
TORSDOF 7
ENDMDL
MODEL 9
REMARK VINA RESULT:      -7.0      8.521     10.682
REMARK  Name = 
REMARK  8 active torsions:
REMARK  status: ('A' for Active; 'I' for Inactive)
REMARK    1  A    between atoms: C_1  and  C_2
REMARK    2  A    between atoms: C_2  and  O_3
REMARK    3  A    between atoms: O_3  and  C_4
REMARK    4  A    between atoms: C_8  and  C_9
REMARK    5  A    between atoms: C_11  and  C_12
REMARK    6  A    between atoms: C_17  and  O_18
REMARK    7  A    between atoms: N_19  and  C_20
REMARK    8  A    between atoms: C_29  and  O_30
REMARK                            x       y       z     vdW  Elec       q    Type
REMARK                         _______ _______ _______ _____ _____    ______ ____
ROOT
ATOM      1  C   UNL     1       0.854  10.573  18.944  0.00  0.00    +0.000 A 
ATOM      2  N   UNL     1      -0.493  10.599  18.847  0.00  0.00    +0.000 NA
ATOM      3  C   UNL     1      -1.123  11.809  18.825  0.00  0.00    +0.000 A 
ATOM      4  C   UNL     1      -0.379  12.983  18.875  0.00  0.00    +0.000 A 
ATOM      5  N   UNL     1      -0.726  14.308  18.880  0.00  0.00    +0.000 NA
ATOM      6  C   UNL     1       0.407  14.949  18.952  0.00  0.00    +0.000 A 
ATOM      7  N   UNL     1       1.520  14.123  18.984  0.00  0.00    +0.000 N 
ATOM      8  C   UNL     1       1.002  12.828  18.945  0.00  0.00    +0.000 A 
ATOM      9  N   UNL     1       1.669  11.651  19.015  0.00  0.00    +0.000 NA
ENDROOT
BRANCH   7  10
ATOM     10  C   UNL     1       2.887  14.522  19.033  0.00  0.00    +0.000 A 
ATOM     11  C   UNL     1       3.565  14.861  17.849  0.00  0.00    +0.000 A 
ATOM     12  C   UNL     1       4.908  15.245  17.886  0.00  0.00    +0.000 A 
ATOM     13  C   UNL     1       5.590  15.280  19.099  0.00  0.00    +0.000 A 
ATOM     14  C   UNL     1       4.925  14.936  20.273  0.00  0.00    +0.000 A 
ATOM     15 CL   UNL     1       5.782  14.943  21.766  0.00  0.00    +0.000 Cl
ATOM     16  C   UNL     1       3.576  14.568  20.252  0.00  0.00    +0.000 A 
ENDBRANCH   7  10
BRANCH   1  21
ATOM     17  C   UNL     1       1.981   7.046  19.956  0.00  0.00    +0.000 A 
ATOM     18  C   UNL     1       2.742   6.704  18.833  0.00  0.00    +0.000 A 
ATOM     19  C   UNL     1       2.909   7.604  17.790  0.00  0.00    +0.000 A 
ATOM     20  C   UNL     1       2.293   8.852  17.854  0.00  0.00    +0.000 A 
ATOM     21  C   UNL     1       1.497   9.238  18.956  0.00  0.00    +0.000 A 
ATOM     22  C   UNL     1       1.356   8.305  20.014  0.00  0.00    +0.000 A 
BRANCH  22  23
ATOM     23  O   UNL     1       0.569   8.597  21.104  0.00  0.00    +0.000 OA
ATOM     24  H   UNL     1       0.415   9.562  21.127  0.00  0.00    +0.000 HD
ENDBRANCH  22  23
BRANCH  17  25
ATOM     25  O   UNL     1       1.923   6.034  20.875  0.00  0.00    +0.000 OA
BRANCH  25  27
ATOM     26  C   UNL     1       1.081   3.847  20.506  0.00  0.00    +0.000 C 
ATOM     27  C   UNL     1       2.317   4.730  20.457  0.00  0.00    +0.000 C 
ENDBRANCH  25  27
ENDBRANCH  17  25
ENDBRANCH   1  21
BRANCH   3  28
ATOM     28  C   UNL     1      -2.607  11.811  18.742  0.00  0.00    +0.000 C 
ATOM     29  N   UNL     1      -3.241  12.725  19.543  0.00  0.00    +0.000 N 
ATOM     30  O   UNL     1      -3.253  11.065  18.020  0.00  0.00    +0.000 OA
ATOM     31  H   UNL     1      -2.705  13.371  20.107  0.00  0.00    +0.000 HD
ATOM     32  H   UNL     1      -4.248  12.796  19.511  0.00  0.00    +0.000 HD
ENDBRANCH   3  28
BRANCH   6  33
ATOM     33  O   UNL     1       0.418  16.268  18.900  0.00  0.00    +0.000 OA
ATOM     34  H   UNL     1       1.125  16.437  18.247  0.00  0.00    +0.000 HD
ENDBRANCH   6  33
TORSDOF 7
ENDMDL
