MODEL 1
REMARK VINA RESULT:      -7.4      0.000      0.000
REMARK  Name = 
REMARK  8 active torsions:
REMARK  status: ('A' for Active; 'I' for Inactive)
REMARK    1  A    between atoms: S_2  and  C_4
REMARK    2  A    between atoms: S_2  and  N_10
REMARK    3  A    between atoms: N_10  and  C_11
REMARK    4  A    between atoms: N_10  and  C_23
REMARK    5  A    between atoms: C_11  and  C_12
REMARK    6  A    between atoms: C_17  and  C_18
REMARK    7  A    between atoms: C_31  and  C_32
REMARK    8  A    between atoms: C_32  and  O_33
REMARK                            x       y       z     vdW  Elec       q    Type
REMARK                         _______ _______ _______ _____ _____    ______ ____
ROOT
ATOM      1  N   UNL     1       0.072  11.056  19.580  0.00  0.00    +0.000 N 
ENDROOT
BRANCH   1   2
ATOM      2  C   UNL     1       1.003   9.954  19.403  0.00  0.00    +0.000 A 
ATOM      3  S   UNL     1       1.959   9.757  18.007  0.00  0.00    +0.000 S 
ATOM      4  C   UNL     1       2.466   8.181  18.455  0.00  0.00    +0.000 A 
ATOM      5  C   UNL     1       3.355   7.350  17.743  0.00  0.00    +0.000 A 
ATOM      6  C   UNL     1       3.564   6.040  18.171  0.00  0.00    +0.000 A 
ATOM      7  C   UNL     1       2.896   5.562  19.287  0.00  0.00    +0.000 A 
ATOM      8  C   UNL     1       2.076   6.420  20.043  0.00  0.00    +0.000 A 
ATOM      9  C   UNL     1       1.865   7.777  19.650  0.00  0.00    +0.000 A 
ATOM     10  C   UNL     1       1.176   8.894  20.297  0.00  0.00    +0.000 A 
BRANCH  10  11
ATOM     11  C   UNL     1       0.790   8.894  21.748  0.00  0.00    +0.000 C 
BRANCH  11  12
ATOM     12  O   UNL     1       1.837   9.242  22.635  0.00  0.00    +0.000 OA
ATOM     13  H   UNL     1       2.439   8.482  22.650  0.00  0.00    +0.000 HD
ENDBRANCH  11  12
ENDBRANCH  10  11
ENDBRANCH   1   2
BRANCH   1  15
ATOM     14  O   UNL     1       0.826  13.519  19.687  0.00  0.00    +0.000 OA
ATOM     15  S   UNL     1       0.688  12.351  20.529  0.00  0.00    +0.000 S 
ATOM     16  O   UNL     1       1.791  11.871  21.341  0.00  0.00    +0.000 OA
BRANCH  15  17
ATOM     17  C   UNL     1      -0.655  12.664  21.686  0.00  0.00    +0.000 A 
ATOM     18  C   UNL     1      -1.102  13.977  21.872  0.00  0.00    +0.000 A 
ATOM     19  C   UNL     1      -2.157  14.240  22.750  0.00  0.00    +0.000 A 
ATOM     20  C   UNL     1      -2.781  13.194  23.430  0.00  0.00    +0.000 A 
ATOM     21  C   UNL     1      -2.352  11.878  23.225  0.00  0.00    +0.000 A 
ATOM     22  C   UNL     1      -1.287  11.608  22.353  0.00  0.00    +0.000 A 
ENDBRANCH  15  17
ENDBRANCH   1  15
BRANCH   1  23
ATOM     23  C   UNL     1      -0.638  11.526  18.344  0.00  0.00    +0.000 C 
BRANCH  23  24
ATOM     24  C   UNL     1      -2.107  11.187  18.439  0.00  0.00    +0.000 A 
ATOM     25  C   UNL     1      -2.637  10.144  17.670  0.00  0.00    +0.000 A 
ATOM     26  C   UNL     1      -4.016   9.969  17.588  0.00  0.00    +0.000 A 
ATOM     27  C   UNL     1      -4.865  10.851  18.251  0.00  0.00    +0.000 A 
ATOM     28  F   UNL     1      -6.186  10.697  18.085  0.00  0.00    +0.000 F 
ATOM     29  C   UNL     1      -4.368  11.886  19.035  0.00  0.00    +0.000 A 
ATOM     30  C   UNL     1      -2.976  12.019  19.164  0.00  0.00    +0.000 A 
BRANCH  29  31
ATOM     31  C   UNL     1      -5.279  12.898  19.658  0.00  0.00    +0.000 C 
ATOM     32  F   UNL     1      -6.198  12.391  20.526  0.00  0.00    +0.000 F 
ATOM     33  F   UNL     1      -4.601  13.853  20.358  0.00  0.00    +0.000 F 
ATOM     34  F   UNL     1      -6.004  13.581  18.724  0.00  0.00    +0.000 F 
ENDBRANCH  29  31
ENDBRANCH  23  24
ENDBRANCH   1  23
TORSDOF 8
ENDMDL
MODEL 2
REMARK VINA RESULT:      -7.0      0.582      1.228
REMARK  Name = 
REMARK  8 active torsions:
REMARK  status: ('A' for Active; 'I' for Inactive)
REMARK    1  A    between atoms: S_2  and  C_4
REMARK    2  A    between atoms: S_2  and  N_10
REMARK    3  A    between atoms: N_10  and  C_11
REMARK    4  A    between atoms: N_10  and  C_23
REMARK    5  A    between atoms: C_11  and  C_12
REMARK    6  A    between atoms: C_17  and  C_18
REMARK    7  A    between atoms: C_31  and  C_32
REMARK    8  A    between atoms: C_32  and  O_33
REMARK                            x       y       z     vdW  Elec       q    Type
REMARK                         _______ _______ _______ _____ _____    ______ ____
ROOT
ATOM      1  N   UNL     1       0.095  11.442  19.548  0.00  0.00    +0.000 N 
ENDROOT
BRANCH   1   2
ATOM      2  C   UNL     1       0.909  10.239  19.483  0.00  0.00    +0.000 A 
ATOM      3  S   UNL     1       1.860   9.832  18.130  0.00  0.00    +0.000 S 
ATOM      4  C   UNL     1       2.194   8.254  18.716  0.00  0.00    +0.000 A 
ATOM      5  C   UNL     1       3.003   7.280  18.094  0.00  0.00    +0.000 A 
ATOM      6  C   UNL     1       3.068   5.995  18.631  0.00  0.00    +0.000 A 
ATOM      7  C   UNL     1       2.337   5.683  19.765  0.00  0.00    +0.000 A 
ATOM      8  C   UNL     1       1.599   6.679  20.430  0.00  0.00    +0.000 A 
ATOM      9  C   UNL     1       1.536   8.014  19.924  0.00  0.00    +0.000 A 
ATOM     10  C   UNL     1       0.957   9.245  20.463  0.00  0.00    +0.000 A 
BRANCH  10  11
ATOM     11  C   UNL     1       0.550   9.404  21.900  0.00  0.00    +0.000 C 
BRANCH  11  12
ATOM     12  O   UNL     1       1.624   9.639  22.792  0.00  0.00    +0.000 OA
ATOM     13  H   UNL     1       2.257  10.191  22.308  0.00  0.00    +0.000 HD
ENDBRANCH  11  12
ENDBRANCH  10  11
ENDBRANCH   1   2
BRANCH   1  15
ATOM     14  O   UNL     1       1.207  13.757  19.328  0.00  0.00    +0.000 OA
ATOM     15  S   UNL     1       0.862  12.769  20.327  0.00  0.00    +0.000 S 
ATOM     16  O   UNL     1       1.849  12.271  21.267  0.00  0.00    +0.000 OA
BRANCH  15  17
ATOM     17  C   UNL     1      -0.461  13.449  21.341  0.00  0.00    +0.000 A 
ATOM     18  C   UNL     1      -0.885  12.740  22.470  0.00  0.00    +0.000 A 
ATOM     19  C   UNL     1      -1.896  13.259  23.283  0.00  0.00    +0.000 A 
ATOM     20  C   UNL     1      -2.473  14.493  22.984  0.00  0.00    +0.000 A 
ATOM     21  C   UNL     1      -2.032  15.214  21.870  0.00  0.00    +0.000 A 
ATOM     22  C   UNL     1      -1.024  14.695  21.043  0.00  0.00    +0.000 A 
ENDBRANCH  15  17
ENDBRANCH   1  15
BRANCH   1  23
ATOM     23  C   UNL     1      -0.605  11.836  18.280  0.00  0.00    +0.000 C 
BRANCH  23  24
ATOM     24  C   UNL     1      -2.046  11.389  18.332  0.00  0.00    +0.000 A 
ATOM     25  C   UNL     1      -2.516  10.429  17.428  0.00  0.00    +0.000 A 
ATOM     26  C   UNL     1      -3.882  10.175  17.327  0.00  0.00    +0.000 A 
ATOM     27  C   UNL     1      -4.779  10.897  18.110  0.00  0.00    +0.000 A 
ATOM     28  F   UNL     1      -6.088  10.679  17.929  0.00  0.00    +0.000 F 
ATOM     29  C   UNL     1      -4.341  11.845  19.028  0.00  0.00    +0.000 A 
ATOM     30  C   UNL     1      -2.959  12.052  19.170  0.00  0.00    +0.000 A 
BRANCH  29  31
ATOM     31  C   UNL     1      -5.309  12.697  19.790  0.00  0.00    +0.000 C 
ATOM     32  F   UNL     1      -6.114  13.483  19.023  0.00  0.00    +0.000 F 
ATOM     33  F   UNL     1      -6.151  11.961  20.573  0.00  0.00    +0.000 F 
ATOM     34  F   UNL     1      -4.676  13.553  20.645  0.00  0.00    +0.000 F 
ENDBRANCH  29  31
ENDBRANCH  23  24
ENDBRANCH   1  23
TORSDOF 8
ENDMDL
MODEL 3
REMARK VINA RESULT:      -7.0      3.650      7.075
REMARK  Name = 
REMARK  8 active torsions:
REMARK  status: ('A' for Active; 'I' for Inactive)
REMARK    1  A    between atoms: S_2  and  C_4
REMARK    2  A    between atoms: S_2  and  N_10
REMARK    3  A    between atoms: N_10  and  C_11
REMARK    4  A    between atoms: N_10  and  C_23
REMARK    5  A    between atoms: C_11  and  C_12
REMARK    6  A    between atoms: C_17  and  C_18
REMARK    7  A    between atoms: C_31  and  C_32
REMARK    8  A    between atoms: C_32  and  O_33
REMARK                            x       y       z     vdW  Elec       q    Type
REMARK                         _______ _______ _______ _____ _____    ______ ____
ROOT
ATOM      1  N   UNL     1      -1.348  12.586  20.679  0.00  0.00    +0.000 N 
ENDROOT
BRANCH   1   2
ATOM      2  C   UNL     1      -2.698  12.613  20.144  0.00  0.00    +0.000 A 
ATOM      3  S   UNL     1      -3.984  13.433  20.902  0.00  0.00    +0.000 S 
ATOM      4  C   UNL     1      -5.167  12.739  19.871  0.00  0.00    +0.000 A 
ATOM      5  C   UNL     1      -6.553  12.993  19.891  0.00  0.00    +0.000 A 
ATOM      6  C   UNL     1      -7.402  12.247  19.075  0.00  0.00    +0.000 A 
ATOM      7  C   UNL     1      -6.880  11.259  18.256  0.00  0.00    +0.000 A 
ATOM      8  C   UNL     1      -5.489  11.066  18.176  0.00  0.00    +0.000 A 
ATOM      9  C   UNL     1      -4.589  11.835  18.976  0.00  0.00    +0.000 A 
ATOM     10  C   UNL     1      -3.128  11.923  19.007  0.00  0.00    +0.000 A 
BRANCH  10  11
ATOM     11  C   UNL     1      -2.248  11.397  17.910  0.00  0.00    +0.000 C 
BRANCH  11  12
ATOM     12  O   UNL     1      -1.758  12.387  17.024  0.00  0.00    +0.000 OA
ATOM     13  H   UNL     1      -2.364  12.392  16.267  0.00  0.00    +0.000 HD
ENDBRANCH  11  12
ENDBRANCH  10  11
ENDBRANCH   1   2
BRANCH   1  15
ATOM     14  O   UNL     1      -0.354  14.344  22.281  0.00  0.00    +0.000 OA
ATOM     15  S   UNL     1      -0.638  14.139  20.878  0.00  0.00    +0.000 S 
ATOM     16  O   UNL     1      -1.390  15.114  20.109  0.00  0.00    +0.000 OA
BRANCH  15  17
ATOM     17  C   UNL     1       0.935  13.966  20.018  0.00  0.00    +0.000 A 
ATOM     18  C   UNL     1       0.952  13.391  18.742  0.00  0.00    +0.000 A 
ATOM     19  C   UNL     1       2.159  13.265  18.048  0.00  0.00    +0.000 A 
ATOM     20  C   UNL     1       3.346  13.730  18.615  0.00  0.00    +0.000 A 
ATOM     21  C   UNL     1       3.325  14.327  19.879  0.00  0.00    +0.000 A 
ATOM     22  C   UNL     1       2.119  14.448  20.586  0.00  0.00    +0.000 A 
ENDBRANCH  15  17
ENDBRANCH   1  15
BRANCH   1  23
ATOM     23  C   UNL     1      -1.123  11.688  21.861  0.00  0.00    +0.000 C 
BRANCH  23  24
ATOM     24  C   UNL     1      -0.348  10.465  21.434  0.00  0.00    +0.000 A 
ATOM     25  C   UNL     1       0.213   9.617  22.398  0.00  0.00    +0.000 A 
ATOM     26  C   UNL     1       1.105   8.619  22.014  0.00  0.00    +0.000 A 
ATOM     27  C   UNL     1       1.457   8.484  20.673  0.00  0.00    +0.000 A 
ATOM     28  F   UNL     1       2.376   7.563  20.355  0.00  0.00    +0.000 F 
ATOM     29  C   UNL     1       0.905   9.300  19.693  0.00  0.00    +0.000 A 
ATOM     30  C   UNL     1      -0.042  10.263  20.078  0.00  0.00    +0.000 A 
BRANCH  29  31
ATOM     31  C   UNL     1       1.365   9.227  18.269  0.00  0.00    +0.000 C 
ATOM     32  F   UNL     1       2.405  10.047  17.955  0.00  0.00    +0.000 F 
ATOM     33  F   UNL     1       1.764   7.972  17.911  0.00  0.00    +0.000 F 
ATOM     34  F   UNL     1       0.370   9.554  17.392  0.00  0.00    +0.000 F 
ENDBRANCH  29  31
ENDBRANCH  23  24
ENDBRANCH   1  23
TORSDOF 8
ENDMDL
MODEL 4
REMARK VINA RESULT:      -6.9      3.689      7.087
REMARK  Name = 
REMARK  8 active torsions:
REMARK  status: ('A' for Active; 'I' for Inactive)
REMARK    1  A    between atoms: S_2  and  C_4
REMARK    2  A    between atoms: S_2  and  N_10
REMARK    3  A    between atoms: N_10  and  C_11
REMARK    4  A    between atoms: N_10  and  C_23
REMARK    5  A    between atoms: C_11  and  C_12
REMARK    6  A    between atoms: C_17  and  C_18
REMARK    7  A    between atoms: C_31  and  C_32
REMARK    8  A    between atoms: C_32  and  O_33
REMARK                            x       y       z     vdW  Elec       q    Type
REMARK                         _______ _______ _______ _____ _____    ______ ____
ROOT
ATOM      1  N   UNL     1      -1.378  12.544  20.666  0.00  0.00    +0.000 N 
ENDROOT
BRANCH   1   2
ATOM      2  C   UNL     1      -2.743  12.559  20.168  0.00  0.00    +0.000 A 
ATOM      3  S   UNL     1      -4.036  13.272  21.017  0.00  0.00    +0.000 S 
ATOM      4  C   UNL     1      -5.221  12.611  19.967  0.00  0.00    +0.000 A 
ATOM      5  C   UNL     1      -6.615  12.811  20.041  0.00  0.00    +0.000 A 
ATOM      6  C   UNL     1      -7.458  12.095  19.193  0.00  0.00    +0.000 A 
ATOM      7  C   UNL     1      -6.924  11.191  18.290  0.00  0.00    +0.000 A 
ATOM      8  C   UNL     1      -5.530  11.057  18.161  0.00  0.00    +0.000 A 
ATOM      9  C   UNL     1      -4.636  11.799  18.993  0.00  0.00    +0.000 A 
ATOM     10  C   UNL     1      -3.180  11.940  18.994  0.00  0.00    +0.000 A 
BRANCH  10  11
ATOM     11  C   UNL     1      -2.312  11.530  17.839  0.00  0.00    +0.000 C 
BRANCH  11  12
ATOM     12  O   UNL     1      -2.806  11.911  16.568  0.00  0.00    +0.000 OA
ATOM     13  H   UNL     1      -3.078  12.838  16.654  0.00  0.00    +0.000 HD
ENDBRANCH  11  12
ENDBRANCH  10  11
ENDBRANCH   1   2
BRANCH   1  15
ATOM     14  O   UNL     1      -0.336  14.307  22.231  0.00  0.00    +0.000 OA
ATOM     15  S   UNL     1      -0.674  14.103  20.840  0.00  0.00    +0.000 S 
ATOM     16  O   UNL     1      -1.467  15.073  20.106  0.00  0.00    +0.000 OA
BRANCH  15  17
ATOM     17  C   UNL     1       0.862  13.947  19.916  0.00  0.00    +0.000 A 
ATOM     18  C   UNL     1       2.060  14.357  20.513  0.00  0.00    +0.000 A 
ATOM     19  C   UNL     1       3.267  14.226  19.821  0.00  0.00    +0.000 A 
ATOM     20  C   UNL     1       3.286  13.668  18.543  0.00  0.00    +0.000 A 
ATOM     21  C   UNL     1       2.094  13.234  17.957  0.00  0.00    +0.000 A 
ATOM     22  C   UNL     1       0.876  13.371  18.640  0.00  0.00    +0.000 A 
ENDBRANCH  15  17
ENDBRANCH   1  15
BRANCH   1  23
ATOM     23  C   UNL     1      -1.114  11.651  21.843  0.00  0.00    +0.000 C 
BRANCH  23  24
ATOM     24  C   UNL     1      -0.334  10.437  21.399  0.00  0.00    +0.000 A 
ATOM     25  C   UNL     1       0.240   9.585  22.352  0.00  0.00    +0.000 A 
ATOM     26  C   UNL     1       1.135   8.596  21.952  0.00  0.00    +0.000 A 
ATOM     27  C   UNL     1       1.476   8.475  20.608  0.00  0.00    +0.000 A 
ATOM     28  F   UNL     1       2.399   7.562  20.274  0.00  0.00    +0.000 F 
ATOM     29  C   UNL     1       0.912   9.295  19.638  0.00  0.00    +0.000 A 
ATOM     30  C   UNL     1      -0.038  10.248  20.039  0.00  0.00    +0.000 A 
BRANCH  29  31
ATOM     31  C   UNL     1       1.360   9.236  18.210  0.00  0.00    +0.000 C 
ATOM     32  F   UNL     1       1.664   7.991  17.751  0.00  0.00    +0.000 F 
ATOM     33  F   UNL     1       0.424   9.728  17.347  0.00  0.00    +0.000 F 
ATOM     34  F   UNL     1       2.481   9.985  17.994  0.00  0.00    +0.000 F 
ENDBRANCH  29  31
ENDBRANCH  23  24
ENDBRANCH   1  23
TORSDOF 8
ENDMDL
MODEL 5
REMARK VINA RESULT:      -6.9      3.764      7.421
REMARK  Name = 
REMARK  8 active torsions:
REMARK  status: ('A' for Active; 'I' for Inactive)
REMARK    1  A    between atoms: S_2  and  C_4
REMARK    2  A    between atoms: S_2  and  N_10
REMARK    3  A    between atoms: N_10  and  C_11
REMARK    4  A    between atoms: N_10  and  C_23
REMARK    5  A    between atoms: C_11  and  C_12
REMARK    6  A    between atoms: C_17  and  C_18
REMARK    7  A    between atoms: C_31  and  C_32
REMARK    8  A    between atoms: C_32  and  O_33
REMARK                            x       y       z     vdW  Elec       q    Type
REMARK                         _______ _______ _______ _____ _____    ______ ____
ROOT
ATOM      1  N   UNL     1      -1.924  12.517  22.014  0.00  0.00    +0.000 N 
ENDROOT
BRANCH   1   2
ATOM      2  C   UNL     1      -3.358  12.710  21.884  0.00  0.00    +0.000 A 
ATOM      3  S   UNL     1      -4.160  12.748  20.381  0.00  0.00    +0.000 S 
ATOM      4  C   UNL     1      -5.634  13.293  21.069  0.00  0.00    +0.000 A 
ATOM      5  C   UNL     1      -6.842  13.536  20.383  0.00  0.00    +0.000 A 
ATOM      6  C   UNL     1      -7.916  14.106  21.064  0.00  0.00    +0.000 A 
ATOM      7  C   UNL     1      -7.790  14.435  22.404  0.00  0.00    +0.000 A 
ATOM      8  C   UNL     1      -6.613  14.113  23.104  0.00  0.00    +0.000 A 
ATOM      9  C   UNL     1      -5.504  13.500  22.444  0.00  0.00    +0.000 A 
ATOM     10  C   UNL     1      -4.237  12.962  22.941  0.00  0.00    +0.000 A 
BRANCH  10  11
ATOM     11  C   UNL     1      -3.979  12.666  24.390  0.00  0.00    +0.000 C 
BRANCH  11  12
ATOM     12  O   UNL     1      -4.861  11.717  24.962  0.00  0.00    +0.000 OA
ATOM     13  H   UNL     1      -4.639  11.679  25.905  0.00  0.00    +0.000 HD
ENDBRANCH  11  12
ENDBRANCH  10  11
ENDBRANCH   1   2
BRANCH   1  15
ATOM     14  O   UNL     1      -0.343  13.843  23.559  0.00  0.00    +0.000 OA
ATOM     15  S   UNL     1      -1.040  13.964  22.298  0.00  0.00    +0.000 S 
ATOM     16  O   UNL     1      -1.886  15.108  22.010  0.00  0.00    +0.000 OA
BRANCH  15  17
ATOM     17  C   UNL     1       0.189  13.939  20.984  0.00  0.00    +0.000 A 
ATOM     18  C   UNL     1      -0.238  13.979  19.651  0.00  0.00    +0.000 A 
ATOM     19  C   UNL     1       0.701  13.981  18.616  0.00  0.00    +0.000 A 
ATOM     20  C   UNL     1       2.065  13.962  18.905  0.00  0.00    +0.000 A 
ATOM     21  C   UNL     1       2.493  13.948  20.236  0.00  0.00    +0.000 A 
ATOM     22  C   UNL     1       1.557  13.936  21.282  0.00  0.00    +0.000 A 
ENDBRANCH  15  17
ENDBRANCH   1  15
BRANCH   1  23
ATOM     23  C   UNL     1      -1.488  11.386  22.900  0.00  0.00    +0.000 C 
BRANCH  23  24
ATOM     24  C   UNL     1      -0.672  10.396  22.102  0.00  0.00    +0.000 A 
ATOM     25  C   UNL     1       0.125   9.451  22.760  0.00  0.00    +0.000 A 
ATOM     26  C   UNL     1       1.038   8.686  22.039  0.00  0.00    +0.000 A 
ATOM     27  C   UNL     1       1.174   8.884  20.667  0.00  0.00    +0.000 A 
ATOM     28  F   UNL     1       2.117   8.184  20.022  0.00  0.00    +0.000 F 
ATOM     29  C   UNL     1       0.386   9.803  19.984  0.00  0.00    +0.000 A 
ATOM     30  C   UNL     1      -0.577  10.526  20.706  0.00  0.00    +0.000 A 
BRANCH  29  31
ATOM     31  C   UNL     1       0.607  10.091  18.531  0.00  0.00    +0.000 C 
ATOM     32  F   UNL     1       0.677   8.994  17.729  0.00  0.00    +0.000 F 
ATOM     33  F   UNL     1      -0.374  10.876  17.998  0.00  0.00    +0.000 F 
ATOM     34  F   UNL     1       1.772  10.771  18.315  0.00  0.00    +0.000 F 
ENDBRANCH  29  31
ENDBRANCH  23  24
ENDBRANCH   1  23
TORSDOF 8
ENDMDL
MODEL 6
REMARK VINA RESULT:      -6.8      5.963      9.963
REMARK  Name = 
REMARK  8 active torsions:
REMARK  status: ('A' for Active; 'I' for Inactive)
REMARK    1  A    between atoms: S_2  and  C_4
REMARK    2  A    between atoms: S_2  and  N_10
REMARK    3  A    between atoms: N_10  and  C_11
REMARK    4  A    between atoms: N_10  and  C_23
REMARK    5  A    between atoms: C_11  and  C_12
REMARK    6  A    between atoms: C_17  and  C_18
REMARK    7  A    between atoms: C_31  and  C_32
REMARK    8  A    between atoms: C_32  and  O_33
REMARK                            x       y       z     vdW  Elec       q    Type
REMARK                         _______ _______ _______ _____ _____    ______ ____
ROOT
ATOM      1  N   UNL     1       2.523   6.251  19.491  0.00  0.00    +0.000 N 
ENDROOT
BRANCH   1   2
ATOM      2  C   UNL     1       1.979   7.533  19.905  0.00  0.00    +0.000 A 
ATOM      3  S   UNL     1       1.585   7.900  21.521  0.00  0.00    +0.000 S 
ATOM      4  C   UNL     1       0.782   9.356  21.099  0.00  0.00    +0.000 A 
ATOM      5  C   UNL     1       0.182  10.273  21.987  0.00  0.00    +0.000 A 
ATOM      6  C   UNL     1      -0.549  11.345  21.479  0.00  0.00    +0.000 A 
ATOM      7  C   UNL     1      -0.687  11.500  20.109  0.00  0.00    +0.000 A 
ATOM      8  C   UNL     1      -0.018  10.632  19.227  0.00  0.00    +0.000 A 
ATOM      9  C   UNL     1       0.766   9.542  19.715  0.00  0.00    +0.000 A 
ATOM     10  C   UNL     1       1.643   8.581  19.044  0.00  0.00    +0.000 A 
BRANCH  10  11
ATOM     11  C   UNL     1       2.151   8.768  17.643  0.00  0.00    +0.000 C 
BRANCH  11  12
ATOM     12  O   UNL     1       2.312  10.119  17.252  0.00  0.00    +0.000 OA
ATOM     13  H   UNL     1       2.435  10.107  16.291  0.00  0.00    +0.000 HD
ENDBRANCH  11  12
ENDBRANCH  10  11
ENDBRANCH   1   2
BRANCH   1  15
ATOM     14  O   UNL     1       0.537   4.848  20.347  0.00  0.00    +0.000 OA
ATOM     15  S   UNL     1       1.979   4.918  20.431  0.00  0.00    +0.000 S 
ATOM     16  O   UNL     1       2.661   4.923  21.713  0.00  0.00    +0.000 OA
BRANCH  15  17
ATOM     17  C   UNL     1       2.653   3.507  19.540  0.00  0.00    +0.000 A 
ATOM     18  C   UNL     1       3.919   3.022  19.889  0.00  0.00    +0.000 A 
ATOM     19  C   UNL     1       4.452   1.915  19.224  0.00  0.00    +0.000 A 
ATOM     20  C   UNL     1       3.718   1.276  18.225  0.00  0.00    +0.000 A 
ATOM     21  C   UNL     1       2.442   1.744  17.893  0.00  0.00    +0.000 A 
ATOM     22  C   UNL     1       1.904   2.861  18.549  0.00  0.00    +0.000 A 
ENDBRANCH  15  17
ENDBRANCH   1  15
BRANCH   1  23
ATOM     23  C   UNL     1       2.504   5.969  18.017  0.00  0.00    +0.000 C 
BRANCH  23  24
ATOM     24  C   UNL     1       3.898   5.638  17.541  0.00  0.00    +0.000 A 
ATOM     25  C   UNL     1       4.082   4.779  16.450  0.00  0.00    +0.000 A 
ATOM     26  C   UNL     1       5.354   4.301  16.146  0.00  0.00    +0.000 A 
ATOM     27  C   UNL     1       6.437   4.658  16.946  0.00  0.00    +0.000 A 
ATOM     28  F   UNL     1       7.630   4.116  16.667  0.00  0.00    +0.000 F 
ATOM     29  C   UNL     1       6.288   5.522  18.025  0.00  0.00    +0.000 A 
ATOM     30  C   UNL     1       5.014   6.051  18.288  0.00  0.00    +0.000 A 
BRANCH  29  31
ATOM     31  C   UNL     1       7.430   5.820  18.947  0.00  0.00    +0.000 C 
ATOM     32  F   UNL     1       7.119   5.806  20.273  0.00  0.00    +0.000 F 
ATOM     33  F   UNL     1       8.463   4.941  18.802  0.00  0.00    +0.000 F 
ATOM     34  F   UNL     1       7.968   7.053  18.716  0.00  0.00    +0.000 F 
ENDBRANCH  29  31
ENDBRANCH  23  24
ENDBRANCH   1  23
TORSDOF 8
ENDMDL
MODEL 7
REMARK VINA RESULT:      -6.7      4.073      7.250
REMARK  Name = 
REMARK  8 active torsions:
REMARK  status: ('A' for Active; 'I' for Inactive)
REMARK    1  A    between atoms: S_2  and  C_4
REMARK    2  A    between atoms: S_2  and  N_10
REMARK    3  A    between atoms: N_10  and  C_11
REMARK    4  A    between atoms: N_10  and  C_23
REMARK    5  A    between atoms: C_11  and  C_12
REMARK    6  A    between atoms: C_17  and  C_18
REMARK    7  A    between atoms: C_31  and  C_32
REMARK    8  A    between atoms: C_32  and  O_33
REMARK                            x       y       z     vdW  Elec       q    Type
REMARK                         _______ _______ _______ _____ _____    ______ ____
ROOT
ATOM      1  N   UNL     1      -0.867  12.109  20.254  0.00  0.00    +0.000 N 
ENDROOT
BRANCH   1   2
ATOM      2  C   UNL     1      -2.265  12.206  19.871  0.00  0.00    +0.000 A 
ATOM      3  S   UNL     1      -3.476  12.804  20.910  0.00  0.00    +0.000 S 
ATOM      4  C   UNL     1      -4.750  12.308  19.874  0.00  0.00    +0.000 A 
ATOM      5  C   UNL     1      -6.130  12.508  20.083  0.00  0.00    +0.000 A 
ATOM      6  C   UNL     1      -7.049  11.926  19.212  0.00  0.00    +0.000 A 
ATOM      7  C   UNL     1      -6.603  11.153  18.152  0.00  0.00    +0.000 A 
ATOM      8  C   UNL     1      -5.226  11.026  17.898  0.00  0.00    +0.000 A 
ATOM      9  C   UNL     1      -4.257  11.636  18.753  0.00  0.00    +0.000 A 
ATOM     10  C   UNL     1      -2.802  11.762  18.660  0.00  0.00    +0.000 A 
BRANCH  10  11
ATOM     11  C   UNL     1      -2.033  11.511  17.395  0.00  0.00    +0.000 C 
BRANCH  11  12
ATOM     12  O   UNL     1      -1.294  12.624  16.926  0.00  0.00    +0.000 OA
ATOM     13  H   UNL     1      -1.681  13.403  17.355  0.00  0.00    +0.000 HD
ENDBRANCH  11  12
ENDBRANCH  10  11
ENDBRANCH   1   2
BRANCH   1  15
ATOM     14  O   UNL     1       0.053  13.097  22.450  0.00  0.00    +0.000 OA
ATOM     15  S   UNL     1      -0.269  13.485  21.095  0.00  0.00    +0.000 S 
ATOM     16  O   UNL     1      -1.124  14.625  20.819  0.00  0.00    +0.000 OA
BRANCH  15  17
ATOM     17  C   UNL     1       1.276  13.829  20.238  0.00  0.00    +0.000 A 
ATOM     18  C   UNL     1       1.242  14.139  18.873  0.00  0.00    +0.000 A 
ATOM     19  C   UNL     1       2.428  14.430  18.193  0.00  0.00    +0.000 A 
ATOM     20  C   UNL     1       3.645  14.432  18.874  0.00  0.00    +0.000 A 
ATOM     21  C   UNL     1       3.676  14.147  20.242  0.00  0.00    +0.000 A 
ATOM     22  C   UNL     1       2.492  13.845  20.931  0.00  0.00    +0.000 A 
ENDBRANCH  15  17
ENDBRANCH   1  15
BRANCH   1  23
ATOM     23  C   UNL     1      -0.442  10.813  20.882  0.00  0.00    +0.000 C 
BRANCH  23  24
ATOM     24  C   UNL     1       0.602  10.145  20.020  0.00  0.00    +0.000 A 
ATOM     25  C   UNL     1       0.959  10.707  18.788  0.00  0.00    +0.000 A 
ATOM     26  C   UNL     1       1.753   9.987  17.898  0.00  0.00    +0.000 A 
ATOM     27  C   UNL     1       2.168   8.700  18.227  0.00  0.00    +0.000 A 
ATOM     28  F   UNL     1       2.865   8.012  17.313  0.00  0.00    +0.000 F 
ATOM     29  C   UNL     1       1.844   8.123  19.449  0.00  0.00    +0.000 A 
ATOM     30  C   UNL     1       1.096   8.877  20.368  0.00  0.00    +0.000 A 
BRANCH  29  31
ATOM     31  C   UNL     1       2.198   6.700  19.758  0.00  0.00    +0.000 C 
ATOM     32  F   UNL     1       3.532   6.442  19.840  0.00  0.00    +0.000 F 
ATOM     33  F   UNL     1       1.667   6.274  20.940  0.00  0.00    +0.000 F 
ATOM     34  F   UNL     1       1.720   5.837  18.814  0.00  0.00    +0.000 F 
ENDBRANCH  29  31
ENDBRANCH  23  24
ENDBRANCH   1  23
TORSDOF 8
ENDMDL
MODEL 8
REMARK VINA RESULT:      -6.7      5.885     10.064
REMARK  Name = 
REMARK  8 active torsions:
REMARK  status: ('A' for Active; 'I' for Inactive)
REMARK    1  A    between atoms: S_2  and  C_4
REMARK    2  A    between atoms: S_2  and  N_10
REMARK    3  A    between atoms: N_10  and  C_11
REMARK    4  A    between atoms: N_10  and  C_23
REMARK    5  A    between atoms: C_11  and  C_12
REMARK    6  A    between atoms: C_17  and  C_18
REMARK    7  A    between atoms: C_31  and  C_32
REMARK    8  A    between atoms: C_32  and  O_33
REMARK                            x       y       z     vdW  Elec       q    Type
REMARK                         _______ _______ _______ _____ _____    ______ ____
ROOT
ATOM      1  N   UNL     1       2.496   6.389  19.696  0.00  0.00    +0.000 N 
ENDROOT
BRANCH   1   2
ATOM      2  C   UNL     1       1.894   7.661  20.058  0.00  0.00    +0.000 A 
ATOM      3  S   UNL     1       1.433   8.054  21.650  0.00  0.00    +0.000 S 
ATOM      4  C   UNL     1       0.596   9.470  21.164  0.00  0.00    +0.000 A 
ATOM      5  C   UNL     1      -0.064  10.387  22.008  0.00  0.00    +0.000 A 
ATOM      6  C   UNL     1      -0.814  11.420  21.448  0.00  0.00    +0.000 A 
ATOM      7  C   UNL     1      -0.911  11.536  20.071  0.00  0.00    +0.000 A 
ATOM      8  C   UNL     1      -0.183  10.671  19.234  0.00  0.00    +0.000 A 
ATOM      9  C   UNL     1       0.621   9.621  19.776  0.00  0.00    +0.000 A 
ATOM     10  C   UNL     1       1.552   8.675  19.159  0.00  0.00    +0.000 A 
BRANCH  10  11
ATOM     11  C   UNL     1       2.101   8.845  17.772  0.00  0.00    +0.000 C 
BRANCH  11  12
ATOM     12  O   UNL     1       2.114  10.182  17.305  0.00  0.00    +0.000 OA
ATOM     13  H   UNL     1       2.087  10.742  18.096  0.00  0.00    +0.000 HD
ENDBRANCH  11  12
ENDBRANCH  10  11
ENDBRANCH   1   2
BRANCH   1  15
ATOM     14  O   UNL     1       0.375   5.062  20.315  0.00  0.00    +0.000 OA
ATOM     15  S   UNL     1       1.810   5.032  20.497  0.00  0.00    +0.000 S 
ATOM     16  O   UNL     1       2.401   4.903  21.817  0.00  0.00    +0.000 OA
BRANCH  15  17
ATOM     17  C   UNL     1       2.456   3.646  19.548  0.00  0.00    +0.000 A 
ATOM     18  C   UNL     1       3.614   2.998  19.993  0.00  0.00    +0.000 A 
ATOM     19  C   UNL     1       4.122   1.906  19.283  0.00  0.00    +0.000 A 
ATOM     20  C   UNL     1       3.467   1.447  18.141  0.00  0.00    +0.000 A 
ATOM     21  C   UNL     1       2.296   2.078  17.710  0.00  0.00    +0.000 A 
ATOM     22  C   UNL     1       1.785   3.180  18.411  0.00  0.00    +0.000 A 
ENDBRANCH  15  17
ENDBRANCH   1  15
BRANCH   1  23
ATOM     23  C   UNL     1       2.709   6.153  18.229  0.00  0.00    +0.000 C 
BRANCH  23  24
ATOM     24  C   UNL     1       4.101   5.618  17.994  0.00  0.00    +0.000 A 
ATOM     25  C   UNL     1       5.100   5.813  18.956  0.00  0.00    +0.000 A 
ATOM     26  C   UNL     1       6.427   5.517  18.654  0.00  0.00    +0.000 A 
ATOM     27  C   UNL     1       6.759   5.052  17.384  0.00  0.00    +0.000 A 
ATOM     28  F   UNL     1       8.056   4.853  17.107  0.00  0.00    +0.000 F 
ATOM     29  C   UNL     1       5.789   4.833  16.414  0.00  0.00    +0.000 A 
ATOM     30  C   UNL     1       4.445   5.073  16.745  0.00  0.00    +0.000 A 
BRANCH  29  31
ATOM     31  C   UNL     1       6.158   4.438  15.017  0.00  0.00    +0.000 C 
ATOM     32  F   UNL     1       7.264   5.054  14.516  0.00  0.00    +0.000 F 
ATOM     33  F   UNL     1       6.396   3.100  14.898  0.00  0.00    +0.000 F 
ATOM     34  F   UNL     1       5.159   4.709  14.127  0.00  0.00    +0.000 F 
ENDBRANCH  29  31
ENDBRANCH  23  24
ENDBRANCH   1  23
TORSDOF 8
ENDMDL
MODEL 9
REMARK VINA RESULT:      -6.7      1.089      1.550
REMARK  Name = 
REMARK  8 active torsions:
REMARK  status: ('A' for Active; 'I' for Inactive)
REMARK    1  A    between atoms: S_2  and  C_4
REMARK    2  A    between atoms: S_2  and  N_10
REMARK    3  A    between atoms: N_10  and  C_11
REMARK    4  A    between atoms: N_10  and  C_23
REMARK    5  A    between atoms: C_11  and  C_12
REMARK    6  A    between atoms: C_17  and  C_18
REMARK    7  A    between atoms: C_31  and  C_32
REMARK    8  A    between atoms: C_32  and  O_33
REMARK                            x       y       z     vdW  Elec       q    Type
REMARK                         _______ _______ _______ _____ _____    ______ ____
ROOT
ATOM      1  N   UNL     1      -0.371  11.990  19.700  0.00  0.00    +0.000 N 
ENDROOT
BRANCH   1   2
ATOM      2  C   UNL     1       0.440  10.784  19.745  0.00  0.00    +0.000 A 
ATOM      3  S   UNL     1       1.469  10.306  18.474  0.00  0.00    +0.000 S 
ATOM      4  C   UNL     1       1.760   8.760  19.159  0.00  0.00    +0.000 A 
ATOM      5  C   UNL     1       2.600   7.755  18.637  0.00  0.00    +0.000 A 
ATOM      6  C   UNL     1       2.627   6.499  19.242  0.00  0.00    +0.000 A 
ATOM      7  C   UNL     1       1.828   6.246  20.345  0.00  0.00    +0.000 A 
ATOM      8  C   UNL     1       1.057   7.276  20.912  0.00  0.00    +0.000 A 
ATOM      9  C   UNL     1       1.030   8.583  20.336  0.00  0.00    +0.000 A 
ATOM     10  C   UNL     1       0.425   9.841  20.776  0.00  0.00    +0.000 A 
BRANCH  10  11
ATOM     11  C   UNL     1      -0.066  10.074  22.176  0.00  0.00    +0.000 C 
BRANCH  11  12
ATOM     12  O   UNL     1       0.899   9.838  23.184  0.00  0.00    +0.000 OA
ATOM     13  H   UNL     1       1.162  10.711  23.512  0.00  0.00    +0.000 HD
ENDBRANCH  11  12
ENDBRANCH  10  11
ENDBRANCH   1   2
BRANCH   1  15
ATOM     14  O   UNL     1       0.600  14.366  19.463  0.00  0.00    +0.000 OA
ATOM     15  S   UNL     1       0.349  13.351  20.464  0.00  0.00    +0.000 S 
ATOM     16  O   UNL     1       1.398  12.901  21.361  0.00  0.00    +0.000 OA
BRANCH  15  17
ATOM     17  C   UNL     1      -0.970  13.946  21.533  0.00  0.00    +0.000 A 
ATOM     18  C   UNL     1      -1.055  13.461  22.844  0.00  0.00    +0.000 A 
ATOM     19  C   UNL     1      -2.059  13.925  23.698  0.00  0.00    +0.000 A 
ATOM     20  C   UNL     1      -2.968  14.886  23.255  0.00  0.00    +0.000 A 
ATOM     21  C   UNL     1      -2.868  15.390  21.955  0.00  0.00    +0.000 A 
ATOM     22  C   UNL     1      -1.869  14.923  21.088  0.00  0.00    +0.000 A 
ENDBRANCH  15  17
ENDBRANCH   1  15
BRANCH   1  23
ATOM     23  C   UNL     1      -0.985  12.324  18.372  0.00  0.00    +0.000 C 
BRANCH  23  24
ATOM     24  C   UNL     1      -2.406  11.817  18.323  0.00  0.00    +0.000 A 
ATOM     25  C   UNL     1      -2.901  11.227  17.153  0.00  0.00    +0.000 A 
ATOM     26  C   UNL     1      -4.262  10.958  17.030  0.00  0.00    +0.000 A 
ATOM     27  C   UNL     1      -5.131  11.301  18.063  0.00  0.00    +0.000 A 
ATOM     28  F   UNL     1      -6.442  11.097  17.875  0.00  0.00    +0.000 F 
ATOM     29  C   UNL     1      -4.667  11.873  19.242  0.00  0.00    +0.000 A 
ATOM     30  C   UNL     1      -3.286  12.083  19.386  0.00  0.00    +0.000 A 
BRANCH  29  31
ATOM     31  C   UNL     1      -5.612  12.341  20.306  0.00  0.00    +0.000 C 
ATOM     32  F   UNL     1      -5.019  12.836  21.427  0.00  0.00    +0.000 F 
ATOM     33  F   UNL     1      -6.449  13.325  19.866  0.00  0.00    +0.000 F 
ATOM     34  F   UNL     1      -6.429  11.338  20.743  0.00  0.00    +0.000 F 
ENDBRANCH  29  31
ENDBRANCH  23  24
ENDBRANCH   1  23
TORSDOF 8
ENDMDL
