MODEL 1
REMARK VINA RESULT:      -8.1      0.000      0.000
REMARK  Name = 
REMARK  10 active torsions:
REMARK  status: ('A' for Active; 'I' for Inactive)
REMARK    1  A    between atoms: C_1  and  C_2
REMARK    2  A    between atoms: C_5  and  N_6
REMARK    3  A    between atoms: N_6  and  C_7
REMARK    4  A    between atoms: N_6  and  S_25
REMARK    5  A    between atoms: C_7  and  C_8
REMARK    6  A    between atoms: N_10  and  C_11
REMARK    7  A    between atoms: C_17  and  O_18
REMARK    8  A    between atoms: O_18  and  C_19
REMARK    9  A    between atoms: S_25  and  C_26
REMARK   10  A    between atoms: C_29  and  C_30
REMARK                            x       y       z     vdW  Elec       q    Type
REMARK                         _______ _______ _______ _____ _____    ______ ____
ROOT
ATOM      1  C   UNL     1       1.927   8.264  18.840  0.00  0.00    +0.000 C 
ATOM      2  O   UNL     1       1.451   7.913  17.758  0.00  0.00    +0.000 OA
ATOM      3  N   UNL     1       2.426   7.380  19.782  0.00  0.00    +0.000 N 
ATOM      4  H   UNL     1       2.334   7.692  20.751  0.00  0.00    +0.000 HD
ENDROOT
BRANCH   3   5
ATOM      5  C   UNL     1       2.518   5.972  19.578  0.00  0.00    +0.000 A 
ATOM      6  C   UNL     1       1.881   5.164  20.535  0.00  0.00    +0.000 A 
ATOM      7  C   UNL     1       1.893   3.772  20.418  0.00  0.00    +0.000 A 
ATOM      8 CL   UNL     1       1.101   2.802  21.599  0.00  0.00    +0.000 Cl
ATOM      9  C   UNL     1       2.524   3.156  19.345  0.00  0.00    +0.000 A 
ATOM     10  C   UNL     1       3.154   3.941  18.383  0.00  0.00    +0.000 A 
ATOM     11  C   UNL     1       3.213   5.344  18.520  0.00  0.00    +0.000 A 
BRANCH  11  12
ATOM     12  O   UNL     1       3.978   6.108  17.652  0.00  0.00    +0.000 OA
BRANCH  12  13
ATOM     13  C   UNL     1       5.323   6.282  17.928  0.00  0.00    +0.000 A 
ATOM     14  C   UNL     1       5.875   5.495  18.940  0.00  0.00    +0.000 A 
ATOM     15  C   UNL     1       7.227   5.630  19.273  0.00  0.00    +0.000 A 
ATOM     16  C   UNL     1       8.029   6.551  18.600  0.00  0.00    +0.000 A 
ATOM     17  C   UNL     1       7.484   7.325  17.577  0.00  0.00    +0.000 A 
ATOM     18  C   UNL     1       6.140   7.174  17.225  0.00  0.00    +0.000 A 
ENDBRANCH  12  13
ENDBRANCH  11  12
ENDBRANCH   3   5
BRANCH   1  19
ATOM     19  C   UNL     1       1.784   9.723  19.267  0.00  0.00    +0.000 C 
BRANCH  19  20
ATOM     20  N   UNL     1       0.596  10.140  20.051  0.00  0.00    +0.000 N 
BRANCH  20  25
ATOM     21  C   UNL     1      -4.131  11.609  17.063  0.00  0.00    +0.000 C 
ATOM     22  C   UNL     1      -2.902  11.226  17.836  0.00  0.00    +0.000 A 
ATOM     23  C   UNL     1      -2.509   9.897  17.991  0.00  0.00    +0.000 A 
ATOM     24  C   UNL     1      -1.358   9.580  18.725  0.00  0.00    +0.000 A 
ATOM     25  C   UNL     1      -0.590  10.578  19.344  0.00  0.00    +0.000 A 
ATOM     26  C   UNL     1      -0.977  11.925  19.193  0.00  0.00    +0.000 A 
ATOM     27  C   UNL     1      -0.294  13.118  19.799  0.00  0.00    +0.000 C 
ATOM     28  C   UNL     1      -2.114  12.226  18.410  0.00  0.00    +0.000 A 
ENDBRANCH  20  25
BRANCH  20  29
ATOM     29  S   UNL     1       0.385   9.485  21.604  0.00  0.00    +0.000 S 
ATOM     30  C   UNL     1      -0.667  10.666  22.425  0.00  0.00    +0.000 C 
ATOM     31  O   UNL     1      -0.373   8.257  21.423  0.00  0.00    +0.000 OA
ATOM     32  O   UNL     1       1.654   9.460  22.291  0.00  0.00    +0.000 OA
ENDBRANCH  20  29
ENDBRANCH  19  20
ENDBRANCH   1  19
TORSDOF 7
ENDMDL
MODEL 2
REMARK VINA RESULT:      -8.1      1.028      1.128
REMARK  Name = 
REMARK  10 active torsions:
REMARK  status: ('A' for Active; 'I' for Inactive)
REMARK    1  A    between atoms: C_1  and  C_2
REMARK    2  A    between atoms: C_5  and  N_6
REMARK    3  A    between atoms: N_6  and  C_7
REMARK    4  A    between atoms: N_6  and  S_25
REMARK    5  A    between atoms: C_7  and  C_8
REMARK    6  A    between atoms: N_10  and  C_11
REMARK    7  A    between atoms: C_17  and  O_18
REMARK    8  A    between atoms: O_18  and  C_19
REMARK    9  A    between atoms: S_25  and  C_26
REMARK   10  A    between atoms: C_29  and  C_30
REMARK                            x       y       z     vdW  Elec       q    Type
REMARK                         _______ _______ _______ _____ _____    ______ ____
ROOT
ATOM      1  C   UNL     1       1.901   8.470  18.956  0.00  0.00    +0.000 C 
ATOM      2  O   UNL     1       1.548   8.134  17.824  0.00  0.00    +0.000 OA
ATOM      3  N   UNL     1       2.342   7.578  19.920  0.00  0.00    +0.000 N 
ATOM      4  H   UNL     1       2.143   7.857  20.883  0.00  0.00    +0.000 HD
ENDROOT
BRANCH   3   5
ATOM      5  C   UNL     1       2.512   6.182  19.689  0.00  0.00    +0.000 A 
ATOM      6  C   UNL     1       1.811   5.322  20.551  0.00  0.00    +0.000 A 
ATOM      7  C   UNL     1       1.892   3.935  20.399  0.00  0.00    +0.000 A 
ATOM      8 CL   UNL     1       1.019   2.900  21.462  0.00  0.00    +0.000 Cl
ATOM      9  C   UNL     1       2.656   3.377  19.383  0.00  0.00    +0.000 A 
ATOM     10  C   UNL     1       3.353   4.215  18.515  0.00  0.00    +0.000 A 
ATOM     11  C   UNL     1       3.340   5.614  18.695  0.00  0.00    +0.000 A 
BRANCH  11  12
ATOM     12  O   UNL     1       4.161   6.432  17.935  0.00  0.00    +0.000 OA
BRANCH  12  13
ATOM     13  C   UNL     1       5.164   5.851  17.180  0.00  0.00    +0.000 A 
ATOM     14  C   UNL     1       6.262   5.329  17.868  0.00  0.00    +0.000 A 
ATOM     15  C   UNL     1       7.314   4.736  17.162  0.00  0.00    +0.000 A 
ATOM     16  C   UNL     1       7.274   4.664  15.770  0.00  0.00    +0.000 A 
ATOM     17  C   UNL     1       6.171   5.167  15.082  0.00  0.00    +0.000 A 
ATOM     18  C   UNL     1       5.107   5.737  15.786  0.00  0.00    +0.000 A 
ENDBRANCH  12  13
ENDBRANCH  11  12
ENDBRANCH   3   5
BRANCH   1  19
ATOM     19  C   UNL     1       1.656   9.909  19.406  0.00  0.00    +0.000 C 
BRANCH  19  20
ATOM     20  N   UNL     1       0.449  10.228  20.206  0.00  0.00    +0.000 N 
BRANCH  20  25
ATOM     21  C   UNL     1      -4.330  11.616  17.262  0.00  0.00    +0.000 C 
ATOM     22  C   UNL     1      -3.088  11.255  18.024  0.00  0.00    +0.000 A 
ATOM     23  C   UNL     1      -2.573   9.959  18.029  0.00  0.00    +0.000 A 
ATOM     24  C   UNL     1      -1.413   9.661  18.757  0.00  0.00    +0.000 A 
ATOM     25  C   UNL     1      -0.758  10.640  19.518  0.00  0.00    +0.000 A 
ATOM     26  C   UNL     1      -1.268  11.953  19.520  0.00  0.00    +0.000 A 
ATOM     27  C   UNL     1      -0.715  13.120  20.290  0.00  0.00    +0.000 C 
ATOM     28  C   UNL     1      -2.411  12.243  18.742  0.00  0.00    +0.000 A 
ENDBRANCH  20  25
BRANCH  20  29
ATOM     29  S   UNL     1       0.272   9.490  21.725  0.00  0.00    +0.000 S 
ATOM     30  C   UNL     1      -0.803  10.598  22.615  0.00  0.00    +0.000 C 
ATOM     31  O   UNL     1      -0.456   8.252  21.488  0.00  0.00    +0.000 OA
ATOM     32  O   UNL     1       1.548   9.464  22.399  0.00  0.00    +0.000 OA
ENDBRANCH  20  29
ENDBRANCH  19  20
ENDBRANCH   1  19
TORSDOF 7
ENDMDL
MODEL 3
REMARK VINA RESULT:      -7.8      2.196      4.323
REMARK  Name = 
REMARK  10 active torsions:
REMARK  status: ('A' for Active; 'I' for Inactive)
REMARK    1  A    between atoms: C_1  and  C_2
REMARK    2  A    between atoms: C_5  and  N_6
REMARK    3  A    between atoms: N_6  and  C_7
REMARK    4  A    between atoms: N_6  and  S_25
REMARK    5  A    between atoms: C_7  and  C_8
REMARK    6  A    between atoms: N_10  and  C_11
REMARK    7  A    between atoms: C_17  and  O_18
REMARK    8  A    between atoms: O_18  and  C_19
REMARK    9  A    between atoms: S_25  and  C_26
REMARK   10  A    between atoms: C_29  and  C_30
REMARK                            x       y       z     vdW  Elec       q    Type
REMARK                         _______ _______ _______ _____ _____    ______ ____
ROOT
ATOM      1  C   UNL     1       2.010   8.177  18.987  0.00  0.00    +0.000 C 
ATOM      2  O   UNL     1       2.397   7.762  20.081  0.00  0.00    +0.000 OA
ATOM      3  N   UNL     1       2.627   7.868  17.786  0.00  0.00    +0.000 N 
ATOM      4  H   UNL     1       2.554   8.593  17.069  0.00  0.00    +0.000 HD
ENDROOT
BRANCH   3   5
ATOM      5  C   UNL     1       3.729   6.972  17.669  0.00  0.00    +0.000 A 
ATOM      6  C   UNL     1       4.992   7.564  17.488  0.00  0.00    +0.000 A 
ATOM      7  C   UNL     1       6.142   6.777  17.382  0.00  0.00    +0.000 A 
ATOM      8 CL   UNL     1       7.678   7.522  17.167  0.00  0.00    +0.000 Cl
ATOM      9  C   UNL     1       6.064   5.393  17.467  0.00  0.00    +0.000 A 
ATOM     10  C   UNL     1       4.822   4.790  17.653  0.00  0.00    +0.000 A 
ATOM     11  C   UNL     1       3.642   5.562  17.692  0.00  0.00    +0.000 A 
BRANCH  11  12
ATOM     12  O   UNL     1       2.398   4.951  17.713  0.00  0.00    +0.000 OA
BRANCH  12  13
ATOM     13  C   UNL     1       2.020   4.250  18.845  0.00  0.00    +0.000 A 
ATOM     14  C   UNL     1       1.206   3.131  18.662  0.00  0.00    +0.000 A 
ATOM     15  C   UNL     1       0.782   2.384  19.766  0.00  0.00    +0.000 A 
ATOM     16  C   UNL     1       1.167   2.754  21.054  0.00  0.00    +0.000 A 
ATOM     17  C   UNL     1       1.996   3.860  21.239  0.00  0.00    +0.000 A 
ATOM     18  C   UNL     1       2.441   4.593  20.135  0.00  0.00    +0.000 A 
ENDBRANCH  12  13
ENDBRANCH  11  12
ENDBRANCH   3   5
BRANCH   1  19
ATOM     19  C   UNL     1       0.924   9.251  18.950  0.00  0.00    +0.000 C 
BRANCH  19  20
ATOM     20  N   UNL     1       0.884  10.285  20.012  0.00  0.00    +0.000 N 
BRANCH  20  25
ATOM     21  C   UNL     1       0.420  15.904  18.730  0.00  0.00    +0.000 C 
ATOM     22  C   UNL     1       0.540  14.446  19.066  0.00  0.00    +0.000 A 
ATOM     23  C   UNL     1       1.639  13.933  19.756  0.00  0.00    +0.000 A 
ATOM     24  C   UNL     1       1.716  12.564  20.047  0.00  0.00    +0.000 A 
ATOM     25  C   UNL     1       0.716  11.673  19.631  0.00  0.00    +0.000 A 
ATOM     26  C   UNL     1      -0.399  12.179  18.934  0.00  0.00    +0.000 A 
ATOM     27  C   UNL     1      -1.548  11.376  18.394  0.00  0.00    +0.000 C 
ATOM     28  C   UNL     1      -0.480  13.569  18.692  0.00  0.00    +0.000 A 
ENDBRANCH  20  25
BRANCH  20  29
ATOM     29  S   UNL     1       0.355   9.829  21.560  0.00  0.00    +0.000 S 
ATOM     30  C   UNL     1      -0.686  11.183  22.071  0.00  0.00    +0.000 C 
ATOM     31  O   UNL     1      -0.490   8.660  21.370  0.00  0.00    +0.000 OA
ATOM     32  O   UNL     1       1.485   9.769  22.456  0.00  0.00    +0.000 OA
ENDBRANCH  20  29
ENDBRANCH  19  20
ENDBRANCH   1  19
TORSDOF 7
ENDMDL
MODEL 4
REMARK VINA RESULT:      -7.8      2.990      8.485
REMARK  Name = 
REMARK  10 active torsions:
REMARK  status: ('A' for Active; 'I' for Inactive)
REMARK    1  A    between atoms: C_1  and  C_2
REMARK    2  A    between atoms: C_5  and  N_6
REMARK    3  A    between atoms: N_6  and  C_7
REMARK    4  A    between atoms: N_6  and  S_25
REMARK    5  A    between atoms: C_7  and  C_8
REMARK    6  A    between atoms: N_10  and  C_11
REMARK    7  A    between atoms: C_17  and  O_18
REMARK    8  A    between atoms: O_18  and  C_19
REMARK    9  A    between atoms: S_25  and  C_26
REMARK   10  A    between atoms: C_29  and  C_30
REMARK                            x       y       z     vdW  Elec       q    Type
REMARK                         _______ _______ _______ _____ _____    ______ ____
ROOT
ATOM      1  C   UNL     1       1.914   8.712  18.479  0.00  0.00    +0.000 C 
ATOM      2  O   UNL     1       1.811   8.634  19.705  0.00  0.00    +0.000 OA
ATOM      3  N   UNL     1       1.631   9.859  17.756  0.00  0.00    +0.000 N 
ATOM      4  H   UNL     1       1.286   9.693  16.808  0.00  0.00    +0.000 HD
ENDROOT
BRANCH   3   5
ATOM      5  C   UNL     1       1.265  11.101  18.352  0.00  0.00    +0.000 A 
ATOM      6  C   UNL     1       2.298  12.042  18.509  0.00  0.00    +0.000 A 
ATOM      7  C   UNL     1       2.042  13.298  19.063  0.00  0.00    +0.000 A 
ATOM      8 CL   UNL     1       3.321  14.437  19.241  0.00  0.00    +0.000 Cl
ATOM      9  C   UNL     1       0.759  13.651  19.459  0.00  0.00    +0.000 A 
ATOM     10  C   UNL     1      -0.278  12.734  19.305  0.00  0.00    +0.000 A 
ATOM     11  C   UNL     1      -0.029  11.436  18.812  0.00  0.00    +0.000 A 
BRANCH  11  12
ATOM     12  O   UNL     1      -1.028  10.476  18.812  0.00  0.00    +0.000 OA
BRANCH  12  13
ATOM     13  C   UNL     1      -2.052  10.581  17.887  0.00  0.00    +0.000 A 
ATOM     14  C   UNL     1      -1.901   9.888  16.684  0.00  0.00    +0.000 A 
ATOM     15  C   UNL     1      -2.896   9.960  15.705  0.00  0.00    +0.000 A 
ATOM     16  C   UNL     1      -4.042  10.724  15.921  0.00  0.00    +0.000 A 
ATOM     17  C   UNL     1      -4.204  11.403  17.129  0.00  0.00    +0.000 A 
ATOM     18  C   UNL     1      -3.222  11.312  18.120  0.00  0.00    +0.000 A 
ENDBRANCH  12  13
ENDBRANCH  11  12
ENDBRANCH   3   5
BRANCH   1  19
ATOM     19  C   UNL     1       2.168   7.436  17.680  0.00  0.00    +0.000 C 
BRANCH  19  20
ATOM     20  N   UNL     1       3.083   6.404  18.223  0.00  0.00    +0.000 N 
BRANCH  20  25
ATOM     21  C   UNL     1       1.175   2.380  21.912  0.00  0.00    +0.000 C 
ATOM     22  C   UNL     1       1.673   3.424  20.954  0.00  0.00    +0.000 A 
ATOM     23  C   UNL     1       2.487   4.479  21.367  0.00  0.00    +0.000 A 
ATOM     24  C   UNL     1       2.928   5.436  20.444  0.00  0.00    +0.000 A 
ATOM     25  C   UNL     1       2.544   5.380  19.096  0.00  0.00    +0.000 A 
ATOM     26  C   UNL     1       1.723   4.319  18.667  0.00  0.00    +0.000 A 
ATOM     27  C   UNL     1       1.196   4.110  17.275  0.00  0.00    +0.000 C 
ATOM     28  C   UNL     1       1.328   3.338  19.605  0.00  0.00    +0.000 A 
ENDBRANCH  20  25
BRANCH  20  29
ATOM     29  S   UNL     1       4.482   6.022  17.339  0.00  0.00    +0.000 S 
ATOM     30  C   UNL     1       5.718   5.749  18.594  0.00  0.00    +0.000 C 
ATOM     31  O   UNL     1       4.213   4.749  16.689  0.00  0.00    +0.000 OA
ATOM     32  O   UNL     1       4.882   7.166  16.556  0.00  0.00    +0.000 OA
ENDBRANCH  20  29
ENDBRANCH  19  20
ENDBRANCH   1  19
TORSDOF 7
ENDMDL
MODEL 5
REMARK VINA RESULT:      -7.8      0.976      1.386
REMARK  Name = 
REMARK  10 active torsions:
REMARK  status: ('A' for Active; 'I' for Inactive)
REMARK    1  A    between atoms: C_1  and  C_2
REMARK    2  A    between atoms: C_5  and  N_6
REMARK    3  A    between atoms: N_6  and  C_7
REMARK    4  A    between atoms: N_6  and  S_25
REMARK    5  A    between atoms: C_7  and  C_8
REMARK    6  A    between atoms: N_10  and  C_11
REMARK    7  A    between atoms: C_17  and  O_18
REMARK    8  A    between atoms: O_18  and  C_19
REMARK    9  A    between atoms: S_25  and  C_26
REMARK   10  A    between atoms: C_29  and  C_30
REMARK                            x       y       z     vdW  Elec       q    Type
REMARK                         _______ _______ _______ _____ _____    ______ ____
ROOT
ATOM      1  C   UNL     1       1.883   8.384  18.654  0.00  0.00    +0.000 C 
ATOM      2  O   UNL     1       1.416   8.305  17.517  0.00  0.00    +0.000 OA
ATOM      3  N   UNL     1       2.359   7.295  19.366  0.00  0.00    +0.000 N 
ATOM      4  H   UNL     1       2.259   7.371  20.380  0.00  0.00    +0.000 HD
ENDROOT
BRANCH   3   5
ATOM      5  C   UNL     1       2.434   5.974  18.836  0.00  0.00    +0.000 A 
ATOM      6  C   UNL     1       1.602   5.016  19.440  0.00  0.00    +0.000 A 
ATOM      7  C   UNL     1       1.583   3.695  18.984  0.00  0.00    +0.000 A 
ATOM      8 CL   UNL     1       0.552   2.540  19.734  0.00  0.00    +0.000 Cl
ATOM      9  C   UNL     1       2.378   3.304  17.914  0.00  0.00    +0.000 A 
ATOM     10  C   UNL     1       3.204   4.242  17.299  0.00  0.00    +0.000 A 
ATOM     11  C   UNL     1       3.289   5.562  17.789  0.00  0.00    +0.000 A 
BRANCH  11  12
ATOM     12  O   UNL     1       4.229   6.445  17.281  0.00  0.00    +0.000 OA
BRANCH  12  13
ATOM     13  C   UNL     1       5.509   6.428  17.806  0.00  0.00    +0.000 A 
ATOM     14  C   UNL     1       6.431   7.331  17.271  0.00  0.00    +0.000 A 
ATOM     15  C   UNL     1       7.744   7.358  17.752  0.00  0.00    +0.000 A 
ATOM     16  C   UNL     1       8.141   6.485  18.764  0.00  0.00    +0.000 A 
ATOM     17  C   UNL     1       7.218   5.596  19.313  0.00  0.00    +0.000 A 
ATOM     18  C   UNL     1       5.898   5.584  18.852  0.00  0.00    +0.000 A 
ENDBRANCH  12  13
ENDBRANCH  11  12
ENDBRANCH   3   5
BRANCH   1  19
ATOM     19  C   UNL     1       1.754   9.703  19.413  0.00  0.00    +0.000 C 
BRANCH  19  20
ATOM     20  N   UNL     1       0.443  10.090  19.988  0.00  0.00    +0.000 N 
BRANCH  20  25
ATOM     21  C   UNL     1      -3.836  11.399  16.326  0.00  0.00    +0.000 C 
ATOM     22  C   UNL     1      -2.724  11.057  17.274  0.00  0.00    +0.000 A 
ATOM     23  C   UNL     1      -2.563   9.773  17.794  0.00  0.00    +0.000 A 
ATOM     24  C   UNL     1      -1.514   9.495  18.681  0.00  0.00    +0.000 A 
ATOM     25  C   UNL     1      -0.621  10.496  19.092  0.00  0.00    +0.000 A 
ATOM     26  C   UNL     1      -0.774  11.797  18.573  0.00  0.00    +0.000 A 
ATOM     27  C   UNL     1       0.068  12.994  18.915  0.00  0.00    +0.000 C 
ATOM     28  C   UNL     1      -1.809  12.045  17.644  0.00  0.00    +0.000 A 
ENDBRANCH  20  25
BRANCH  20  29
ATOM     29  S   UNL     1      -0.004   9.430  21.487  0.00  0.00    +0.000 S 
ATOM     30  C   UNL     1       1.540   9.281  22.365  0.00  0.00    +0.000 C 
ATOM     31  O   UNL     1      -0.803  10.448  22.153  0.00  0.00    +0.000 OA
ATOM     32  O   UNL     1      -0.538   8.104  21.289  0.00  0.00    +0.000 OA
ENDBRANCH  20  29
ENDBRANCH  19  20
ENDBRANCH   1  19
TORSDOF 7
ENDMDL
MODEL 6
REMARK VINA RESULT:      -7.7      3.637      8.032
REMARK  Name = 
REMARK  10 active torsions:
REMARK  status: ('A' for Active; 'I' for Inactive)
REMARK    1  A    between atoms: C_1  and  C_2
REMARK    2  A    between atoms: C_5  and  N_6
REMARK    3  A    between atoms: N_6  and  C_7
REMARK    4  A    between atoms: N_6  and  S_25
REMARK    5  A    between atoms: C_7  and  C_8
REMARK    6  A    between atoms: N_10  and  C_11
REMARK    7  A    between atoms: C_17  and  O_18
REMARK    8  A    between atoms: O_18  and  C_19
REMARK    9  A    between atoms: S_25  and  C_26
REMARK   10  A    between atoms: C_29  and  C_30
REMARK                            x       y       z     vdW  Elec       q    Type
REMARK                         _______ _______ _______ _____ _____    ______ ____
ROOT
ATOM      1  C   UNL     1       4.294   7.446  17.006  0.00  0.00    +0.000 C 
ATOM      2  O   UNL     1       5.073   8.048  17.748  0.00  0.00    +0.000 OA
ATOM      3  N   UNL     1       2.931   7.351  17.238  0.00  0.00    +0.000 N 
ATOM      4  H   UNL     1       2.497   6.494  16.888  0.00  0.00    +0.000 HD
ENDROOT
BRANCH   3   5
ATOM      5  C   UNL     1       2.264   8.002  18.316  0.00  0.00    +0.000 A 
ATOM      6  C   UNL     1       1.693   9.254  18.025  0.00  0.00    +0.000 A 
ATOM      7  C   UNL     1       0.999   9.968  19.005  0.00  0.00    +0.000 A 
ATOM      8 CL   UNL     1       0.304  11.496  18.625  0.00  0.00    +0.000 Cl
ATOM      9  C   UNL     1       0.844   9.450  20.284  0.00  0.00    +0.000 A 
ATOM     10  C   UNL     1       1.397   8.208  20.588  0.00  0.00    +0.000 A 
ATOM     11  C   UNL     1       2.161   7.504  19.634  0.00  0.00    +0.000 A 
BRANCH  11  12
ATOM     12  O   UNL     1       2.844   6.351  19.987  0.00  0.00    +0.000 OA
BRANCH  12  13
ATOM     13  C   UNL     1       2.150   5.154  20.032  0.00  0.00    +0.000 A 
ATOM     14  C   UNL     1       2.069   4.508  21.268  0.00  0.00    +0.000 A 
ATOM     15  C   UNL     1       1.389   3.291  21.378  0.00  0.00    +0.000 A 
ATOM     16  C   UNL     1       0.791   2.715  20.258  0.00  0.00    +0.000 A 
ATOM     17  C   UNL     1       0.854   3.367  19.027  0.00  0.00    +0.000 A 
ATOM     18  C   UNL     1       1.511   4.596  18.919  0.00  0.00    +0.000 A 
ENDBRANCH  12  13
ENDBRANCH  11  12
ENDBRANCH   3   5
BRANCH   1  19
ATOM     19  C   UNL     1       4.866   6.585  15.882  0.00  0.00    +0.000 C 
BRANCH  19  20
ATOM     20  N   UNL     1       5.825   5.502  16.208  0.00  0.00    +0.000 N 
BRANCH  20  25
ATOM     21  C   UNL     1       4.313   1.825  20.406  0.00  0.00    +0.000 C 
ATOM     22  C   UNL     1       4.703   2.781  19.317  0.00  0.00    +0.000 A 
ATOM     23  C   UNL     1       4.164   2.699  18.033  0.00  0.00    +0.000 A 
ATOM     24  C   UNL     1       4.557   3.607  17.041  0.00  0.00    +0.000 A 
ATOM     25  C   UNL     1       5.517   4.598  17.298  0.00  0.00    +0.000 A 
ATOM     26  C   UNL     1       6.068   4.691  18.591  0.00  0.00    +0.000 A 
ATOM     27  C   UNL     1       7.118   5.667  19.041  0.00  0.00    +0.000 C 
ATOM     28  C   UNL     1       5.623   3.795  19.589  0.00  0.00    +0.000 A 
ENDBRANCH  20  25
BRANCH  20  29
ATOM     29  S   UNL     1       6.836   4.923  14.972  0.00  0.00    +0.000 S 
ATOM     30  C   UNL     1       5.766   3.876  14.004  0.00  0.00    +0.000 C 
ATOM     31  O   UNL     1       7.186   6.079  14.162  0.00  0.00    +0.000 OA
ATOM     32  O   UNL     1       7.872   4.098  15.546  0.00  0.00    +0.000 OA
ENDBRANCH  20  29
ENDBRANCH  19  20
ENDBRANCH   1  19
TORSDOF 7
ENDMDL
MODEL 7
REMARK VINA RESULT:      -7.7      1.874      2.280
REMARK  Name = 
REMARK  10 active torsions:
REMARK  status: ('A' for Active; 'I' for Inactive)
REMARK    1  A    between atoms: C_1  and  C_2
REMARK    2  A    between atoms: C_5  and  N_6
REMARK    3  A    between atoms: N_6  and  C_7
REMARK    4  A    between atoms: N_6  and  S_25
REMARK    5  A    between atoms: C_7  and  C_8
REMARK    6  A    between atoms: N_10  and  C_11
REMARK    7  A    between atoms: C_17  and  O_18
REMARK    8  A    between atoms: O_18  and  C_19
REMARK    9  A    between atoms: S_25  and  C_26
REMARK   10  A    between atoms: C_29  and  C_30
REMARK                            x       y       z     vdW  Elec       q    Type
REMARK                         _______ _______ _______ _____ _____    ______ ____
ROOT
ATOM      1  C   UNL     1       1.565   8.499  19.346  0.00  0.00    +0.000 C 
ATOM      2  O   UNL     1       1.296   8.197  18.182  0.00  0.00    +0.000 OA
ATOM      3  N   UNL     1       2.035   7.595  20.285  0.00  0.00    +0.000 N 
ATOM      4  H   UNL     1       1.768   7.803  21.249  0.00  0.00    +0.000 HD
ENDROOT
BRANCH   3   5
ATOM      5  C   UNL     1       2.335   6.233  19.992  0.00  0.00    +0.000 A 
ATOM      6  C   UNL     1       1.687   5.271  20.786  0.00  0.00    +0.000 A 
ATOM      7  C   UNL     1       1.895   3.907  20.570  0.00  0.00    +0.000 A 
ATOM      8 CL   UNL     1       1.085   2.746  21.550  0.00  0.00    +0.000 Cl
ATOM      9  C   UNL     1       2.737   3.470  19.555  0.00  0.00    +0.000 A 
ATOM     10  C   UNL     1       3.382   4.409  18.754  0.00  0.00    +0.000 A 
ATOM     11  C   UNL     1       3.240   5.790  19.001  0.00  0.00    +0.000 A 
BRANCH  11  12
ATOM     12  O   UNL     1       4.008   6.715  18.310  0.00  0.00    +0.000 OA
BRANCH  12  13
ATOM     13  C   UNL     1       5.070   6.261  17.549  0.00  0.00    +0.000 A 
ATOM     14  C   UNL     1       4.843   6.069  16.184  0.00  0.00    +0.000 A 
ATOM     15  C   UNL     1       5.874   5.603  15.361  0.00  0.00    +0.000 A 
ATOM     16  C   UNL     1       7.131   5.326  15.897  0.00  0.00    +0.000 A 
ATOM     17  C   UNL     1       7.366   5.534  17.256  0.00  0.00    +0.000 A 
ATOM     18  C   UNL     1       6.345   6.024  18.075  0.00  0.00    +0.000 A 
ENDBRANCH  12  13
ENDBRANCH  11  12
ENDBRANCH   3   5
BRANCH   1  19
ATOM     19  C   UNL     1       1.176   9.885  19.855  0.00  0.00    +0.000 C 
BRANCH  19  20
ATOM     20  N   UNL     1       0.654  10.893  18.901  0.00  0.00    +0.000 N 
BRANCH  20  25
ATOM     21  C   UNL     1      -4.982  11.076  17.621  0.00  0.00    +0.000 C 
ATOM     22  C   UNL     1      -3.518  11.030  17.951  0.00  0.00    +0.000 A 
ATOM     23  C   UNL     1      -2.596  10.373  17.136  0.00  0.00    +0.000 A 
ATOM     24  C   UNL     1      -1.238  10.349  17.480  0.00  0.00    +0.000 A 
ATOM     25  C   UNL     1      -0.774  10.953  18.659  0.00  0.00    +0.000 A 
ATOM     26  C   UNL     1      -1.696  11.620  19.489  0.00  0.00    +0.000 A 
ATOM     27  C   UNL     1      -1.387  12.299  20.794  0.00  0.00    +0.000 C 
ATOM     28  C   UNL     1      -3.053  11.673  19.099  0.00  0.00    +0.000 A 
ENDBRANCH  20  25
BRANCH  20  29
ATOM     29  S   UNL     1       1.549  12.317  18.663  0.00  0.00    +0.000 S 
ATOM     30  C   UNL     1       2.062  12.777  20.306  0.00  0.00    +0.000 C 
ATOM     31  O   UNL     1       2.733  11.927  17.914  0.00  0.00    +0.000 OA
ATOM     32  O   UNL     1       0.679  13.352  18.158  0.00  0.00    +0.000 OA
ENDBRANCH  20  29
ENDBRANCH  19  20
ENDBRANCH   1  19
TORSDOF 7
ENDMDL
MODEL 8
REMARK VINA RESULT:      -7.7      2.286      3.826
REMARK  Name = 
REMARK  10 active torsions:
REMARK  status: ('A' for Active; 'I' for Inactive)
REMARK    1  A    between atoms: C_1  and  C_2
REMARK    2  A    between atoms: C_5  and  N_6
REMARK    3  A    between atoms: N_6  and  C_7
REMARK    4  A    between atoms: N_6  and  S_25
REMARK    5  A    between atoms: C_7  and  C_8
REMARK    6  A    between atoms: N_10  and  C_11
REMARK    7  A    between atoms: C_17  and  O_18
REMARK    8  A    between atoms: O_18  and  C_19
REMARK    9  A    between atoms: S_25  and  C_26
REMARK   10  A    between atoms: C_29  and  C_30
REMARK                            x       y       z     vdW  Elec       q    Type
REMARK                         _______ _______ _______ _____ _____    ______ ____
ROOT
ATOM      1  C   UNL     1       2.283   8.426  17.726  0.00  0.00    +0.000 C 
ATOM      2  O   UNL     1       1.402   7.590  17.516  0.00  0.00    +0.000 OA
ATOM      3  N   UNL     1       3.631   8.117  17.807  0.00  0.00    +0.000 N 
ATOM      4  H   UNL     1       4.172   8.723  18.428  0.00  0.00    +0.000 HD
ENDROOT
BRANCH   3   5
ATOM      5  C   UNL     1       4.160   6.814  17.577  0.00  0.00    +0.000 A 
ATOM      6  C   UNL     1       4.765   6.602  16.326  0.00  0.00    +0.000 A 
ATOM      7  C   UNL     1       5.334   5.366  16.007  0.00  0.00    +0.000 A 
ATOM      8 CL   UNL     1       6.074   5.131  14.471  0.00  0.00    +0.000 Cl
ATOM      9  C   UNL     1       5.326   4.324  16.924  0.00  0.00    +0.000 A 
ATOM     10  C   UNL     1       4.738   4.518  18.172  0.00  0.00    +0.000 A 
ATOM     11  C   UNL     1       4.097   5.735  18.487  0.00  0.00    +0.000 A 
BRANCH  11  12
ATOM     12  O   UNL     1       3.373   5.868  19.662  0.00  0.00    +0.000 OA
BRANCH  12  13
ATOM     13  C   UNL     1       2.590   4.809  20.084  0.00  0.00    +0.000 A 
ATOM     14  C   UNL     1       1.622   4.334  19.196  0.00  0.00    +0.000 A 
ATOM     15  C   UNL     1       0.792   3.271  19.566  0.00  0.00    +0.000 A 
ATOM     16  C   UNL     1       0.923   2.682  20.823  0.00  0.00    +0.000 A 
ATOM     17  C   UNL     1       1.900   3.141  21.705  0.00  0.00    +0.000 A 
ATOM     18  C   UNL     1       2.748   4.187  21.328  0.00  0.00    +0.000 A 
ENDBRANCH  12  13
ENDBRANCH  11  12
ENDBRANCH   3   5
BRANCH   1  19
ATOM     19  C   UNL     1       1.873   9.842  18.124  0.00  0.00    +0.000 C 
BRANCH  19  20
ATOM     20  N   UNL     1       0.732  10.039  19.050  0.00  0.00    +0.000 N 
BRANCH  20  25
ATOM     21  C   UNL     1      -4.345  11.336  16.605  0.00  0.00    +0.000 C 
ATOM     22  C   UNL     1      -3.025  10.999  17.237  0.00  0.00    +0.000 A 
ATOM     23  C   UNL     1      -2.304   9.860  16.883  0.00  0.00    +0.000 A 
ATOM     24  C   UNL     1      -1.078   9.578  17.500  0.00  0.00    +0.000 A 
ATOM     25  C   UNL     1      -0.558  10.409  18.503  0.00  0.00    +0.000 A 
ATOM     26  C   UNL     1      -1.277  11.564  18.869  0.00  0.00    +0.000 A 
ATOM     27  C   UNL     1      -0.889  12.553  19.932  0.00  0.00    +0.000 C 
ATOM     28  C   UNL     1      -2.489  11.855  18.201  0.00  0.00    +0.000 A 
ENDBRANCH  20  25
BRANCH  20  29
ATOM     29  S   UNL     1       0.745   9.209  20.531  0.00  0.00    +0.000 S 
ATOM     30  C   UNL     1       1.094  10.481  21.730  0.00  0.00    +0.000 C 
ATOM     31  O   UNL     1      -0.618   8.749  20.747  0.00  0.00    +0.000 OA
ATOM     32  O   UNL     1       1.839   8.267  20.545  0.00  0.00    +0.000 OA
ENDBRANCH  20  29
ENDBRANCH  19  20
ENDBRANCH   1  19
TORSDOF 7
ENDMDL
MODEL 9
REMARK VINA RESULT:      -7.7      1.414      1.784
REMARK  Name = 
REMARK  10 active torsions:
REMARK  status: ('A' for Active; 'I' for Inactive)
REMARK    1  A    between atoms: C_1  and  C_2
REMARK    2  A    between atoms: C_5  and  N_6
REMARK    3  A    between atoms: N_6  and  C_7
REMARK    4  A    between atoms: N_6  and  S_25
REMARK    5  A    between atoms: C_7  and  C_8
REMARK    6  A    between atoms: N_10  and  C_11
REMARK    7  A    between atoms: C_17  and  O_18
REMARK    8  A    between atoms: O_18  and  C_19
REMARK    9  A    between atoms: S_25  and  C_26
REMARK   10  A    between atoms: C_29  and  C_30
REMARK                            x       y       z     vdW  Elec       q    Type
REMARK                         _______ _______ _______ _____ _____    ______ ____
ROOT
ATOM      1  C   UNL     1       2.220   7.871  18.911  0.00  0.00    +0.000 C 
ATOM      2  O   UNL     1       1.729   7.309  17.930  0.00  0.00    +0.000 OA
ATOM      3  N   UNL     1       2.848   7.199  19.946  0.00  0.00    +0.000 N 
ATOM      4  H   UNL     1       2.773   7.654  20.859  0.00  0.00    +0.000 HD
ENDROOT
BRANCH   3   5
ATOM      5  C   UNL     1       3.069   5.791  19.959  0.00  0.00    +0.000 A 
ATOM      6  C   UNL     1       2.117   5.021  20.649  0.00  0.00    +0.000 A 
ATOM      7  C   UNL     1       2.229   3.629  20.705  0.00  0.00    +0.000 A 
ATOM      8 CL   UNL     1       1.049   2.705  21.551  0.00  0.00    +0.000 Cl
ATOM      9  C   UNL     1       3.275   2.975  20.068  0.00  0.00    +0.000 A 
ATOM     10  C   UNL     1       4.223   3.722  19.373  0.00  0.00    +0.000 A 
ATOM     11  C   UNL     1       4.168   5.132  19.363  0.00  0.00    +0.000 A 
BRANCH  11  12
ATOM     12  O   UNL     1       5.199   5.876  18.811  0.00  0.00    +0.000 OA
BRANCH  12  13
ATOM     13  C   UNL     1       5.652   5.549  17.546  0.00  0.00    +0.000 A 
ATOM     14  C   UNL     1       4.920   6.033  16.459  0.00  0.00    +0.000 A 
ATOM     15  C   UNL     1       5.321   5.731  15.154  0.00  0.00    +0.000 A 
ATOM     16  C   UNL     1       6.450   4.943  14.929  0.00  0.00    +0.000 A 
ATOM     17  C   UNL     1       7.193   4.473  16.012  0.00  0.00    +0.000 A 
ATOM     18  C   UNL     1       6.809   4.795  17.317  0.00  0.00    +0.000 A 
ENDBRANCH  12  13
ENDBRANCH  11  12
ENDBRANCH   3   5
BRANCH   1  19
ATOM     19  C   UNL     1       1.953   9.361  19.114  0.00  0.00    +0.000 C 
BRANCH  19  20
ATOM     20  N   UNL     1       0.665   9.799  19.704  0.00  0.00    +0.000 N 
BRANCH  20  25
ATOM     21  C   UNL     1      -3.451  11.455  15.997  0.00  0.00    +0.000 C 
ATOM     22  C   UNL     1      -2.381  11.025  16.957  0.00  0.00    +0.000 A 
ATOM     23  C   UNL     1      -1.950   9.701  17.040  0.00  0.00    +0.000 A 
ATOM     24  C   UNL     1      -0.951   9.337  17.953  0.00  0.00    +0.000 A 
ATOM     25  C   UNL     1      -0.380  10.279  18.823  0.00  0.00    +0.000 A 
ATOM     26  C   UNL     1      -0.807  11.619  18.747  0.00  0.00    +0.000 A 
ATOM     27  C   UNL     1      -0.328  12.753  19.610  0.00  0.00    +0.000 C 
ATOM     28  C   UNL     1      -1.782  11.974  17.787  0.00  0.00    +0.000 A 
ENDBRANCH  20  25
BRANCH  20  29
ATOM     29  S   UNL     1       0.190   9.128  21.190  0.00  0.00    +0.000 S 
ATOM     30  C   UNL     1       1.626   9.330  22.227  0.00  0.00    +0.000 C 
ATOM     31  O   UNL     1      -0.862   9.991  21.704  0.00  0.00    +0.000 OA
ATOM     32  O   UNL     1      -0.048   7.714  21.024  0.00  0.00    +0.000 OA
ENDBRANCH  20  29
ENDBRANCH  19  20
ENDBRANCH   1  19
TORSDOF 7
ENDMDL
