MODEL 1
REMARK VINA RESULT:      -7.7      0.000      0.000
REMARK  Name = 
REMARK  9 active torsions:
REMARK  status: ('A' for Active; 'I' for Inactive)
REMARK    1  A    between atoms: C_1  and  O_2
REMARK    2  A    between atoms: O_2  and  C_3
REMARK    3  A    between atoms: C_8  and  N_9
REMARK    4  A    between atoms: N_9  and  C_10
REMARK    5  A    between atoms: C_13  and  C_14
REMARK    6  A    between atoms: C_13  and  C_32
REMARK    7  A    between atoms: C_24  and  C_25
REMARK    8  A    between atoms: C_32  and  C_33
REMARK    9  A    between atoms: C_32  and  C_34
REMARK                            x       y       z     vdW  Elec       q    Type
REMARK                         _______ _______ _______ _____ _____    ______ ____
ROOT
ATOM      1  C   UNL     1      -2.816  12.556  19.722  0.00  0.00    +0.000 C 
ATOM      2  C   UNL     1      -2.454  11.631  18.569  0.00  0.00    +0.000 C 
ATOM      3  C   UNL     1      -0.965  11.313  18.718  0.00  0.00    +0.000 C 
ATOM      4  C   UNL     1      -0.444  11.901  20.060  0.00  0.00    +0.000 C 
ATOM      5  C   UNL     1      -1.777  12.224  20.790  0.00  0.00    +0.000 C 
ENDROOT
BRANCH   4   6
ATOM      6  C   UNL     1       0.273  10.832  20.947  0.00  0.00    +0.000 C 
ATOM      7  O   UNL     1       0.147  10.884  22.176  0.00  0.00    +0.000 OA
ATOM      8  N   UNL     1       1.051   9.837  20.387  0.00  0.00    +0.000 N 
ATOM      9  C   UNL     1       1.472   8.700  21.239  0.00  0.00    +0.000 C 
ATOM     10  C   UNL     1       1.432   7.343  20.480  0.00  0.00    +0.000 C 
ATOM     11  N   UNL     1       2.184   7.496  19.224  0.00  0.00    +0.000 N 
ATOM     12  C   UNL     1       2.691   6.376  18.581  0.00  0.00    +0.000 A 
ATOM     13  C   UNL     1       3.777   6.557  17.743  0.00  0.00    +0.000 A 
ATOM     14  C   UNL     1       4.313   5.449  17.139  0.00  0.00    +0.000 A 
ATOM     15  N   UNL     1       3.818   4.221  17.303  0.00  0.00    +0.000 NA
ATOM     16  C   UNL     1       2.765   4.093  18.147  0.00  0.00    +0.000 A 
ATOM     17  N   UNL     1       2.194   5.147  18.808  0.00  0.00    +0.000 NA
ATOM     18  C   UNL     1       1.635   8.553  18.350  0.00  0.00    +0.000 C 
ATOM     19  C   UNL     1       1.748   9.895  19.097  0.00  0.00    +0.000 C 
BRANCH  16  20
ATOM     20  C   UNL     1       2.170   2.692  18.331  0.00  0.00    +0.000 C 
ATOM     21  F   UNL     1       2.486   1.823  17.320  0.00  0.00    +0.000 F 
ATOM     22  F   UNL     1       2.588   2.069  19.475  0.00  0.00    +0.000 F 
ATOM     23  F   UNL     1       0.803   2.686  18.386  0.00  0.00    +0.000 F 
ENDBRANCH  16  20
ENDBRANCH   4   6
BRANCH   4  24
ATOM     24  C   UNL     1       0.477  13.162  19.844  0.00  0.00    +0.000 C 
ATOM     25  C   UNL     1       1.708  13.229  20.761  0.00  0.00    +0.000 C 
ATOM     26  C   UNL     1       0.975  13.326  18.397  0.00  0.00    +0.000 C 
ENDBRANCH   4  24
BRANCH   1  27
ATOM     27  N   UNL     1      -4.195  12.364  20.165  0.00  0.00    +0.000 NA
ATOM     28  H   UNL     1      -4.852  12.530  19.399  0.00  0.00    +0.000 HD
BRANCH  27  34
ATOM     29  C   UNL     1      -5.894  12.685  21.974  0.00  0.00    +0.000 C 
ATOM     30  C   UNL     1      -6.253  13.633  23.133  0.00  0.00    +0.000 C 
ATOM     31  O   UNL     1      -6.424  14.981  22.681  0.00  0.00    +0.000 OA
ATOM     32  C   UNL     1      -5.231  15.511  22.116  0.00  0.00    +0.000 C 
ATOM     33  C   UNL     1      -4.761  14.693  20.922  0.00  0.00    +0.000 C 
ATOM     34  C   UNL     1      -4.594  13.215  21.308  0.00  0.00    +0.000 C 
BRANCH  29  36
ATOM     35  C   UNL     1      -7.612  11.361  20.973  0.00  0.00    +0.000 C 
ATOM     36  O   UNL     1      -6.948  12.620  20.992  0.00  0.00    +0.000 OA
ENDBRANCH  29  36
ENDBRANCH  27  34
ENDBRANCH   1  27
TORSDOF 6
ENDMDL
MODEL 2
REMARK VINA RESULT:      -7.6      1.446      1.750
REMARK  Name = 
REMARK  9 active torsions:
REMARK  status: ('A' for Active; 'I' for Inactive)
REMARK    1  A    between atoms: C_1  and  O_2
REMARK    2  A    between atoms: O_2  and  C_3
REMARK    3  A    between atoms: C_8  and  N_9
REMARK    4  A    between atoms: N_9  and  C_10
REMARK    5  A    between atoms: C_13  and  C_14
REMARK    6  A    between atoms: C_13  and  C_32
REMARK    7  A    between atoms: C_24  and  C_25
REMARK    8  A    between atoms: C_32  and  C_33
REMARK    9  A    between atoms: C_32  and  C_34
REMARK                            x       y       z     vdW  Elec       q    Type
REMARK                         _______ _______ _______ _____ _____    ______ ____
ROOT
ATOM      1  C   UNL     1      -3.424  12.845  20.663  0.00  0.00    +0.000 C 
ATOM      2  C   UNL     1      -3.114  11.989  19.444  0.00  0.00    +0.000 C 
ATOM      3  C   UNL     1      -1.606  11.733  19.464  0.00  0.00    +0.000 C 
ATOM      4  C   UNL     1      -1.007  12.287  20.789  0.00  0.00    +0.000 C 
ATOM      5  C   UNL     1      -2.292  12.515  21.633  0.00  0.00    +0.000 C 
ENDROOT
BRANCH   4   6
ATOM      6  C   UNL     1      -0.178  11.214  21.567  0.00  0.00    +0.000 C 
ATOM      7  O   UNL     1      -0.272  11.155  22.800  0.00  0.00    +0.000 OA
ATOM      8  N   UNL     1       0.663  10.337  20.910  0.00  0.00    +0.000 N 
ATOM      9  C   UNL     1       1.202   9.175  21.655  0.00  0.00    +0.000 C 
ATOM     10  C   UNL     1       1.252   7.885  20.787  0.00  0.00    +0.000 C 
ATOM     11  N   UNL     1       1.951   8.202  19.532  0.00  0.00    +0.000 N 
ATOM     12  C   UNL     1       2.530   7.184  18.787  0.00  0.00    +0.000 A 
ATOM     13  C   UNL     1       3.572   7.524  17.942  0.00  0.00    +0.000 A 
ATOM     14  C   UNL     1       4.179   6.519  17.236  0.00  0.00    +0.000 A 
ATOM     15  N   UNL     1       3.794   5.244  17.309  0.00  0.00    +0.000 NA
ATOM     16  C   UNL     1       2.780   4.958  18.163  0.00  0.00    +0.000 A 
ATOM     17  N   UNL     1       2.143   5.904  18.922  0.00  0.00    +0.000 NA
ATOM     18  C   UNL     1       1.290   9.276  18.761  0.00  0.00    +0.000 C 
ATOM     19  C   UNL     1       1.314  10.557  19.613  0.00  0.00    +0.000 C 
BRANCH  16  20
ATOM     20  C   UNL     1       2.309   3.502  18.244  0.00  0.00    +0.000 C 
ATOM     21  F   UNL     1       1.016   3.365  18.676  0.00  0.00    +0.000 F 
ATOM     22  F   UNL     1       2.350   2.849  17.042  0.00  0.00    +0.000 F 
ATOM     23  F   UNL     1       3.050   2.739  19.104  0.00  0.00    +0.000 F 
ENDBRANCH  16  20
ENDBRANCH   4   6
BRANCH   4  24
ATOM     24  C   UNL     1      -0.161  13.596  20.562  0.00  0.00    +0.000 C 
ATOM     25  C   UNL     1      -0.361  14.267  19.193  0.00  0.00    +0.000 C 
ATOM     26  C   UNL     1      -0.386  14.674  21.637  0.00  0.00    +0.000 C 
ENDBRANCH   4  24
BRANCH   1  27
ATOM     27  N   UNL     1      -4.755  12.571  21.201  0.00  0.00    +0.000 NA
ATOM     28  H   UNL     1      -5.194  11.787  20.711  0.00  0.00    +0.000 HD
BRANCH  27  34
ATOM     29  C   UNL     1      -6.881  13.438  20.207  0.00  0.00    +0.000 C 
ATOM     30  C   UNL     1      -7.783  14.686  20.196  0.00  0.00    +0.000 C 
ATOM     31  O   UNL     1      -7.067  15.852  19.776  0.00  0.00    +0.000 OA
ATOM     32  C   UNL     1      -5.996  16.169  20.657  0.00  0.00    +0.000 C 
ATOM     33  C   UNL     1      -4.988  15.033  20.751  0.00  0.00    +0.000 C 
ATOM     34  C   UNL     1      -5.682  13.723  21.154  0.00  0.00    +0.000 C 
BRANCH  29  36
ATOM     35  C   UNL     1      -7.427  12.752  17.985  0.00  0.00    +0.000 C 
ATOM     36  O   UNL     1      -6.391  13.122  18.888  0.00  0.00    +0.000 OA
ENDBRANCH  29  36
ENDBRANCH  27  34
ENDBRANCH   1  27
TORSDOF 6
ENDMDL
MODEL 3
REMARK VINA RESULT:      -7.6      1.480      1.995
REMARK  Name = 
REMARK  9 active torsions:
REMARK  status: ('A' for Active; 'I' for Inactive)
REMARK    1  A    between atoms: C_1  and  O_2
REMARK    2  A    between atoms: O_2  and  C_3
REMARK    3  A    between atoms: C_8  and  N_9
REMARK    4  A    between atoms: N_9  and  C_10
REMARK    5  A    between atoms: C_13  and  C_14
REMARK    6  A    between atoms: C_13  and  C_32
REMARK    7  A    between atoms: C_24  and  C_25
REMARK    8  A    between atoms: C_32  and  C_33
REMARK    9  A    between atoms: C_32  and  C_34
REMARK                            x       y       z     vdW  Elec       q    Type
REMARK                         _______ _______ _______ _____ _____    ______ ____
ROOT
ATOM      1  C   UNL     1      -2.839  13.918  20.738  0.00  0.00    +0.000 C 
ATOM      2  C   UNL     1      -3.261  12.637  20.034  0.00  0.00    +0.000 C 
ATOM      3  C   UNL     1      -1.991  11.804  19.848  0.00  0.00    +0.000 C 
ATOM      4  C   UNL     1      -0.811  12.492  20.590  0.00  0.00    +0.000 C 
ATOM      5  C   UNL     1      -1.566  13.519  21.479  0.00  0.00    +0.000 C 
ENDROOT
BRANCH   4   6
ATOM      6  C   UNL     1      -0.083  11.530  21.585  0.00  0.00    +0.000 C 
ATOM      7  O   UNL     1      -0.158  11.749  22.800  0.00  0.00    +0.000 OA
ATOM      8  N   UNL     1       0.646  10.446  21.135  0.00  0.00    +0.000 N 
ATOM      9  C   UNL     1       1.074   9.421  22.116  0.00  0.00    +0.000 C 
ATOM     10  C   UNL     1       0.969   7.977  21.548  0.00  0.00    +0.000 C 
ATOM     11  N   UNL     1       1.672   7.939  20.256  0.00  0.00    +0.000 N 
ATOM     12  C   UNL     1       2.124   6.727  19.750  0.00  0.00    +0.000 A 
ATOM     13  C   UNL     1       3.179   6.763  18.855  0.00  0.00    +0.000 A 
ATOM     14  C   UNL     1       3.661   5.569  18.385  0.00  0.00    +0.000 A 
ATOM     15  N   UNL     1       3.144   4.389  18.731  0.00  0.00    +0.000 NA
ATOM     16  C   UNL     1       2.123   4.406  19.625  0.00  0.00    +0.000 A 
ATOM     17  N   UNL     1       1.607   5.555  20.159  0.00  0.00    +0.000 NA
ATOM     18  C   UNL     1       1.112   8.885  19.269  0.00  0.00    +0.000 C 
ATOM     19  C   UNL     1       1.289  10.310  19.823  0.00  0.00    +0.000 C 
BRANCH  16  20
ATOM     20  C   UNL     1       1.503   3.060  20.018  0.00  0.00    +0.000 C 
ATOM     21  F   UNL     1       2.392   2.018  19.999  0.00  0.00    +0.000 F 
ATOM     22  F   UNL     1       0.975   3.053  21.280  0.00  0.00    +0.000 F 
ATOM     23  F   UNL     1       0.486   2.670  19.190  0.00  0.00    +0.000 F 
ENDBRANCH  16  20
ENDBRANCH   4   6
BRANCH   4  24
ATOM     24  C   UNL     1       0.217  13.155  19.596  0.00  0.00    +0.000 C 
ATOM     25  C   UNL     1      -0.308  13.361  18.166  0.00  0.00    +0.000 C 
ATOM     26  C   UNL     1       0.765  14.508  20.082  0.00  0.00    +0.000 C 
ENDBRANCH   4  24
BRANCH   1  27
ATOM     27  N   UNL     1      -3.890  14.434  21.612  0.00  0.00    +0.000 NA
ATOM     28  H   UNL     1      -3.509  15.102  22.288  0.00  0.00    +0.000 HD
BRANCH  27  34
ATOM     29  C   UNL     1      -6.165  13.554  22.168  0.00  0.00    +0.000 C 
ATOM     30  C   UNL     1      -6.862  12.453  22.991  0.00  0.00    +0.000 C 
ATOM     31  O   UNL     1      -6.508  12.525  24.376  0.00  0.00    +0.000 OA
ATOM     32  C   UNL     1      -5.115  12.326  24.584  0.00  0.00    +0.000 C 
ATOM     33  C   UNL     1      -4.281  13.369  23.854  0.00  0.00    +0.000 C 
ATOM     34  C   UNL     1      -4.631  13.394  22.358  0.00  0.00    +0.000 C 
BRANCH  29  36
ATOM     35  C   UNL     1      -7.779  15.305  21.979  0.00  0.00    +0.000 C 
ATOM     36  O   UNL     1      -6.569  14.872  22.591  0.00  0.00    +0.000 OA
ENDBRANCH  29  36
ENDBRANCH  27  34
ENDBRANCH   1  27
TORSDOF 6
ENDMDL
MODEL 4
REMARK VINA RESULT:      -7.6      1.014      1.453
REMARK  Name = 
REMARK  9 active torsions:
REMARK  status: ('A' for Active; 'I' for Inactive)
REMARK    1  A    between atoms: C_1  and  O_2
REMARK    2  A    between atoms: O_2  and  C_3
REMARK    3  A    between atoms: C_8  and  N_9
REMARK    4  A    between atoms: N_9  and  C_10
REMARK    5  A    between atoms: C_13  and  C_14
REMARK    6  A    between atoms: C_13  and  C_32
REMARK    7  A    between atoms: C_24  and  C_25
REMARK    8  A    between atoms: C_32  and  C_33
REMARK    9  A    between atoms: C_32  and  C_34
REMARK                            x       y       z     vdW  Elec       q    Type
REMARK                         _______ _______ _______ _____ _____    ______ ____
ROOT
ATOM      1  C   UNL     1      -2.897  12.250  19.625  0.00  0.00    +0.000 C 
ATOM      2  C   UNL     1      -2.690  11.214  18.530  0.00  0.00    +0.000 C 
ATOM      3  C   UNL     1      -1.208  10.836  18.564  0.00  0.00    +0.000 C 
ATOM      4  C   UNL     1      -0.532  11.510  19.792  0.00  0.00    +0.000 C 
ATOM      5  C   UNL     1      -1.772  11.958  20.615  0.00  0.00    +0.000 C 
ENDROOT
BRANCH   4   6
ATOM      6  C   UNL     1       0.226  10.485  20.698  0.00  0.00    +0.000 C 
ATOM      7  O   UNL     1       0.037  10.506  21.921  0.00  0.00    +0.000 OA
ATOM      8  N   UNL     1       1.106   9.564  20.163  0.00  0.00    +0.000 N 
ATOM      9  C   UNL     1       1.575   8.450  21.020  0.00  0.00    +0.000 C 
ATOM     10  C   UNL     1       1.680   7.108  20.241  0.00  0.00    +0.000 C 
ATOM     11  N   UNL     1       2.476   7.341  19.026  0.00  0.00    +0.000 N 
ATOM     12  C   UNL     1       3.100   6.275  18.393  0.00  0.00    +0.000 A 
ATOM     13  C   UNL     1       4.207   6.556  17.611  0.00  0.00    +0.000 A 
ATOM     14  C   UNL     1       4.856   5.505  17.019  0.00  0.00    +0.000 A 
ATOM     15  N   UNL     1       4.454   4.239  17.142  0.00  0.00    +0.000 NA
ATOM     16  C   UNL     1       3.375   4.013  17.933  0.00  0.00    +0.000 A 
ATOM     17  N   UNL     1       2.692   5.007  18.579  0.00  0.00    +0.000 NA
ATOM     18  C   UNL     1       1.885   8.366  18.140  0.00  0.00    +0.000 C 
ATOM     19  C   UNL     1       1.856   9.699  18.909  0.00  0.00    +0.000 C 
BRANCH  16  20
ATOM     20  C   UNL     1       2.886   2.566  18.069  0.00  0.00    +0.000 C 
ATOM     21  F   UNL     1       3.897   1.642  18.069  0.00  0.00    +0.000 F 
ATOM     22  F   UNL     1       2.194   2.333  19.225  0.00  0.00    +0.000 F 
ATOM     23  F   UNL     1       2.054   2.178  17.055  0.00  0.00    +0.000 F 
ENDBRANCH  16  20
ENDBRANCH   4   6
BRANCH   4  24
ATOM     24  C   UNL     1       0.413  12.701  19.377  0.00  0.00    +0.000 C 
ATOM     25  C   UNL     1      -0.023  13.463  18.115  0.00  0.00    +0.000 C 
ATOM     26  C   UNL     1       0.625  13.741  20.490  0.00  0.00    +0.000 C 
ENDBRANCH   4  24
BRANCH   1  27
ATOM     27  N   UNL     1      -4.232  12.165  20.214  0.00  0.00    +0.000 NA
ATOM     28  H   UNL     1      -4.908  11.802  19.536  0.00  0.00    +0.000 HD
BRANCH  27  34
ATOM     29  C   UNL     1      -4.325  13.654  22.222  0.00  0.00    +0.000 C 
ATOM     30  C   UNL     1      -4.920  14.992  22.702  0.00  0.00    +0.000 C 
ATOM     31  O   UNL     1      -6.345  15.014  22.571  0.00  0.00    +0.000 OA
ATOM     32  C   UNL     1      -6.761  14.881  21.217  0.00  0.00    +0.000 C 
ATOM     33  C   UNL     1      -6.275  13.576  20.604  0.00  0.00    +0.000 C 
ATOM     34  C   UNL     1      -4.750  13.446  20.742  0.00  0.00    +0.000 C 
BRANCH  29  36
ATOM     35  C   UNL     1      -4.290  12.571  24.350  0.00  0.00    +0.000 C 
ATOM     36  O   UNL     1      -4.792  12.547  23.019  0.00  0.00    +0.000 OA
ENDBRANCH  29  36
ENDBRANCH  27  34
ENDBRANCH   1  27
TORSDOF 6
ENDMDL
MODEL 5
REMARK VINA RESULT:      -7.6      0.722      1.156
REMARK  Name = 
REMARK  9 active torsions:
REMARK  status: ('A' for Active; 'I' for Inactive)
REMARK    1  A    between atoms: C_1  and  O_2
REMARK    2  A    between atoms: O_2  and  C_3
REMARK    3  A    between atoms: C_8  and  N_9
REMARK    4  A    between atoms: N_9  and  C_10
REMARK    5  A    between atoms: C_13  and  C_14
REMARK    6  A    between atoms: C_13  and  C_32
REMARK    7  A    between atoms: C_24  and  C_25
REMARK    8  A    between atoms: C_32  and  C_33
REMARK    9  A    between atoms: C_32  and  C_34
REMARK                            x       y       z     vdW  Elec       q    Type
REMARK                         _______ _______ _______ _____ _____    ______ ____
ROOT
ATOM      1  C   UNL     1      -2.811  12.676  19.919  0.00  0.00    +0.000 C 
ATOM      2  C   UNL     1      -2.697  11.581  18.869  0.00  0.00    +0.000 C 
ATOM      3  C   UNL     1      -1.243  11.106  18.891  0.00  0.00    +0.000 C 
ATOM      4  C   UNL     1      -0.497  11.788  20.073  0.00  0.00    +0.000 C 
ATOM      5  C   UNL     1      -1.686  12.355  20.898  0.00  0.00    +0.000 C 
ENDROOT
BRANCH   4   6
ATOM      6  C   UNL     1       0.211  10.756  21.011  0.00  0.00    +0.000 C 
ATOM      7  O   UNL     1       0.072  10.859  22.236  0.00  0.00    +0.000 OA
ATOM      8  N   UNL     1       0.996   9.740  20.501  0.00  0.00    +0.000 N 
ATOM      9  C   UNL     1       1.408   8.639  21.403  0.00  0.00    +0.000 C 
ATOM     10  C   UNL     1       1.377   7.252  20.700  0.00  0.00    +0.000 C 
ATOM     11  N   UNL     1       2.142   7.354  19.448  0.00  0.00    +0.000 N 
ATOM     12  C   UNL     1       2.656   6.208  18.857  0.00  0.00    +0.000 A 
ATOM     13  C   UNL     1       3.751   6.356  18.023  0.00  0.00    +0.000 A 
ATOM     14  C   UNL     1       4.293   5.225  17.471  0.00  0.00    +0.000 A 
ATOM     15  N   UNL     1       3.797   4.004  17.680  0.00  0.00    +0.000 NA
ATOM     16  C   UNL     1       2.735   3.909  18.518  0.00  0.00    +0.000 A 
ATOM     17  N   UNL     1       2.157   4.990  19.128  0.00  0.00    +0.000 NA
ATOM     18  C   UNL     1       1.601   8.374  18.525  0.00  0.00    +0.000 C 
ATOM     19  C   UNL     1       1.705   9.745  19.217  0.00  0.00    +0.000 C 
BRANCH  16  20
ATOM     20  C   UNL     1       2.139   2.517  18.753  0.00  0.00    +0.000 C 
ATOM     21  F   UNL     1       2.140   2.133  20.068  0.00  0.00    +0.000 F 
ATOM     22  F   UNL     1       0.834   2.409  18.355  0.00  0.00    +0.000 F 
ATOM     23  F   UNL     1       2.809   1.522  18.095  0.00  0.00    +0.000 F 
ENDBRANCH  16  20
ENDBRANCH   4   6
BRANCH   4  24
ATOM     24  C   UNL     1       0.515  12.893  19.586  0.00  0.00    +0.000 C 
ATOM     25  C   UNL     1       0.018  13.753  18.413  0.00  0.00    +0.000 C 
ATOM     26  C   UNL     1       0.968  13.854  20.699  0.00  0.00    +0.000 C 
ENDBRANCH   4  24
BRANCH   1  27
ATOM     27  N   UNL     1      -4.135  12.707  20.536  0.00  0.00    +0.000 NA
ATOM     28  H   UNL     1      -4.837  13.058  19.879  0.00  0.00    +0.000 HD
BRANCH  27  34
ATOM     29  C   UNL     1      -5.248  12.918  22.767  0.00  0.00    +0.000 C 
ATOM     30  C   UNL     1      -5.288  13.826  24.011  0.00  0.00    +0.000 C 
ATOM     31  O   UNL     1      -5.628  15.174  23.671  0.00  0.00    +0.000 OA
ATOM     32  C   UNL     1      -4.669  15.766  22.803  0.00  0.00    +0.000 C 
ATOM     33  C   UNL     1      -4.537  14.994  21.498  0.00  0.00    +0.000 C 
ATOM     34  C   UNL     1      -4.215  13.516  21.771  0.00  0.00    +0.000 C 
BRANCH  29  36
ATOM     35  C   UNL     1      -7.542  12.287  22.980  0.00  0.00    +0.000 C 
ATOM     36  O   UNL     1      -6.538  12.830  22.129  0.00  0.00    +0.000 OA
ENDBRANCH  29  36
ENDBRANCH  27  34
ENDBRANCH   1  27
TORSDOF 6
ENDMDL
MODEL 6
REMARK VINA RESULT:      -7.6      1.373      1.998
REMARK  Name = 
REMARK  9 active torsions:
REMARK  status: ('A' for Active; 'I' for Inactive)
REMARK    1  A    between atoms: C_1  and  O_2
REMARK    2  A    between atoms: O_2  and  C_3
REMARK    3  A    between atoms: C_8  and  N_9
REMARK    4  A    between atoms: N_9  and  C_10
REMARK    5  A    between atoms: C_13  and  C_14
REMARK    6  A    between atoms: C_13  and  C_32
REMARK    7  A    between atoms: C_24  and  C_25
REMARK    8  A    between atoms: C_32  and  C_33
REMARK    9  A    between atoms: C_32  and  C_34
REMARK                            x       y       z     vdW  Elec       q    Type
REMARK                         _______ _______ _______ _____ _____    ______ ____
ROOT
ATOM      1  C   UNL     1      -2.885  11.555  18.510  0.00  0.00    +0.000 C 
ATOM      2  C   UNL     1      -2.120  10.735  17.481  0.00  0.00    +0.000 C 
ATOM      3  C   UNL     1      -0.679  10.639  17.985  0.00  0.00    +0.000 C 
ATOM      4  C   UNL     1      -0.590  11.254  19.411  0.00  0.00    +0.000 C 
ATOM      5  C   UNL     1      -2.092  11.347  19.797  0.00  0.00    +0.000 C 
ENDROOT
BRANCH   4   6
ATOM      6  C   UNL     1       0.051  10.276  20.448  0.00  0.00    +0.000 C 
ATOM      7  O   UNL     1      -0.299  10.338  21.633  0.00  0.00    +0.000 OA
ATOM      8  N   UNL     1       1.006   9.351  20.070  0.00  0.00    +0.000 N 
ATOM      9  C   UNL     1       1.370   8.276  21.023  0.00  0.00    +0.000 C 
ATOM     10  C   UNL     1       1.593   6.909  20.317  0.00  0.00    +0.000 C 
ATOM     11  N   UNL     1       2.541   7.111  19.211  0.00  0.00    +0.000 N 
ATOM     12  C   UNL     1       3.257   6.034  18.708  0.00  0.00    +0.000 A 
ATOM     13  C   UNL     1       4.455   6.304  18.070  0.00  0.00    +0.000 A 
ATOM     14  C   UNL     1       5.190   5.243  17.610  0.00  0.00    +0.000 A 
ATOM     15  N   UNL     1       4.790   3.976  17.726  0.00  0.00    +0.000 NA
ATOM     16  C   UNL     1       3.618   3.761  18.374  0.00  0.00    +0.000 A 
ATOM     17  N   UNL     1       2.842   4.767  18.885  0.00  0.00    +0.000 NA
ATOM     18  C   UNL     1       2.063   8.094  18.216  0.00  0.00    +0.000 C 
ATOM     19  C   UNL     1       1.915   9.453  18.923  0.00  0.00    +0.000 C 
BRANCH  16  20
ATOM     20  C   UNL     1       3.132   2.313  18.499  0.00  0.00    +0.000 C 
ATOM     21  F   UNL     1       3.571   1.497  17.490  0.00  0.00    +0.000 F 
ATOM     22  F   UNL     1       3.539   1.699  19.652  0.00  0.00    +0.000 F 
ATOM     23  F   UNL     1       1.769   2.195  18.478  0.00  0.00    +0.000 F 
ENDBRANCH  16  20
ENDBRANCH   4   6
BRANCH   4  24
ATOM     24  C   UNL     1       0.149  12.646  19.418  0.00  0.00    +0.000 C 
ATOM     25  C   UNL     1       0.913  12.979  18.126  0.00  0.00    +0.000 C 
ATOM     26  C   UNL     1      -0.774  13.838  19.724  0.00  0.00    +0.000 C 
ENDBRANCH   4  24
BRANCH   1  27
ATOM     27  N   UNL     1      -4.283  11.143  18.608  0.00  0.00    +0.000 NA
ATOM     28  H   UNL     1      -4.511  10.446  17.894  0.00  0.00    +0.000 HD
BRANCH  27  34
ATOM     29  C   UNL     1      -5.261  13.123  19.784  0.00  0.00    +0.000 C 
ATOM     30  C   UNL     1      -6.311  14.235  19.599  0.00  0.00    +0.000 C 
ATOM     31  O   UNL     1      -7.612  13.697  19.343  0.00  0.00    +0.000 OA
ATOM     32  C   UNL     1      -7.650  12.939  18.140  0.00  0.00    +0.000 C 
ATOM     33  C   UNL     1      -6.680  11.767  18.181  0.00  0.00    +0.000 C 
ATOM     34  C   UNL     1      -5.257  12.251  18.498  0.00  0.00    +0.000 C 
BRANCH  29  36
ATOM     35  C   UNL     1      -5.154  12.886  22.159  0.00  0.00    +0.000 C 
ATOM     36  O   UNL     1      -5.556  12.296  20.928  0.00  0.00    +0.000 OA
ENDBRANCH  29  36
ENDBRANCH  27  34
ENDBRANCH   1  27
TORSDOF 6
ENDMDL
MODEL 7
REMARK VINA RESULT:      -7.6      1.232      1.725
REMARK  Name = 
REMARK  9 active torsions:
REMARK  status: ('A' for Active; 'I' for Inactive)
REMARK    1  A    between atoms: C_1  and  O_2
REMARK    2  A    between atoms: O_2  and  C_3
REMARK    3  A    between atoms: C_8  and  N_9
REMARK    4  A    between atoms: N_9  and  C_10
REMARK    5  A    between atoms: C_13  and  C_14
REMARK    6  A    between atoms: C_13  and  C_32
REMARK    7  A    between atoms: C_24  and  C_25
REMARK    8  A    between atoms: C_32  and  C_33
REMARK    9  A    between atoms: C_32  and  C_34
REMARK                            x       y       z     vdW  Elec       q    Type
REMARK                         _______ _______ _______ _____ _____    ______ ____
ROOT
ATOM      1  C   UNL     1      -2.895  12.631  20.477  0.00  0.00    +0.000 C 
ATOM      2  C   UNL     1      -2.545  11.795  19.254  0.00  0.00    +0.000 C 
ATOM      3  C   UNL     1      -1.054  11.470  19.362  0.00  0.00    +0.000 C 
ATOM      4  C   UNL     1      -0.518  11.960  20.737  0.00  0.00    +0.000 C 
ATOM      5  C   UNL     1      -1.843  12.224  21.505  0.00  0.00    +0.000 C 
ENDROOT
BRANCH   4   6
ATOM      6  C   UNL     1       0.212  10.830  21.533  0.00  0.00    +0.000 C 
ATOM      7  O   UNL     1       0.100  10.791  22.765  0.00  0.00    +0.000 OA
ATOM      8  N   UNL     1       0.985   9.881  20.893  0.00  0.00    +0.000 N 
ATOM      9  C   UNL     1       1.418   8.685  21.653  0.00  0.00    +0.000 C 
ATOM     10  C   UNL     1       1.371   7.388  20.797  0.00  0.00    +0.000 C 
ATOM     11  N   UNL     1       2.107   7.635  19.547  0.00  0.00    +0.000 N 
ATOM     12  C   UNL     1       2.607   6.566  18.817  0.00  0.00    +0.000 A 
ATOM     13  C   UNL     1       3.683   6.811  17.981  0.00  0.00    +0.000 A 
ATOM     14  C   UNL     1       4.213   5.752  17.291  0.00  0.00    +0.000 A 
ATOM     15  N   UNL     1       3.722   4.514  17.370  0.00  0.00    +0.000 NA
ATOM     16  C   UNL     1       2.679   4.321  18.216  0.00  0.00    +0.000 A 
ATOM     17  N   UNL     1       2.115   5.323  18.959  0.00  0.00    +0.000 NA
ATOM     18  C   UNL     1       1.545   8.752  18.760  0.00  0.00    +0.000 C 
ATOM     19  C   UNL     1       1.665  10.035  19.602  0.00  0.00    +0.000 C 
BRANCH  16  20
ATOM     20  C   UNL     1       2.089   2.909  18.303  0.00  0.00    +0.000 C 
ATOM     21  F   UNL     1       2.367   2.129  17.212  0.00  0.00    +0.000 F 
ATOM     22  F   UNL     1       2.547   2.194  19.376  0.00  0.00    +0.000 F 
ATOM     23  F   UNL     1       0.725   2.897  18.406  0.00  0.00    +0.000 F 
ENDBRANCH  16  20
ENDBRANCH   4   6
BRANCH   4  24
ATOM     24  C   UNL     1       0.398  13.236  20.603  0.00  0.00    +0.000 C 
ATOM     25  C   UNL     1       0.270  13.986  19.267  0.00  0.00    +0.000 C 
ATOM     26  C   UNL     1       0.195  14.266  21.728  0.00  0.00    +0.000 C 
ENDBRANCH   4  24
BRANCH   1  27
ATOM     27  N   UNL     1      -4.268  12.404  20.921  0.00  0.00    +0.000 NA
ATOM     28  H   UNL     1      -4.469  11.403  20.993  0.00  0.00    +0.000 HD
BRANCH  27  34
ATOM     29  C   UNL     1      -6.573  13.375  20.876  0.00  0.00    +0.000 C 
ATOM     30  C   UNL     1      -7.602  13.989  19.907  0.00  0.00    +0.000 C 
ATOM     31  O   UNL     1      -7.916  13.095  18.834  0.00  0.00    +0.000 OA
ATOM     32  C   UNL     1      -6.778  12.797  18.035  0.00  0.00    +0.000 C 
ATOM     33  C   UNL     1      -5.671  12.145  18.852  0.00  0.00    +0.000 C 
ATOM     34  C   UNL     1      -5.300  13.021  20.059  0.00  0.00    +0.000 C 
BRANCH  29  36
ATOM     35  C   UNL     1      -7.482  12.410  22.862  0.00  0.00    +0.000 C 
ATOM     36  O   UNL     1      -7.084  12.188  21.514  0.00  0.00    +0.000 OA
ENDBRANCH  29  36
ENDBRANCH  27  34
ENDBRANCH   1  27
TORSDOF 6
ENDMDL
MODEL 8
REMARK VINA RESULT:      -7.5      2.900      5.247
REMARK  Name = 
REMARK  9 active torsions:
REMARK  status: ('A' for Active; 'I' for Inactive)
REMARK    1  A    between atoms: C_1  and  O_2
REMARK    2  A    between atoms: O_2  and  C_3
REMARK    3  A    between atoms: C_8  and  N_9
REMARK    4  A    between atoms: N_9  and  C_10
REMARK    5  A    between atoms: C_13  and  C_14
REMARK    6  A    between atoms: C_13  and  C_32
REMARK    7  A    between atoms: C_24  and  C_25
REMARK    8  A    between atoms: C_32  and  C_33
REMARK    9  A    between atoms: C_32  and  C_34
REMARK                            x       y       z     vdW  Elec       q    Type
REMARK                         _______ _______ _______ _____ _____    ______ ____
ROOT
ATOM      1  C   UNL     1       0.301  14.178  19.646  0.00  0.00    +0.000 C 
ATOM      2  C   UNL     1      -0.436  14.491  20.939  0.00  0.00    +0.000 C 
ATOM      3  C   UNL     1      -1.002  13.164  21.449  0.00  0.00    +0.000 C 
ATOM      4  C   UNL     1      -0.469  12.002  20.563  0.00  0.00    +0.000 C 
ATOM      5  C   UNL     1       0.683  12.707  19.795  0.00  0.00    +0.000 C 
ENDROOT
BRANCH   4   6
ATOM      6  C   UNL     1       0.213  10.872  21.401  0.00  0.00    +0.000 C 
ATOM      7  O   UNL     1       0.067  10.860  22.629  0.00  0.00    +0.000 OA
ATOM      8  N   UNL     1       0.981   9.894  20.799  0.00  0.00    +0.000 N 
ATOM      9  C   UNL     1       1.366   8.704  21.594  0.00  0.00    +0.000 C 
ATOM     10  C   UNL     1       1.313   7.392  20.762  0.00  0.00    +0.000 C 
ATOM     11  N   UNL     1       2.088   7.598  19.528  0.00  0.00    +0.000 N 
ATOM     12  C   UNL     1       2.584   6.504  18.833  0.00  0.00    +0.000 A 
ATOM     13  C   UNL     1       3.687   6.709  18.022  0.00  0.00    +0.000 A 
ATOM     14  C   UNL     1       4.211   5.625  17.367  0.00  0.00    +0.000 A 
ATOM     15  N   UNL     1       3.691   4.400  17.456  0.00  0.00    +0.000 NA
ATOM     16  C   UNL     1       2.621   4.247  18.276  0.00  0.00    +0.000 A 
ATOM     17  N   UNL     1       2.060   5.275  18.984  0.00  0.00    +0.000 NA
ATOM     18  C   UNL     1       1.573   8.711  18.705  0.00  0.00    +0.000 C 
ATOM     19  C   UNL     1       1.699  10.008  19.525  0.00  0.00    +0.000 C 
BRANCH  16  20
ATOM     20  C   UNL     1       1.997   2.850  18.374  0.00  0.00    +0.000 C 
ATOM     21  F   UNL     1       0.628   2.860  18.394  0.00  0.00    +0.000 F 
ATOM     22  F   UNL     1       2.329   2.031  17.329  0.00  0.00    +0.000 F 
ATOM     23  F   UNL     1       2.361   2.172  19.505  0.00  0.00    +0.000 F 
ENDBRANCH  16  20
ENDBRANCH   4   6
BRANCH   4  24
ATOM     24  C   UNL     1      -1.584  11.409  19.620  0.00  0.00    +0.000 C 
ATOM     25  C   UNL     1      -2.921  12.166  19.642  0.00  0.00    +0.000 C 
ATOM     26  C   UNL     1      -1.151  11.287  18.148  0.00  0.00    +0.000 C 
ENDBRANCH   4  24
BRANCH   1  27
ATOM     27  N   UNL     1       1.445  15.063  19.440  0.00  0.00    +0.000 NA
ATOM     28  H   UNL     1       1.619  15.636  20.270  0.00  0.00    +0.000 HD
BRANCH  27  34
ATOM     29  C   UNL     1       2.713  16.453  17.790  0.00  0.00    +0.000 C 
ATOM     30  C   UNL     1       2.495  17.399  16.595  0.00  0.00    +0.000 C 
ATOM     31  O   UNL     1       1.659  18.507  16.944  0.00  0.00    +0.000 OA
ATOM     32  C   UNL     1       0.356  18.092  17.338  0.00  0.00    +0.000 C 
ATOM     33  C   UNL     1       0.402  17.167  18.545  0.00  0.00    +0.000 C 
ATOM     34  C   UNL     1       1.319  15.965  18.274  0.00  0.00    +0.000 C 
BRANCH  29  36
ATOM     35  C   UNL     1       4.773  16.758  18.960  0.00  0.00    +0.000 C 
ATOM     36  O   UNL     1       3.398  17.112  18.875  0.00  0.00    +0.000 OA
ENDBRANCH  29  36
ENDBRANCH  27  34
ENDBRANCH   1  27
TORSDOF 6
ENDMDL
MODEL 9
REMARK VINA RESULT:      -7.4      0.925      1.101
REMARK  Name = 
REMARK  9 active torsions:
REMARK  status: ('A' for Active; 'I' for Inactive)
REMARK    1  A    between atoms: C_1  and  O_2
REMARK    2  A    between atoms: O_2  and  C_3
REMARK    3  A    between atoms: C_8  and  N_9
REMARK    4  A    between atoms: N_9  and  C_10
REMARK    5  A    between atoms: C_13  and  C_14
REMARK    6  A    between atoms: C_13  and  C_32
REMARK    7  A    between atoms: C_24  and  C_25
REMARK    8  A    between atoms: C_32  and  C_33
REMARK    9  A    between atoms: C_32  and  C_34
REMARK                            x       y       z     vdW  Elec       q    Type
REMARK                         _______ _______ _______ _____ _____    ______ ____
ROOT
ATOM      1  C   UNL     1      -3.041  12.598  19.879  0.00  0.00    +0.000 C 
ATOM      2  C   UNL     1      -2.624  11.718  18.710  0.00  0.00    +0.000 C 
ATOM      3  C   UNL     1      -1.125  11.459  18.875  0.00  0.00    +0.000 C 
ATOM      4  C   UNL     1      -0.649  12.036  20.239  0.00  0.00    +0.000 C 
ATOM      5  C   UNL     1      -2.006  12.284  20.955  0.00  0.00    +0.000 C 
ENDROOT
BRANCH   4   6
ATOM      6  C   UNL     1       0.100  10.976  21.111  0.00  0.00    +0.000 C 
ATOM      7  O   UNL     1      -0.024  11.012  22.342  0.00  0.00    +0.000 OA
ATOM      8  N   UNL     1       0.901  10.008  20.538  0.00  0.00    +0.000 N 
ATOM      9  C   UNL     1       1.355   8.874  21.376  0.00  0.00    +0.000 C 
ATOM     10  C   UNL     1       1.348   7.525  20.602  0.00  0.00    +0.000 C 
ATOM     11  N   UNL     1       2.090   7.711  19.346  0.00  0.00    +0.000 N 
ATOM     12  C   UNL     1       2.623   6.610  18.689  0.00  0.00    +0.000 A 
ATOM     13  C   UNL     1       3.701   6.829  17.848  0.00  0.00    +0.000 A 
ATOM     14  C   UNL     1       4.263   5.743  17.230  0.00  0.00    +0.000 A 
ATOM     15  N   UNL     1       3.802   4.500  17.383  0.00  0.00    +0.000 NA
ATOM     16  C   UNL     1       2.755   4.335  18.230  0.00  0.00    +0.000 A 
ATOM     17  N   UNL     1       2.160   5.367  18.904  0.00  0.00    +0.000 NA
ATOM     18  C   UNL     1       1.509   8.762  18.485  0.00  0.00    +0.000 C 
ATOM     19  C   UNL     1       1.590  10.098  19.246  0.00  0.00    +0.000 C 
BRANCH  16  20
ATOM     20  C   UNL     1       2.198   2.917  18.401  0.00  0.00    +0.000 C 
ATOM     21  F   UNL     1       2.701   2.017  17.500  0.00  0.00    +0.000 F 
ATOM     22  F   UNL     1       2.462   2.373  19.628  0.00  0.00    +0.000 F 
ATOM     23  F   UNL     1       0.840   2.846  18.249  0.00  0.00    +0.000 F 
ENDBRANCH  16  20
ENDBRANCH   4   6
BRANCH   4  24
ATOM     24  C   UNL     1       0.220  13.339  20.067  0.00  0.00    +0.000 C 
ATOM     25  C   UNL     1       0.127  14.001  18.683  0.00  0.00    +0.000 C 
ATOM     26  C   UNL     1      -0.078  14.426  21.115  0.00  0.00    +0.000 C 
ENDBRANCH   4  24
BRANCH   1  27
ATOM     27  N   UNL     1      -4.418  12.338  20.295  0.00  0.00    +0.000 NA
ATOM     28  H   UNL     1      -5.008  12.112  19.489  0.00  0.00    +0.000 HD
BRANCH  27  34
ATOM     29  C   UNL     1      -6.567  13.553  20.698  0.00  0.00    +0.000 C 
ATOM     30  C   UNL     1      -7.148  14.742  21.488  0.00  0.00    +0.000 C 
ATOM     31  O   UNL     1      -6.470  15.964  21.177  0.00  0.00    +0.000 OA
ATOM     32  C   UNL     1      -5.092  15.916  21.527  0.00  0.00    +0.000 C 
ATOM     33  C   UNL     1      -4.362  14.800  20.794  0.00  0.00    +0.000 C 
ATOM     34  C   UNL     1      -5.054  13.449  21.035  0.00  0.00    +0.000 C 
BRANCH  29  36
ATOM     35  C   UNL     1      -7.678  12.818  18.716  0.00  0.00    +0.000 C 
ATOM     36  O   UNL     1      -6.735  13.724  19.277  0.00  0.00    +0.000 OA
ENDBRANCH  29  36
ENDBRANCH  27  34
ENDBRANCH   1  27
TORSDOF 6
ENDMDL
