MODEL 1
REMARK VINA RESULT:      -7.8      0.000      0.000
REMARK  Name = 
REMARK  8 active torsions:
REMARK  status: ('A' for Active; 'I' for Inactive)
REMARK    1  A    between atoms: C_2  and  C_3
REMARK    2  A    between atoms: C_3  and  S_4
REMARK    3  A    between atoms: S_4  and  C_5
REMARK    4  A    between atoms: C_8  and  C_9
REMARK    5  A    between atoms: N_16  and  C_17
REMARK    6  A    between atoms: N_23  and  C_24
REMARK    7  A    between atoms: C_24  and  C_25
REMARK    8  A    between atoms: C_25  and  N_26
REMARK                            x       y       z     vdW  Elec       q    Type
REMARK                         _______ _______ _______ _____ _____    ______ ____
ROOT
ATOM      1  C   UNL     1       1.751   7.617  19.718  0.00  0.00    +0.000 A 
ATOM      2  N   UNL     1       2.185   8.611  18.984  0.00  0.00    +0.000 NA
ATOM      3  N   UNL     1       3.085   8.102  18.082  0.00  0.00    +0.000 NA
ATOM      4  C   UNL     1       3.179   6.790  18.249  0.00  0.00    +0.000 A 
ATOM      5  N   UNL     1       2.339   6.424  19.314  0.00  0.00    +0.000 N 
ENDROOT
BRANCH   4   6
ATOM      6  C   UNL     1       4.010   5.914  17.392  0.00  0.00    +0.000 A 
ATOM      7  C   UNL     1       3.795   4.523  17.405  0.00  0.00    +0.000 A 
ATOM      8  C   UNL     1       4.524   3.672  16.563  0.00  0.00    +0.000 A 
ATOM      9  C   UNL     1       5.460   4.206  15.687  0.00  0.00    +0.000 A 
ATOM     10  F   UNL     1       6.133   3.400  14.857  0.00  0.00    +0.000 F 
ATOM     11  C   UNL     1       5.716   5.567  15.674  0.00  0.00    +0.000 A 
ATOM     12  C   UNL     1       5.028   6.407  16.557  0.00  0.00    +0.000 A 
ENDBRANCH   4   6
BRANCH   5  13
ATOM     13  C   UNL     1       2.124   5.118  19.845  0.00  0.00    +0.000 A 
ATOM     14  C   UNL     1       1.196   4.252  19.251  0.00  0.00    +0.000 A 
ATOM     15  C   UNL     1       0.844   3.060  19.887  0.00  0.00    +0.000 A 
ATOM     16  C   UNL     1       1.462   2.696  21.081  0.00  0.00    +0.000 A 
ATOM     17  C   UNL     1       2.440   3.518  21.637  0.00  0.00    +0.000 A 
ATOM     18  C   UNL     1       2.765   4.732  21.031  0.00  0.00    +0.000 A 
ENDBRANCH   5  13
BRANCH   1  19
ATOM     19  S   UNL     1       0.759   7.780  21.136  0.00  0.00    +0.000 S 
BRANCH  19  20
ATOM     20  C   UNL     1       1.432   9.242  21.969  0.00  0.00    +0.000 C 
BRANCH  20  22
ATOM     21  O   UNL     1      -0.045  11.062  22.644  0.00  0.00    +0.000 OA
ATOM     22  C   UNL     1       0.500  10.434  21.738  0.00  0.00    +0.000 C 
ATOM     23  N   UNL     1       0.290  10.758  20.408  0.00  0.00    +0.000 N 
ATOM     24  H   UNL     1       0.665  10.157  19.684  0.00  0.00    +0.000 HD
BRANCH  23  25
ATOM     25  C   UNL     1      -0.625  11.825  20.016  0.00  0.00    +0.000 C 
BRANCH  25  26
ATOM     26  C   UNL     1      -0.299  12.442  18.645  0.00  0.00    +0.000 C 
BRANCH  26  27
ATOM     27  N   UNL     1       0.843  13.345  18.699  0.00  0.00    +0.000 N 
ATOM     28  C   UNL     1       2.118  12.901  18.448  0.00  0.00    +0.000 C 
ATOM     29  O   UNL     1       2.409  11.754  18.128  0.00  0.00    +0.000 OA
ATOM     30  C   UNL     1       3.143  13.997  18.593  0.00  0.00    +0.000 C 
ATOM     31  S   UNL     1       2.216  15.511  18.893  0.00  0.00    +0.000 S 
ATOM     32  C   UNL     1       0.673  14.690  18.876  0.00  0.00    +0.000 C 
ATOM     33  O   UNL     1      -0.382  15.288  18.994  0.00  0.00    +0.000 OA
ENDBRANCH  26  27
ENDBRANCH  25  26
ENDBRANCH  23  25
ENDBRANCH  20  22
ENDBRANCH  19  20
ENDBRANCH   1  19
TORSDOF 8
ENDMDL
MODEL 2
REMARK VINA RESULT:      -7.7      2.378      2.727
REMARK  Name = 
REMARK  8 active torsions:
REMARK  status: ('A' for Active; 'I' for Inactive)
REMARK    1  A    between atoms: C_2  and  C_3
REMARK    2  A    between atoms: C_3  and  S_4
REMARK    3  A    between atoms: S_4  and  C_5
REMARK    4  A    between atoms: C_8  and  C_9
REMARK    5  A    between atoms: N_16  and  C_17
REMARK    6  A    between atoms: N_23  and  C_24
REMARK    7  A    between atoms: C_24  and  C_25
REMARK    8  A    between atoms: C_25  and  N_26
REMARK                            x       y       z     vdW  Elec       q    Type
REMARK                         _______ _______ _______ _____ _____    ______ ____
ROOT
ATOM      1  C   UNL     1       1.528   7.615  19.574  0.00  0.00    +0.000 A 
ATOM      2  N   UNL     1       1.964   8.616  18.849  0.00  0.00    +0.000 NA
ATOM      3  N   UNL     1       2.964   8.139  18.039  0.00  0.00    +0.000 NA
ATOM      4  C   UNL     1       3.118   6.839  18.252  0.00  0.00    +0.000 A 
ATOM      5  N   UNL     1       2.215   6.449  19.255  0.00  0.00    +0.000 N 
ENDROOT
BRANCH   4   6
ATOM      6  C   UNL     1       4.066   5.993  17.492  0.00  0.00    +0.000 A 
ATOM      7  C   UNL     1       3.781   4.628  17.302  0.00  0.00    +0.000 A 
ATOM      8  C   UNL     1       4.628   3.813  16.538  0.00  0.00    +0.000 A 
ATOM      9  C   UNL     1       5.757   4.360  15.941  0.00  0.00    +0.000 A 
ATOM     10  F   UNL     1       6.549   3.593  15.183  0.00  0.00    +0.000 F 
ATOM     11  C   UNL     1       6.081   5.693  16.137  0.00  0.00    +0.000 A 
ATOM     12  C   UNL     1       5.264   6.490  16.947  0.00  0.00    +0.000 A 
ENDBRANCH   4   6
BRANCH   5  13
ATOM     13  C   UNL     1       2.031   5.147  19.804  0.00  0.00    +0.000 A 
ATOM     14  C   UNL     1       1.106   4.259  19.238  0.00  0.00    +0.000 A 
ATOM     15  C   UNL     1       0.786   3.069  19.895  0.00  0.00    +0.000 A 
ATOM     16  C   UNL     1       1.433   2.729  21.080  0.00  0.00    +0.000 A 
ATOM     17  C   UNL     1       2.408   3.573  21.608  0.00  0.00    +0.000 A 
ATOM     18  C   UNL     1       2.701   4.785  20.982  0.00  0.00    +0.000 A 
ENDBRANCH   5  13
BRANCH   1  19
ATOM     19  S   UNL     1       0.413   7.754  20.901  0.00  0.00    +0.000 S 
BRANCH  19  20
ATOM     20  C   UNL     1       1.177   8.993  21.980  0.00  0.00    +0.000 C 
BRANCH  20  22
ATOM     21  O   UNL     1      -0.043  10.639  23.303  0.00  0.00    +0.000 OA
ATOM     22  C   UNL     1       0.198  10.149  22.202  0.00  0.00    +0.000 C 
ATOM     23  N   UNL     1      -0.428  10.607  21.056  0.00  0.00    +0.000 N 
ATOM     24  H   UNL     1      -0.292  10.113  20.182  0.00  0.00    +0.000 HD
BRANCH  23  25
ATOM     25  C   UNL     1      -1.440  11.657  21.104  0.00  0.00    +0.000 C 
BRANCH  25  26
ATOM     26  C   UNL     1      -1.625  12.397  19.769  0.00  0.00    +0.000 C 
BRANCH  26  27
ATOM     27  N   UNL     1      -2.527  11.696  18.864  0.00  0.00    +0.000 N 
ATOM     28  C   UNL     1      -2.070  10.713  18.020  0.00  0.00    +0.000 C 
ATOM     29  O   UNL     1      -0.912  10.316  17.970  0.00  0.00    +0.000 OA
ATOM     30  C   UNL     1      -3.169  10.151  17.153  0.00  0.00    +0.000 C 
ATOM     31  S   UNL     1      -4.694  10.921  17.719  0.00  0.00    +0.000 S 
ATOM     32  C   UNL     1      -3.877  11.900  18.914  0.00  0.00    +0.000 C 
ATOM     33  O   UNL     1      -4.481  12.635  19.674  0.00  0.00    +0.000 OA
ENDBRANCH  26  27
ENDBRANCH  25  26
ENDBRANCH  23  25
ENDBRANCH  20  22
ENDBRANCH  19  20
ENDBRANCH   1  19
TORSDOF 8
ENDMDL
MODEL 3
REMARK VINA RESULT:      -7.7      0.494      1.619
REMARK  Name = 
REMARK  8 active torsions:
REMARK  status: ('A' for Active; 'I' for Inactive)
REMARK    1  A    between atoms: C_2  and  C_3
REMARK    2  A    between atoms: C_3  and  S_4
REMARK    3  A    between atoms: S_4  and  C_5
REMARK    4  A    between atoms: C_8  and  C_9
REMARK    5  A    between atoms: N_16  and  C_17
REMARK    6  A    between atoms: N_23  and  C_24
REMARK    7  A    between atoms: C_24  and  C_25
REMARK    8  A    between atoms: C_25  and  N_26
REMARK                            x       y       z     vdW  Elec       q    Type
REMARK                         _______ _______ _______ _____ _____    ______ ____
ROOT
ATOM      1  C   UNL     1       1.780   7.613  19.654  0.00  0.00    +0.000 A 
ATOM      2  N   UNL     1       2.221   8.605  18.919  0.00  0.00    +0.000 NA
ATOM      3  N   UNL     1       3.102   8.087  18.005  0.00  0.00    +0.000 NA
ATOM      4  C   UNL     1       3.177   6.772  18.163  0.00  0.00    +0.000 A 
ATOM      5  N   UNL     1       2.345   6.413  19.237  0.00  0.00    +0.000 N 
ENDROOT
BRANCH   4   6
ATOM      6  C   UNL     1       3.984   5.888  17.292  0.00  0.00    +0.000 A 
ATOM      7  C   UNL     1       4.735   6.445  16.241  0.00  0.00    +0.000 A 
ATOM      8  C   UNL     1       5.555   5.643  15.435  0.00  0.00    +0.000 A 
ATOM      9  C   UNL     1       5.647   4.281  15.686  0.00  0.00    +0.000 A 
ATOM     10  F   UNL     1       6.455   3.518  14.940  0.00  0.00    +0.000 F 
ATOM     11  C   UNL     1       4.895   3.698  16.693  0.00  0.00    +0.000 A 
ATOM     12  C   UNL     1       4.034   4.492  17.459  0.00  0.00    +0.000 A 
ENDBRANCH   4   6
BRANCH   5  13
ATOM     13  C   UNL     1       2.116   5.108  19.763  0.00  0.00    +0.000 A 
ATOM     14  C   UNL     1       1.251   4.219  19.111  0.00  0.00    +0.000 A 
ATOM     15  C   UNL     1       0.876   3.026  19.731  0.00  0.00    +0.000 A 
ATOM     16  C   UNL     1       1.411   2.684  20.972  0.00  0.00    +0.000 A 
ATOM     17  C   UNL     1       2.329   3.530  21.590  0.00  0.00    +0.000 A 
ATOM     18  C   UNL     1       2.675   4.745  20.997  0.00  0.00    +0.000 A 
ENDBRANCH   5  13
BRANCH   1  19
ATOM     19  S   UNL     1       0.807   7.784  21.085  0.00  0.00    +0.000 S 
BRANCH  19  20
ATOM     20  C   UNL     1       1.386   9.337  21.818  0.00  0.00    +0.000 C 
BRANCH  20  22
ATOM     21  O   UNL     1      -0.532  10.744  22.357  0.00  0.00    +0.000 OA
ATOM     22  C   UNL     1       0.353  10.438  21.562  0.00  0.00    +0.000 C 
ATOM     23  N   UNL     1       0.472  11.071  20.336  0.00  0.00    +0.000 N 
ATOM     24  H   UNL     1       1.141  10.724  19.659  0.00  0.00    +0.000 HD
BRANCH  23  25
ATOM     25  C   UNL     1      -0.475  12.095  19.908  0.00  0.00    +0.000 C 
BRANCH  25  26
ATOM     26  C   UNL     1      -0.177  12.664  18.511  0.00  0.00    +0.000 C 
BRANCH  26  27
ATOM     27  N   UNL     1       0.956  13.580  18.513  0.00  0.00    +0.000 N 
ATOM     28  C   UNL     1       0.807  14.899  18.867  0.00  0.00    +0.000 C 
ATOM     29  O   UNL     1      -0.243  15.409  19.240  0.00  0.00    +0.000 OA
ATOM     30  C   UNL     1       2.101  15.666  18.764  0.00  0.00    +0.000 C 
ATOM     31  S   UNL     1       3.368  14.454  18.355  0.00  0.00    +0.000 S 
ATOM     32  C   UNL     1       2.227  13.133  18.286  0.00  0.00    +0.000 C 
ATOM     33  O   UNL     1       2.576  11.985  18.076  0.00  0.00    +0.000 OA
ENDBRANCH  26  27
ENDBRANCH  25  26
ENDBRANCH  23  25
ENDBRANCH  20  22
ENDBRANCH  19  20
ENDBRANCH   1  19
TORSDOF 8
ENDMDL
MODEL 4
REMARK VINA RESULT:      -7.6      4.371      7.949
REMARK  Name = 
REMARK  8 active torsions:
REMARK  status: ('A' for Active; 'I' for Inactive)
REMARK    1  A    between atoms: C_2  and  C_3
REMARK    2  A    between atoms: C_3  and  S_4
REMARK    3  A    between atoms: S_4  and  C_5
REMARK    4  A    between atoms: C_8  and  C_9
REMARK    5  A    between atoms: N_16  and  C_17
REMARK    6  A    between atoms: N_23  and  C_24
REMARK    7  A    between atoms: C_24  and  C_25
REMARK    8  A    between atoms: C_25  and  N_26
REMARK                            x       y       z     vdW  Elec       q    Type
REMARK                         _______ _______ _______ _____ _____    ______ ____
ROOT
ATOM      1  C   UNL     1       2.274   7.405  19.064  0.00  0.00    +0.000 A 
ATOM      2  N   UNL     1       2.635   7.610  17.821  0.00  0.00    +0.000 NA
ATOM      3  N   UNL     1       2.205   8.862  17.463  0.00  0.00    +0.000 NA
ATOM      4  C   UNL     1       1.605   9.433  18.499  0.00  0.00    +0.000 A 
ATOM      5  N   UNL     1       1.610   8.518  19.565  0.00  0.00    +0.000 N 
ENDROOT
BRANCH   4   6
ATOM      6  C   UNL     1       1.084  10.819  18.481  0.00  0.00    +0.000 A 
ATOM      7  C   UNL     1      -0.306  11.038  18.441  0.00  0.00    +0.000 A 
ATOM      8  C   UNL     1      -0.833  12.336  18.482  0.00  0.00    +0.000 A 
ATOM      9  C   UNL     1       0.023  13.425  18.582  0.00  0.00    +0.000 A 
ATOM     10  F   UNL     1      -0.478  14.664  18.656  0.00  0.00    +0.000 F 
ATOM     11  C   UNL     1       1.397  13.242  18.590  0.00  0.00    +0.000 A 
ATOM     12  C   UNL     1       1.921  11.949  18.492  0.00  0.00    +0.000 A 
ENDBRANCH   4   6
BRANCH   5  13
ATOM     13  C   UNL     1       1.073   8.702  20.873  0.00  0.00    +0.000 A 
ATOM     14  C   UNL     1      -0.306   8.585  21.099  0.00  0.00    +0.000 A 
ATOM     15  C   UNL     1      -0.847   8.961  22.330  0.00  0.00    +0.000 A 
ATOM     16  C   UNL     1      -0.013   9.391  23.359  0.00  0.00    +0.000 A 
ATOM     17  C   UNL     1       1.366   9.437  23.163  0.00  0.00    +0.000 A 
ATOM     18  C   UNL     1       1.911   9.106  21.922  0.00  0.00    +0.000 A 
ENDBRANCH   5  13
BRANCH   1  19
ATOM     19  S   UNL     1       2.399   5.888  19.904  0.00  0.00    +0.000 S 
BRANCH  19  20
ATOM     20  C   UNL     1       2.320   4.652  18.581  0.00  0.00    +0.000 C 
BRANCH  20  22
ATOM     21  O   UNL     1       4.593   4.026  19.202  0.00  0.00    +0.000 OA
ATOM     22  C   UNL     1       3.715   4.069  18.344  0.00  0.00    +0.000 C 
ATOM     23  N   UNL     1       3.936   3.596  17.061  0.00  0.00    +0.000 N 
ATOM     24  H   UNL     1       3.233   3.744  16.347  0.00  0.00    +0.000 HD
BRANCH  23  25
ATOM     25  C   UNL     1       5.235   3.072  16.652  0.00  0.00    +0.000 C 
BRANCH  25  26
ATOM     26  C   UNL     1       6.078   4.075  15.848  0.00  0.00    +0.000 C 
BRANCH  26  27
ATOM     27  N   UNL     1       6.504   5.213  16.651  0.00  0.00    +0.000 N 
ATOM     28  C   UNL     1       7.537   5.106  17.550  0.00  0.00    +0.000 C 
ATOM     29  O   UNL     1       8.202   4.094  17.734  0.00  0.00    +0.000 OA
ATOM     30  C   UNL     1       7.782   6.396  18.293  0.00  0.00    +0.000 C 
ATOM     31  S   UNL     1       6.684   7.615  17.552  0.00  0.00    +0.000 S 
ATOM     32  C   UNL     1       5.978   6.458  16.447  0.00  0.00    +0.000 C 
ATOM     33  O   UNL     1       5.146   6.778  15.618  0.00  0.00    +0.000 OA
ENDBRANCH  26  27
ENDBRANCH  25  26
ENDBRANCH  23  25
ENDBRANCH  20  22
ENDBRANCH  19  20
ENDBRANCH   1  19
TORSDOF 8
ENDMDL
MODEL 5
REMARK VINA RESULT:      -7.5      2.469      2.817
REMARK  Name = 
REMARK  8 active torsions:
REMARK  status: ('A' for Active; 'I' for Inactive)
REMARK    1  A    between atoms: C_2  and  C_3
REMARK    2  A    between atoms: C_3  and  S_4
REMARK    3  A    between atoms: S_4  and  C_5
REMARK    4  A    between atoms: C_8  and  C_9
REMARK    5  A    between atoms: N_16  and  C_17
REMARK    6  A    between atoms: N_23  and  C_24
REMARK    7  A    between atoms: C_24  and  C_25
REMARK    8  A    between atoms: C_25  and  N_26
REMARK                            x       y       z     vdW  Elec       q    Type
REMARK                         _______ _______ _______ _____ _____    ______ ____
ROOT
ATOM      1  C   UNL     1       1.757   7.653  19.655  0.00  0.00    +0.000 A 
ATOM      2  N   UNL     1       2.207   8.642  18.923  0.00  0.00    +0.000 NA
ATOM      3  N   UNL     1       3.110   8.124  18.030  0.00  0.00    +0.000 NA
ATOM      4  C   UNL     1       3.190   6.811  18.199  0.00  0.00    +0.000 A 
ATOM      5  N   UNL     1       2.338   6.453  19.258  0.00  0.00    +0.000 N 
ENDROOT
BRANCH   4   6
ATOM      6  C   UNL     1       4.021   5.926  17.351  0.00  0.00    +0.000 A 
ATOM      7  C   UNL     1       3.965   4.532  17.536  0.00  0.00    +0.000 A 
ATOM      8  C   UNL     1       4.693   3.664  16.711  0.00  0.00    +0.000 A 
ATOM      9  C   UNL     1       5.469   4.181  15.682  0.00  0.00    +0.000 A 
ATOM     10  F   UNL     1       6.139   3.354  14.871  0.00  0.00    +0.000 F 
ATOM     11  C   UNL     1       5.570   5.550  15.496  0.00  0.00    +0.000 A 
ATOM     12  C   UNL     1       4.887   6.416  16.357  0.00  0.00    +0.000 A 
ENDBRANCH   4   6
BRANCH   5  13
ATOM     13  C   UNL     1       2.106   5.151  19.788  0.00  0.00    +0.000 A 
ATOM     14  C   UNL     1       1.247   4.258  19.132  0.00  0.00    +0.000 A 
ATOM     15  C   UNL     1       0.869   3.067  19.755  0.00  0.00    +0.000 A 
ATOM     16  C   UNL     1       1.394   2.731  21.000  0.00  0.00    +0.000 A 
ATOM     17  C   UNL     1       2.307   3.580  21.622  0.00  0.00    +0.000 A 
ATOM     18  C   UNL     1       2.656   4.793  21.027  0.00  0.00    +0.000 A 
ENDBRANCH   5  13
BRANCH   1  19
ATOM     19  S   UNL     1       0.754   7.826  21.064  0.00  0.00    +0.000 S 
BRANCH  19  20
ATOM     20  C   UNL     1       1.187   9.465  21.704  0.00  0.00    +0.000 C 
BRANCH  20  22
ATOM     21  O   UNL     1      -0.844   9.583  23.049  0.00  0.00    +0.000 OA
ATOM     22  C   UNL     1      -0.064  10.136  22.277  0.00  0.00    +0.000 C 
ATOM     23  N   UNL     1      -0.276  11.434  21.845  0.00  0.00    +0.000 N 
ATOM     24  H   UNL     1       0.322  11.824  21.126  0.00  0.00    +0.000 HD
BRANCH  23  25
ATOM     25  C   UNL     1      -1.459  12.190  22.243  0.00  0.00    +0.000 C 
BRANCH  25  26
ATOM     26  C   UNL     1      -1.897  13.238  21.207  0.00  0.00    +0.000 C 
BRANCH  26  27
ATOM     27  N   UNL     1      -2.876  12.714  20.264  0.00  0.00    +0.000 N 
ATOM     28  C   UNL     1      -2.489  11.999  19.157  0.00  0.00    +0.000 C 
ATOM     29  O   UNL     1      -1.331  11.709  18.881  0.00  0.00    +0.000 OA
ATOM     30  C   UNL     1      -3.664  11.585  18.307  0.00  0.00    +0.000 C 
ATOM     31  S   UNL     1      -5.137  12.086  19.213  0.00  0.00    +0.000 S 
ATOM     32  C   UNL     1      -4.217  12.804  20.514  0.00  0.00    +0.000 C 
ATOM     33  O   UNL     1      -4.751  13.289  21.495  0.00  0.00    +0.000 OA
ENDBRANCH  26  27
ENDBRANCH  25  26
ENDBRANCH  23  25
ENDBRANCH  20  22
ENDBRANCH  19  20
ENDBRANCH   1  19
TORSDOF 8
ENDMDL
MODEL 6
REMARK VINA RESULT:      -7.5      2.569      2.998
REMARK  Name = 
REMARK  8 active torsions:
REMARK  status: ('A' for Active; 'I' for Inactive)
REMARK    1  A    between atoms: C_2  and  C_3
REMARK    2  A    between atoms: C_3  and  S_4
REMARK    3  A    between atoms: S_4  and  C_5
REMARK    4  A    between atoms: C_8  and  C_9
REMARK    5  A    between atoms: N_16  and  C_17
REMARK    6  A    between atoms: N_23  and  C_24
REMARK    7  A    between atoms: C_24  and  C_25
REMARK    8  A    between atoms: C_25  and  N_26
REMARK                            x       y       z     vdW  Elec       q    Type
REMARK                         _______ _______ _______ _____ _____    ______ ____
ROOT
ATOM      1  C   UNL     1       2.443   6.709  19.096  0.00  0.00    +0.000 A 
ATOM      2  N   UNL     1       2.776   7.861  18.568  0.00  0.00    +0.000 NA
ATOM      3  N   UNL     1       3.755   7.626  17.636  0.00  0.00    +0.000 NA
ATOM      4  C   UNL     1       3.998   6.324  17.575  0.00  0.00    +0.000 A 
ATOM      5  N   UNL     1       3.179   5.681  18.518  0.00  0.00    +0.000 N 
ENDROOT
BRANCH   4   6
ATOM      6  C   UNL     1       4.951   5.713  16.620  0.00  0.00    +0.000 A 
ATOM      7  C   UNL     1       4.528   4.649  15.801  0.00  0.00    +0.000 A 
ATOM      8  C   UNL     1       5.387   4.088  14.846  0.00  0.00    +0.000 A 
ATOM      9  C   UNL     1       6.668   4.600  14.686  0.00  0.00    +0.000 A 
ATOM     10  F   UNL     1       7.478   4.090  13.751  0.00  0.00    +0.000 F 
ATOM     11  C   UNL     1       7.123   5.625  15.499  0.00  0.00    +0.000 A 
ATOM     12  C   UNL     1       6.283   6.144  16.491  0.00  0.00    +0.000 A 
ENDBRANCH   4   6
BRANCH   5  13
ATOM     13  C   UNL     1       3.106   4.286  18.802  0.00  0.00    +0.000 A 
ATOM     14  C   UNL     1       4.134   3.648  19.510  0.00  0.00    +0.000 A 
ATOM     15  C   UNL     1       4.155   2.256  19.610  0.00  0.00    +0.000 A 
ATOM     16  C   UNL     1       3.121   1.499  19.062  0.00  0.00    +0.000 A 
ATOM     17  C   UNL     1       2.059   2.133  18.422  0.00  0.00    +0.000 A 
ATOM     18  C   UNL     1       2.052   3.521  18.280  0.00  0.00    +0.000 A 
ENDBRANCH   5  13
BRANCH   1  19
ATOM     19  S   UNL     1       1.400   6.503  20.471  0.00  0.00    +0.000 S 
BRANCH  19  20
ATOM     20  C   UNL     1       1.612   8.040  21.409  0.00  0.00    +0.000 C 
BRANCH  20  22
ATOM     21  O   UNL     1      -0.797   8.248  21.726  0.00  0.00    +0.000 OA
ATOM     22  C   UNL     1       0.278   8.787  21.472  0.00  0.00    +0.000 C 
ATOM     23  N   UNL     1       0.358  10.143  21.199  0.00  0.00    +0.000 N 
ATOM     24  H   UNL     1       1.237  10.537  20.886  0.00  0.00    +0.000 HD
BRANCH  23  25
ATOM     25  C   UNL     1      -0.832  10.985  21.150  0.00  0.00    +0.000 C 
BRANCH  25  26
ATOM     26  C   UNL     1      -0.891  11.896  19.913  0.00  0.00    +0.000 C 
BRANCH  26  27
ATOM     27  N   UNL     1      -1.680  11.318  18.834  0.00  0.00    +0.000 N 
ATOM     28  C   UNL     1      -1.150  10.374  17.988  0.00  0.00    +0.000 C 
ATOM     29  O   UNL     1      -0.018   9.914  18.075  0.00  0.00    +0.000 OA
ATOM     30  C   UNL     1      -2.132   9.943  16.928  0.00  0.00    +0.000 C 
ATOM     31  S   UNL     1      -3.686  10.759  17.326  0.00  0.00    +0.000 S 
ATOM     32  C   UNL     1      -3.011  11.598  18.702  0.00  0.00    +0.000 C 
ATOM     33  O   UNL     1      -3.687  12.311  19.423  0.00  0.00    +0.000 OA
ENDBRANCH  26  27
ENDBRANCH  25  26
ENDBRANCH  23  25
ENDBRANCH  20  22
ENDBRANCH  19  20
ENDBRANCH   1  19
TORSDOF 8
ENDMDL
MODEL 7
REMARK VINA RESULT:      -7.5      2.163      2.615
REMARK  Name = 
REMARK  8 active torsions:
REMARK  status: ('A' for Active; 'I' for Inactive)
REMARK    1  A    between atoms: C_2  and  C_3
REMARK    2  A    between atoms: C_3  and  S_4
REMARK    3  A    between atoms: S_4  and  C_5
REMARK    4  A    between atoms: C_8  and  C_9
REMARK    5  A    between atoms: N_16  and  C_17
REMARK    6  A    between atoms: N_23  and  C_24
REMARK    7  A    between atoms: C_24  and  C_25
REMARK    8  A    between atoms: C_25  and  N_26
REMARK                            x       y       z     vdW  Elec       q    Type
REMARK                         _______ _______ _______ _____ _____    ______ ____
ROOT
ATOM      1  C   UNL     1       1.476   7.668  19.796  0.00  0.00    +0.000 A 
ATOM      2  N   UNL     1       1.942   8.617  19.022  0.00  0.00    +0.000 NA
ATOM      3  N   UNL     1       2.882   8.056  18.195  0.00  0.00    +0.000 NA
ATOM      4  C   UNL     1       2.968   6.757  18.446  0.00  0.00    +0.000 A 
ATOM      5  N   UNL     1       2.082   6.454  19.493  0.00  0.00    +0.000 N 
ENDROOT
BRANCH   4   6
ATOM      6  C   UNL     1       3.837   5.832  17.682  0.00  0.00    +0.000 A 
ATOM      7  C   UNL     1       3.434   4.497  17.492  0.00  0.00    +0.000 A 
ATOM      8  C   UNL     1       4.205   3.613  16.725  0.00  0.00    +0.000 A 
ATOM      9  C   UNL     1       5.375   4.060  16.125  0.00  0.00    +0.000 A 
ATOM     10  F   UNL     1       6.095   3.228  15.364  0.00  0.00    +0.000 F 
ATOM     11  C   UNL     1       5.814   5.360  16.321  0.00  0.00    +0.000 A 
ATOM     12  C   UNL     1       5.072   6.224  17.135  0.00  0.00    +0.000 A 
ENDBRANCH   4   6
BRANCH   5  13
ATOM     13  C   UNL     1       1.844   5.183  20.093  0.00  0.00    +0.000 A 
ATOM     14  C   UNL     1       2.551   4.793  21.239  0.00  0.00    +0.000 A 
ATOM     15  C   UNL     1       2.463   3.479  21.702  0.00  0.00    +0.000 A 
ATOM     16  C   UNL     1       1.622   2.568  21.066  0.00  0.00    +0.000 A 
ATOM     17  C   UNL     1       0.860   2.971  19.972  0.00  0.00    +0.000 A 
ATOM     18  C   UNL     1       0.976   4.270  19.476  0.00  0.00    +0.000 A 
ENDBRANCH   5  13
BRANCH   1  19
ATOM     19  S   UNL     1       0.422   7.914  21.156  0.00  0.00    +0.000 S 
BRANCH  19  20
ATOM     20  C   UNL     1       1.179   9.300  22.045  0.00  0.00    +0.000 C 
BRANCH  20  22
ATOM     21  O   UNL     1      -0.391  10.300  23.621  0.00  0.00    +0.000 OA
ATOM     22  C   UNL     1       0.088  10.278  22.489  0.00  0.00    +0.000 C 
ATOM     23  N   UNL     1      -0.349  11.146  21.503  0.00  0.00    +0.000 N 
ATOM     24  H   UNL     1      -0.015  11.031  20.554  0.00  0.00    +0.000 HD
BRANCH  23  25
ATOM     25  C   UNL     1      -1.432  12.094  21.744  0.00  0.00    +0.000 C 
BRANCH  25  26
ATOM     26  C   UNL     1      -1.663  13.073  20.581  0.00  0.00    +0.000 C 
BRANCH  26  27
ATOM     27  N   UNL     1      -2.268  12.428  19.423  0.00  0.00    +0.000 N 
ATOM     28  C   UNL     1      -1.497  11.909  18.411  0.00  0.00    +0.000 C 
ATOM     29  O   UNL     1      -0.272  11.902  18.398  0.00  0.00    +0.000 OA
ATOM     30  C   UNL     1      -2.333  11.321  17.302  0.00  0.00    +0.000 C 
ATOM     31  S   UNL     1      -4.041  11.413  17.862  0.00  0.00    +0.000 S 
ATOM     32  C   UNL     1      -3.614  12.202  19.362  0.00  0.00    +0.000 C 
ATOM     33  O   UNL     1      -4.444  12.477  20.210  0.00  0.00    +0.000 OA
ENDBRANCH  26  27
ENDBRANCH  25  26
ENDBRANCH  23  25
ENDBRANCH  20  22
ENDBRANCH  19  20
ENDBRANCH   1  19
TORSDOF 8
ENDMDL
MODEL 8
REMARK VINA RESULT:      -7.5      2.690      4.474
REMARK  Name = 
REMARK  8 active torsions:
REMARK  status: ('A' for Active; 'I' for Inactive)
REMARK    1  A    between atoms: C_2  and  C_3
REMARK    2  A    between atoms: C_3  and  S_4
REMARK    3  A    between atoms: S_4  and  C_5
REMARK    4  A    between atoms: C_8  and  C_9
REMARK    5  A    between atoms: N_16  and  C_17
REMARK    6  A    between atoms: N_23  and  C_24
REMARK    7  A    between atoms: C_24  and  C_25
REMARK    8  A    between atoms: C_25  and  N_26
REMARK                            x       y       z     vdW  Elec       q    Type
REMARK                         _______ _______ _______ _____ _____    ______ ____
ROOT
ATOM      1  C   UNL     1       3.998   4.202  18.303  0.00  0.00    +0.000 A 
ATOM      2  N   UNL     1       3.295   3.300  17.664  0.00  0.00    +0.000 NA
ATOM      3  N   UNL     1       3.788   3.215  16.387  0.00  0.00    +0.000 NA
ATOM      4  C   UNL     1       4.812   4.046  16.255  0.00  0.00    +0.000 A 
ATOM      5  N   UNL     1       4.983   4.726  17.473  0.00  0.00    +0.000 N 
ENDROOT
BRANCH   4   6
ATOM      6  C   UNL     1       5.624   4.154  15.022  0.00  0.00    +0.000 A 
ATOM      7  C   UNL     1       5.150   3.586  13.825  0.00  0.00    +0.000 A 
ATOM      8  C   UNL     1       5.866   3.722  12.628  0.00  0.00    +0.000 A 
ATOM      9  C   UNL     1       7.052   4.443  12.613  0.00  0.00    +0.000 A 
ATOM     10  F   UNL     1       7.721   4.604  11.465  0.00  0.00    +0.000 F 
ATOM     11  C   UNL     1       7.561   4.986  13.781  0.00  0.00    +0.000 A 
ATOM     12  C   UNL     1       6.873   4.800  14.985  0.00  0.00    +0.000 A 
ENDBRANCH   4   6
BRANCH   5  13
ATOM     13  C   UNL     1       5.960   5.714  17.789  0.00  0.00    +0.000 A 
ATOM     14  C   UNL     1       5.922   6.975  17.178  0.00  0.00    +0.000 A 
ATOM     15  C   UNL     1       6.987   7.863  17.337  0.00  0.00    +0.000 A 
ATOM     16  C   UNL     1       8.062   7.525  18.156  0.00  0.00    +0.000 A 
ATOM     17  C   UNL     1       8.070   6.304  18.825  0.00  0.00    +0.000 A 
ATOM     18  C   UNL     1       7.030   5.393  18.637  0.00  0.00    +0.000 A 
ENDBRANCH   5  13
BRANCH   1  19
ATOM     19  S   UNL     1       3.628   4.826  19.883  0.00  0.00    +0.000 S 
BRANCH  19  20
ATOM     20  C   UNL     1       3.058   6.515  19.558  0.00  0.00    +0.000 C 
BRANCH  20  22
ATOM     21  O   UNL     1       1.108   5.966  20.916  0.00  0.00    +0.000 OA
ATOM     22  C   UNL     1       1.850   6.825  20.446  0.00  0.00    +0.000 C 
ATOM     23  N   UNL     1       1.629   8.173  20.676  0.00  0.00    +0.000 N 
ATOM     24  H   UNL     1       2.190   8.860  20.187  0.00  0.00    +0.000 HD
BRANCH  23  25
ATOM     25  C   UNL     1       0.481   8.640  21.445  0.00  0.00    +0.000 C 
BRANCH  25  26
ATOM     26  C   UNL     1      -0.335   9.731  20.731  0.00  0.00    +0.000 C 
BRANCH  26  27
ATOM     27  N   UNL     1       0.507  10.782  20.177  0.00  0.00    +0.000 N 
ATOM     28  C   UNL     1       0.983  10.712  18.890  0.00  0.00    +0.000 C 
ATOM     29  O   UNL     1       0.726   9.814  18.098  0.00  0.00    +0.000 OA
ATOM     30  C   UNL     1       1.858  11.889  18.541  0.00  0.00    +0.000 C 
ATOM     31  S   UNL     1       1.783  13.003  19.954  0.00  0.00    +0.000 S 
ATOM     32  C   UNL     1       0.749  11.934  20.871  0.00  0.00    +0.000 C 
ATOM     33  O   UNL     1       0.318  12.234  21.970  0.00  0.00    +0.000 OA
ENDBRANCH  26  27
ENDBRANCH  25  26
ENDBRANCH  23  25
ENDBRANCH  20  22
ENDBRANCH  19  20
ENDBRANCH   1  19
TORSDOF 8
ENDMDL
MODEL 9
REMARK VINA RESULT:      -7.4      1.154      1.347
REMARK  Name = 
REMARK  8 active torsions:
REMARK  status: ('A' for Active; 'I' for Inactive)
REMARK    1  A    between atoms: C_2  and  C_3
REMARK    2  A    between atoms: C_3  and  S_4
REMARK    3  A    between atoms: S_4  and  C_5
REMARK    4  A    between atoms: C_8  and  C_9
REMARK    5  A    between atoms: N_16  and  C_17
REMARK    6  A    between atoms: N_23  and  C_24
REMARK    7  A    between atoms: C_24  and  C_25
REMARK    8  A    between atoms: C_25  and  N_26
REMARK                            x       y       z     vdW  Elec       q    Type
REMARK                         _______ _______ _______ _____ _____    ______ ____
ROOT
ATOM      1  C   UNL     1       1.733   7.639  19.634  0.00  0.00    +0.000 A 
ATOM      2  N   UNL     1       2.164   8.642  18.910  0.00  0.00    +0.000 NA
ATOM      3  N   UNL     1       3.081   8.149  18.018  0.00  0.00    +0.000 NA
ATOM      4  C   UNL     1       3.189   6.837  18.180  0.00  0.00    +0.000 A 
ATOM      5  N   UNL     1       2.340   6.455  19.233  0.00  0.00    +0.000 N 
ENDROOT
BRANCH   4   6
ATOM      6  C   UNL     1       4.042   5.975  17.329  0.00  0.00    +0.000 A 
ATOM      7  C   UNL     1       4.108   4.593  17.586  0.00  0.00    +0.000 A 
ATOM      8  C   UNL     1       4.859   3.741  16.765  0.00  0.00    +0.000 A 
ATOM      9  C   UNL     1       5.534   4.261  15.668  0.00  0.00    +0.000 A 
ATOM     10  F   UNL     1       6.224   3.446  14.862  0.00  0.00    +0.000 F 
ATOM     11  C   UNL     1       5.515   5.622  15.409  0.00  0.00    +0.000 A 
ATOM     12  C   UNL     1       4.811   6.477  16.264  0.00  0.00    +0.000 A 
ENDBRANCH   4   6
BRANCH   5  13
ATOM     13  C   UNL     1       2.135   5.145  19.754  0.00  0.00    +0.000 A 
ATOM     14  C   UNL     1       1.429   4.186  19.014  0.00  0.00    +0.000 A 
ATOM     15  C   UNL     1       1.059   2.978  19.608  0.00  0.00    +0.000 A 
ATOM     16  C   UNL     1       1.446   2.693  20.915  0.00  0.00    +0.000 A 
ATOM     17  C   UNL     1       2.213   3.611  21.629  0.00  0.00    +0.000 A 
ATOM     18  C   UNL     1       2.549   4.839  21.059  0.00  0.00    +0.000 A 
ENDBRANCH   5  13
BRANCH   1  19
ATOM     19  S   UNL     1       0.720   7.783  21.040  0.00  0.00    +0.000 S 
BRANCH  19  20
ATOM     20  C   UNL     1       1.439   9.176  21.950  0.00  0.00    +0.000 C 
BRANCH  20  22
ATOM     21  O   UNL     1      -0.064  10.212  23.567  0.00  0.00    +0.000 OA
ATOM     22  C   UNL     1       0.321  10.119  22.404  0.00  0.00    +0.000 C 
ATOM     23  N   UNL     1      -0.255  10.867  21.391  0.00  0.00    +0.000 N 
ATOM     24  H   UNL     1       0.009  10.690  20.429  0.00  0.00    +0.000 HD
BRANCH  23  25
ATOM     25  C   UNL     1      -1.378  11.763  21.646  0.00  0.00    +0.000 C 
BRANCH  25  26
ATOM     26  C   UNL     1      -1.241  13.132  20.960  0.00  0.00    +0.000 C 
BRANCH  26  27
ATOM     27  N   UNL     1       0.050  13.300  20.306  0.00  0.00    +0.000 N 
ATOM     28  C   UNL     1       0.200  13.087  18.957  0.00  0.00    +0.000 C 
ATOM     29  O   UNL     1      -0.708  12.783  18.192  0.00  0.00    +0.000 OA
ATOM     30  C   UNL     1       1.624  13.285  18.503  0.00  0.00    +0.000 C 
ATOM     31  S   UNL     1       2.526  13.888  19.940  0.00  0.00    +0.000 S 
ATOM     32  C   UNL     1       1.127  13.798  20.984  0.00  0.00    +0.000 C 
ATOM     33  O   UNL     1       1.161  14.158  22.147  0.00  0.00    +0.000 OA
ENDBRANCH  26  27
ENDBRANCH  25  26
ENDBRANCH  23  25
ENDBRANCH  20  22
ENDBRANCH  19  20
ENDBRANCH   1  19
TORSDOF 8
ENDMDL
