MODEL 1
REMARK VINA RESULT:      -7.2      0.000      0.000
REMARK  Name = 
REMARK  7 active torsions:
REMARK  status: ('A' for Active; 'I' for Inactive)
REMARK    1  A    between atoms: C_1  and  C_2
REMARK    2  A    between atoms: C_2  and  O_3
REMARK    3  A    between atoms: O_3  and  C_4
REMARK    4  A    between atoms: C_7  and  N_8
REMARK    5  A    between atoms: N_11  and  C_12
REMARK    6  A    between atoms: C_15  and  N_16
REMARK    7  A    between atoms: C_17  and  C_18
REMARK                            x       y       z     vdW  Elec       q    Type
REMARK                         _______ _______ _______ _____ _____    ______ ____
ROOT
ATOM      1  N   UNL     1       1.222   8.009  21.627  0.00  0.00    +0.000 N 
ATOM      2  C   UNL     1       1.782   7.602  20.430  0.00  0.00    +0.000 C 
ATOM      3  O   UNL     1       1.794   8.271  19.403  0.00  0.00    +0.000 OA
ATOM      4  N   UNL     1       2.304   6.317  20.512  0.00  0.00    +0.000 N 
ATOM      5  H   UNL     1       1.664   7.652  22.460  0.00  0.00    +0.000 HD
ATOM      6  H   UNL     1       1.811   5.702  21.144  0.00  0.00    +0.000 HD
ENDROOT
BRANCH   1  10
ATOM      7  C   UNL     1      -1.143  11.488  22.112  0.00  0.00    +0.000 A 
ATOM      8  C   UNL     1      -0.569  11.200  20.877  0.00  0.00    +0.000 A 
ATOM      9  C   UNL     1       0.193  10.047  20.702  0.00  0.00    +0.000 A 
ATOM     10  C   UNL     1       0.421   9.174  21.766  0.00  0.00    +0.000 A 
ATOM     11  C   UNL     1      -0.170   9.450  23.002  0.00  0.00    +0.000 A 
ATOM     12  C   UNL     1      -0.932  10.615  23.181  0.00  0.00    +0.000 A 
BRANCH   7  13
ATOM     13  O   UNL     1      -1.858  12.650  22.150  0.00  0.00    +0.000 OA
BRANCH  13  15
ATOM     14  C   UNL     1      -0.702  14.542  23.001  0.00  0.00    +0.000 C 
ATOM     15  C   UNL     1      -1.714  13.454  23.317  0.00  0.00    +0.000 C 
ENDBRANCH  13  15
ENDBRANCH   7  13
ENDBRANCH   1  10
BRANCH   4  16
ATOM     16  C   UNL     1       2.950   5.719  19.406  0.00  0.00    +0.000 A 
ATOM     17  C   UNL     1       2.239   4.996  18.447  0.00  0.00    +0.000 A 
ATOM     18  C   UNL     1       2.894   4.407  17.360  0.00  0.00    +0.000 A 
ATOM     19  C   UNL     1       4.275   4.520  17.216  0.00  0.00    +0.000 A 
ATOM     20  C   UNL     1       4.992   5.220  18.196  0.00  0.00    +0.000 A 
ATOM     21  C   UNL     1       4.332   5.844  19.268  0.00  0.00    +0.000 A 
BRANCH  19  22
ATOM     22  N   UNL     1       4.994   3.984  16.125  0.00  0.00    +0.000 N 
ATOM     23  C   UNL     1       5.609   4.696  15.106  0.00  0.00    +0.000 C 
ATOM     24  C   UNL     1       6.379   3.822  14.145  0.00  0.00    +0.000 C 
ATOM     25  O   UNL     1       5.577   5.907  14.929  0.00  0.00    +0.000 OA
ATOM     26  H   UNL     1       5.111   2.979  16.116  0.00  0.00    +0.000 HD
ENDBRANCH  19  22
ENDBRANCH   4  16
TORSDOF 5
ENDMDL
MODEL 2
REMARK VINA RESULT:      -7.2      0.800      1.346
REMARK  Name = 
REMARK  7 active torsions:
REMARK  status: ('A' for Active; 'I' for Inactive)
REMARK    1  A    between atoms: C_1  and  C_2
REMARK    2  A    between atoms: C_2  and  O_3
REMARK    3  A    between atoms: O_3  and  C_4
REMARK    4  A    between atoms: C_7  and  N_8
REMARK    5  A    between atoms: N_11  and  C_12
REMARK    6  A    between atoms: C_15  and  N_16
REMARK    7  A    between atoms: C_17  and  C_18
REMARK                            x       y       z     vdW  Elec       q    Type
REMARK                         _______ _______ _______ _____ _____    ______ ____
ROOT
ATOM      1  N   UNL     1       1.244   8.035  21.694  0.00  0.00    +0.000 N 
ATOM      2  C   UNL     1       1.793   7.634  20.490  0.00  0.00    +0.000 C 
ATOM      3  O   UNL     1       1.823   8.322  19.475  0.00  0.00    +0.000 OA
ATOM      4  N   UNL     1       2.279   6.334  20.548  0.00  0.00    +0.000 N 
ATOM      5  H   UNL     1       1.676   7.650  22.521  0.00  0.00    +0.000 HD
ATOM      6  H   UNL     1       1.769   5.722  21.168  0.00  0.00    +0.000 HD
ENDROOT
BRANCH   1  10
ATOM      7  C   UNL     1      -1.067  11.559  22.102  0.00  0.00    +0.000 A 
ATOM      8  C   UNL     1      -0.971  10.661  23.161  0.00  0.00    +0.000 A 
ATOM      9  C   UNL     1      -0.196   9.509  23.044  0.00  0.00    +0.000 A 
ATOM     10  C   UNL     1       0.475   9.218  21.855  0.00  0.00    +0.000 A 
ATOM     11  C   UNL     1       0.396  10.128  20.797  0.00  0.00    +0.000 A 
ATOM     12  C   UNL     1      -0.390  11.285  20.913  0.00  0.00    +0.000 A 
BRANCH   7  13
ATOM     13  O   UNL     1      -1.863  12.642  22.345  0.00  0.00    +0.000 OA
BRANCH  13  15
ATOM     14  C   UNL     1      -3.899  12.749  23.562  0.00  0.00    +0.000 C 
ATOM     15  C   UNL     1      -3.268  12.448  22.214  0.00  0.00    +0.000 C 
ENDBRANCH  13  15
ENDBRANCH   7  13
ENDBRANCH   1  10
BRANCH   4  16
ATOM     16  C   UNL     1       2.909   5.739  19.431  0.00  0.00    +0.000 A 
ATOM     17  C   UNL     1       2.177   5.057  18.457  0.00  0.00    +0.000 A 
ATOM     18  C   UNL     1       2.817   4.471  17.359  0.00  0.00    +0.000 A 
ATOM     19  C   UNL     1       4.200   4.544  17.219  0.00  0.00    +0.000 A 
ATOM     20  C   UNL     1       4.937   5.203  18.213  0.00  0.00    +0.000 A 
ATOM     21  C   UNL     1       4.294   5.825  19.297  0.00  0.00    +0.000 A 
BRANCH  19  22
ATOM     22  N   UNL     1       4.905   4.009  16.119  0.00  0.00    +0.000 N 
ATOM     23  C   UNL     1       5.580   4.722  15.138  0.00  0.00    +0.000 C 
ATOM     24  C   UNL     1       6.312   3.841  14.155  0.00  0.00    +0.000 C 
ATOM     25  O   UNL     1       5.625   5.939  15.011  0.00  0.00    +0.000 OA
ATOM     26  H   UNL     1       4.961   2.999  16.071  0.00  0.00    +0.000 HD
ENDBRANCH  19  22
ENDBRANCH   4  16
TORSDOF 5
ENDMDL
MODEL 3
REMARK VINA RESULT:      -7.1      7.178     10.427
REMARK  Name = 
REMARK  7 active torsions:
REMARK  status: ('A' for Active; 'I' for Inactive)
REMARK    1  A    between atoms: C_1  and  C_2
REMARK    2  A    between atoms: C_2  and  O_3
REMARK    3  A    between atoms: O_3  and  C_4
REMARK    4  A    between atoms: C_7  and  N_8
REMARK    5  A    between atoms: N_11  and  C_12
REMARK    6  A    between atoms: C_15  and  N_16
REMARK    7  A    between atoms: C_17  and  C_18
REMARK                            x       y       z     vdW  Elec       q    Type
REMARK                         _______ _______ _______ _____ _____    ______ ____
ROOT
ATOM      1  N   UNL     1       8.497   7.636  18.975  0.00  0.00    +0.000 N 
ATOM      2  C   UNL     1       8.506   8.964  18.588  0.00  0.00    +0.000 C 
ATOM      3  O   UNL     1       7.690   9.473  17.828  0.00  0.00    +0.000 OA
ATOM      4  N   UNL     1       9.581   9.656  19.134  0.00  0.00    +0.000 N 
ATOM      5  H   UNL     1       8.855   7.448  19.900  0.00  0.00    +0.000 HD
ATOM      6  H   UNL     1      10.413   9.100  19.270  0.00  0.00    +0.000 HD
ENDROOT
BRANCH   1  10
ATOM      7  C   UNL     1       5.950   4.698  17.300  0.00  0.00    +0.000 A 
ATOM      8  C   UNL     1       6.513   5.678  16.489  0.00  0.00    +0.000 A 
ATOM      9  C   UNL     1       7.370   6.637  17.027  0.00  0.00    +0.000 A 
ATOM     10  C   UNL     1       7.656   6.651  18.392  0.00  0.00    +0.000 A 
ATOM     11  C   UNL     1       7.108   5.656  19.206  0.00  0.00    +0.000 A 
ATOM     12  C   UNL     1       6.239   4.694  18.665  0.00  0.00    +0.000 A 
BRANCH   7  13
ATOM     13  O   UNL     1       5.125   3.826  16.650  0.00  0.00    +0.000 OA
BRANCH  13  15
ATOM     14  C   UNL     1       3.437   2.506  17.674  0.00  0.00    +0.000 C 
ATOM     15  C   UNL     1       3.751   3.843  17.023  0.00  0.00    +0.000 C 
ENDBRANCH  13  15
ENDBRANCH   7  13
ENDBRANCH   1  10
BRANCH   4  16
ATOM     16  C   UNL     1       9.761  11.036  18.888  0.00  0.00    +0.000 A 
ATOM     17  C   UNL     1       9.271  12.005  19.765  0.00  0.00    +0.000 A 
ATOM     18  C   UNL     1       9.454  13.367  19.504  0.00  0.00    +0.000 A 
ATOM     19  C   UNL     1      10.121  13.789  18.357  0.00  0.00    +0.000 A 
ATOM     20  C   UNL     1      10.587  12.816  17.461  0.00  0.00    +0.000 A 
ATOM     21  C   UNL     1      10.437  11.446  17.739  0.00  0.00    +0.000 A 
BRANCH  19  22
ATOM     22  N   UNL     1      10.374  15.144  18.052  0.00  0.00    +0.000 N 
ATOM     23  C   UNL     1       9.433  16.115  17.743  0.00  0.00    +0.000 C 
ATOM     24  C   UNL     1      10.029  17.490  17.563  0.00  0.00    +0.000 C 
ATOM     25  O   UNL     1       8.226  15.957  17.609  0.00  0.00    +0.000 OA
ATOM     26  H   UNL     1      11.339  15.444  18.112  0.00  0.00    +0.000 HD
ENDBRANCH  19  22
ENDBRANCH   4  16
TORSDOF 5
ENDMDL
MODEL 4
REMARK VINA RESULT:      -7.1      6.982     10.800
REMARK  Name = 
REMARK  7 active torsions:
REMARK  status: ('A' for Active; 'I' for Inactive)
REMARK    1  A    between atoms: C_1  and  C_2
REMARK    2  A    between atoms: C_2  and  O_3
REMARK    3  A    between atoms: O_3  and  C_4
REMARK    4  A    between atoms: C_7  and  N_8
REMARK    5  A    between atoms: N_11  and  C_12
REMARK    6  A    between atoms: C_15  and  N_16
REMARK    7  A    between atoms: C_17  and  C_18
REMARK                            x       y       z     vdW  Elec       q    Type
REMARK                         _______ _______ _______ _____ _____    ______ ____
ROOT
ATOM      1  N   UNL     1       7.779   7.057  18.285  0.00  0.00    +0.000 N 
ATOM      2  C   UNL     1       8.090   8.398  18.154  0.00  0.00    +0.000 C 
ATOM      3  O   UNL     1       7.689   9.120  17.247  0.00  0.00    +0.000 OA
ATOM      4  N   UNL     1       8.949   8.832  19.156  0.00  0.00    +0.000 N 
ATOM      5  H   UNL     1       7.733   6.709  19.231  0.00  0.00    +0.000 HD
ATOM      6  H   UNL     1       9.596   8.131  19.487  0.00  0.00    +0.000 HD
ENDROOT
BRANCH   1  10
ATOM      7  C   UNL     1       5.772   4.865  15.269  0.00  0.00    +0.000 A 
ATOM      8  C   UNL     1       6.967   4.389  15.799  0.00  0.00    +0.000 A 
ATOM      9  C   UNL     1       7.624   5.093  16.807  0.00  0.00    +0.000 A 
ATOM     10  C   UNL     1       7.113   6.300  17.283  0.00  0.00    +0.000 A 
ATOM     11  C   UNL     1       5.904   6.771  16.767  0.00  0.00    +0.000 A 
ATOM     12  C   UNL     1       5.245   6.066  15.746  0.00  0.00    +0.000 A 
BRANCH   7  13
ATOM     13  O   UNL     1       5.236   4.086  14.284  0.00  0.00    +0.000 OA
BRANCH  13  15
ATOM     14  C   UNL     1       5.229   3.271  12.053  0.00  0.00    +0.000 C 
ATOM     15  C   UNL     1       6.101   3.722  13.212  0.00  0.00    +0.000 C 
ENDBRANCH  13  15
ENDBRANCH   7  13
ENDBRANCH   1  10
BRANCH   4  16
ATOM     16  C   UNL     1       9.369  10.180  19.224  0.00  0.00    +0.000 A 
ATOM     17  C   UNL     1       9.825  10.862  18.095  0.00  0.00    +0.000 A 
ATOM     18  C   UNL     1      10.240  12.195  18.180  0.00  0.00    +0.000 A 
ATOM     19  C   UNL     1      10.221  12.869  19.399  0.00  0.00    +0.000 A 
ATOM     20  C   UNL     1       9.792  12.174  20.538  0.00  0.00    +0.000 A 
ATOM     21  C   UNL     1       9.338  10.847  20.448  0.00  0.00    +0.000 A 
BRANCH  19  22
ATOM     22  N   UNL     1      10.590  14.224  19.549  0.00  0.00    +0.000 N 
ATOM     23  C   UNL     1       9.753  15.327  19.459  0.00  0.00    +0.000 C 
ATOM     24  C   UNL     1      10.448  16.631  19.769  0.00  0.00    +0.000 C 
ATOM     25  O   UNL     1       8.566  15.330  19.162  0.00  0.00    +0.000 OA
ATOM     26  H   UNL     1      11.555  14.400  19.796  0.00  0.00    +0.000 HD
ENDBRANCH  19  22
ENDBRANCH   4  16
TORSDOF 5
ENDMDL
MODEL 5
REMARK VINA RESULT:      -7.1      0.824      1.344
REMARK  Name = 
REMARK  7 active torsions:
REMARK  status: ('A' for Active; 'I' for Inactive)
REMARK    1  A    between atoms: C_1  and  C_2
REMARK    2  A    between atoms: C_2  and  O_3
REMARK    3  A    between atoms: O_3  and  C_4
REMARK    4  A    between atoms: C_7  and  N_8
REMARK    5  A    between atoms: N_11  and  C_12
REMARK    6  A    between atoms: C_15  and  N_16
REMARK    7  A    between atoms: C_17  and  C_18
REMARK                            x       y       z     vdW  Elec       q    Type
REMARK                         _______ _______ _______ _____ _____    ______ ____
ROOT
ATOM      1  N   UNL     1       1.086   7.962  21.654  0.00  0.00    +0.000 N 
ATOM      2  C   UNL     1       1.760   7.614  20.497  0.00  0.00    +0.000 C 
ATOM      3  O   UNL     1       1.904   8.350  19.527  0.00  0.00    +0.000 OA
ATOM      4  N   UNL     1       2.229   6.307  20.543  0.00  0.00    +0.000 N 
ATOM      5  H   UNL     1       1.424   7.533  22.502  0.00  0.00    +0.000 HD
ATOM      6  H   UNL     1       1.651   5.671  21.074  0.00  0.00    +0.000 HD
ENDROOT
BRANCH   1  10
ATOM      7  C   UNL     1      -1.195  11.498  22.125  0.00  0.00    +0.000 A 
ATOM      8  C   UNL     1      -0.699  11.148  20.872  0.00  0.00    +0.000 A 
ATOM      9  C   UNL     1       0.035   9.976  20.703  0.00  0.00    +0.000 A 
ATOM     10  C   UNL     1       0.312   9.145  21.789  0.00  0.00    +0.000 A 
ATOM     11  C   UNL     1      -0.201   9.483  23.044  0.00  0.00    +0.000 A 
ATOM     12  C   UNL     1      -0.935  10.668  23.216  0.00  0.00    +0.000 A 
BRANCH   7  13
ATOM     13  O   UNL     1      -1.889  12.673  22.154  0.00  0.00    +0.000 OA
BRANCH  13  15
ATOM     14  C   UNL     1      -3.879  12.816  23.442  0.00  0.00    +0.000 C 
ATOM     15  C   UNL     1      -3.308  12.582  22.054  0.00  0.00    +0.000 C 
ENDBRANCH  13  15
ENDBRANCH   7  13
ENDBRANCH   1  10
BRANCH   4  16
ATOM     16  C   UNL     1       2.972   5.759  19.472  0.00  0.00    +0.000 A 
ATOM     17  C   UNL     1       4.366   5.827  19.440  0.00  0.00    +0.000 A 
ATOM     18  C   UNL     1       5.086   5.284  18.371  0.00  0.00    +0.000 A 
ATOM     19  C   UNL     1       4.428   4.672  17.307  0.00  0.00    +0.000 A 
ATOM     20  C   UNL     1       3.026   4.631  17.326  0.00  0.00    +0.000 A 
ATOM     21  C   UNL     1       2.302   5.143  18.416  0.00  0.00    +0.000 A 
BRANCH  19  22
ATOM     22  N   UNL     1       5.092   4.070  16.217  0.00  0.00    +0.000 N 
ATOM     23  C   UNL     1       5.589   4.712  15.091  0.00  0.00    +0.000 C 
ATOM     24  C   UNL     1       6.333   3.789  14.156  0.00  0.00    +0.000 C 
ATOM     25  O   UNL     1       5.477   5.897  14.808  0.00  0.00    +0.000 OA
ATOM     26  H   UNL     1       5.264   3.076  16.290  0.00  0.00    +0.000 HD
ENDBRANCH  19  22
ENDBRANCH   4  16
TORSDOF 5
ENDMDL
MODEL 6
REMARK VINA RESULT:      -7.0      3.007      9.697
REMARK  Name = 
REMARK  7 active torsions:
REMARK  status: ('A' for Active; 'I' for Inactive)
REMARK    1  A    between atoms: C_1  and  C_2
REMARK    2  A    between atoms: C_2  and  O_3
REMARK    3  A    between atoms: O_3  and  C_4
REMARK    4  A    between atoms: C_7  and  N_8
REMARK    5  A    between atoms: N_11  and  C_12
REMARK    6  A    between atoms: C_15  and  N_16
REMARK    7  A    between atoms: C_17  and  C_18
REMARK                            x       y       z     vdW  Elec       q    Type
REMARK                         _______ _______ _______ _____ _____    ______ ____
ROOT
ATOM      1  N   UNL     1       2.219   7.563  18.957  0.00  0.00    +0.000 N 
ATOM      2  C   UNL     1       1.810   8.790  18.466  0.00  0.00    +0.000 C 
ATOM      3  O   UNL     1       1.900   9.136  17.294  0.00  0.00    +0.000 OA
ATOM      4  N   UNL     1       1.314   9.611  19.472  0.00  0.00    +0.000 N 
ATOM      5  H   UNL     1       1.692   7.208  19.742  0.00  0.00    +0.000 HD
ATOM      6  H   UNL     1       1.746   9.478  20.375  0.00  0.00    +0.000 HD
ENDROOT
BRANCH   1  10
ATOM      7  C   UNL     1       4.521   4.796  16.727  0.00  0.00    +0.000 A 
ATOM      8  C   UNL     1       3.344   4.385  17.347  0.00  0.00    +0.000 A 
ATOM      9  C   UNL     1       2.568   5.294  18.066  0.00  0.00    +0.000 A 
ATOM     10  C   UNL     1       2.970   6.623  18.202  0.00  0.00    +0.000 A 
ATOM     11  C   UNL     1       4.141   7.042  17.565  0.00  0.00    +0.000 A 
ATOM     12  C   UNL     1       4.926   6.126  16.847  0.00  0.00    +0.000 A 
BRANCH   7  13
ATOM     13  O   UNL     1       5.188   3.807  16.063  0.00  0.00    +0.000 OA
BRANCH  13  15
ATOM     14  C   UNL     1       6.216   4.054  13.937  0.00  0.00    +0.000 C 
ATOM     15  C   UNL     1       6.416   4.169  15.438  0.00  0.00    +0.000 C 
ENDBRANCH  13  15
ENDBRANCH   7  13
ENDBRANCH   1  10
BRANCH   4  16
ATOM     16  C   UNL     1       0.814  10.901  19.180  0.00  0.00    +0.000 A 
ATOM     17  C   UNL     1      -0.555  11.172  19.182  0.00  0.00    +0.000 A 
ATOM     18  C   UNL     1      -1.034  12.453  18.888  0.00  0.00    +0.000 A 
ATOM     19  C   UNL     1      -0.154  13.486  18.574  0.00  0.00    +0.000 A 
ATOM     20  C   UNL     1       1.219  13.206  18.543  0.00  0.00    +0.000 A 
ATOM     21  C   UNL     1       1.704  11.929  18.875  0.00  0.00    +0.000 A 
BRANCH  19  22
ATOM     22  N   UNL     1      -0.565  14.810  18.305  0.00  0.00    +0.000 N 
ATOM     23  C   UNL     1      -0.333  15.928  19.093  0.00  0.00    +0.000 C 
ATOM     24  C   UNL     1      -0.824  17.212  18.469  0.00  0.00    +0.000 C 
ATOM     25  O   UNL     1       0.203  15.957  20.193  0.00  0.00    +0.000 OA
ATOM     26  H   UNL     1      -1.036  14.962  17.422  0.00  0.00    +0.000 HD
ENDBRANCH  19  22
ENDBRANCH   4  16
TORSDOF 5
ENDMDL
MODEL 7
REMARK VINA RESULT:      -7.0      2.942      9.634
REMARK  Name = 
REMARK  7 active torsions:
REMARK  status: ('A' for Active; 'I' for Inactive)
REMARK    1  A    between atoms: C_1  and  C_2
REMARK    2  A    between atoms: C_2  and  O_3
REMARK    3  A    between atoms: O_3  and  C_4
REMARK    4  A    between atoms: C_7  and  N_8
REMARK    5  A    between atoms: N_11  and  C_12
REMARK    6  A    between atoms: C_15  and  N_16
REMARK    7  A    between atoms: C_17  and  C_18
REMARK                            x       y       z     vdW  Elec       q    Type
REMARK                         _______ _______ _______ _____ _____    ______ ____
ROOT
ATOM      1  N   UNL     1       2.145   7.516  19.072  0.00  0.00    +0.000 N 
ATOM      2  C   UNL     1       1.764   8.742  18.557  0.00  0.00    +0.000 C 
ATOM      3  O   UNL     1       1.865   9.064  17.378  0.00  0.00    +0.000 OA
ATOM      4  N   UNL     1       1.283   9.593  19.545  0.00  0.00    +0.000 N 
ATOM      5  H   UNL     1       1.609   7.189  19.861  0.00  0.00    +0.000 HD
ATOM      6  H   UNL     1       1.710   9.469  20.451  0.00  0.00    +0.000 HD
ENDROOT
BRANCH   1  10
ATOM      7  C   UNL     1       4.263   4.593  16.860  0.00  0.00    +0.000 A 
ATOM      8  C   UNL     1       4.778   5.880  16.988  0.00  0.00    +0.000 A 
ATOM      9  C   UNL     1       4.098   6.843  17.732  0.00  0.00    +0.000 A 
ATOM     10  C   UNL     1       2.877   6.546  18.337  0.00  0.00    +0.000 A 
ATOM     11  C   UNL     1       2.368   5.250  18.226  0.00  0.00    +0.000 A 
ATOM     12  C   UNL     1       3.049   4.281  17.472  0.00  0.00    +0.000 A 
BRANCH   7  13
ATOM     13  O   UNL     1       5.023   3.751  16.100  0.00  0.00    +0.000 OA
BRANCH  13  15
ATOM     14  C   UNL     1       6.173   4.012  14.039  0.00  0.00    +0.000 C 
ATOM     15  C   UNL     1       6.210   4.295  15.531  0.00  0.00    +0.000 C 
ENDBRANCH  13  15
ENDBRANCH   7  13
ENDBRANCH   1  10
BRANCH   4  16
ATOM     16  C   UNL     1       0.813  10.888  19.227  0.00  0.00    +0.000 A 
ATOM     17  C   UNL     1      -0.551  11.161  19.106  0.00  0.00    +0.000 A 
ATOM     18  C   UNL     1      -1.000  12.447  18.788  0.00  0.00    +0.000 A 
ATOM     19  C   UNL     1      -0.095  13.484  18.572  0.00  0.00    +0.000 A 
ATOM     20  C   UNL     1       1.275  13.202  18.664  0.00  0.00    +0.000 A 
ATOM     21  C   UNL     1       1.728  11.920  19.021  0.00  0.00    +0.000 A 
BRANCH  19  22
ATOM     22  N   UNL     1      -0.480  14.811  18.286  0.00  0.00    +0.000 N 
ATOM     23  C   UNL     1      -0.479  15.884  19.166  0.00  0.00    +0.000 C 
ATOM     24  C   UNL     1      -0.856  17.193  18.513  0.00  0.00    +0.000 C 
ATOM     25  O   UNL     1      -0.216  15.858  20.361  0.00  0.00    +0.000 OA
ATOM     26  H   UNL     1      -0.736  15.006  17.326  0.00  0.00    +0.000 HD
ENDBRANCH  19  22
ENDBRANCH   4  16
TORSDOF 5
ENDMDL
MODEL 8
REMARK VINA RESULT:      -7.0      7.197     10.508
REMARK  Name = 
REMARK  7 active torsions:
REMARK  status: ('A' for Active; 'I' for Inactive)
REMARK    1  A    between atoms: C_1  and  C_2
REMARK    2  A    between atoms: C_2  and  O_3
REMARK    3  A    between atoms: O_3  and  C_4
REMARK    4  A    between atoms: C_7  and  N_8
REMARK    5  A    between atoms: N_11  and  C_12
REMARK    6  A    between atoms: C_15  and  N_16
REMARK    7  A    between atoms: C_17  and  C_18
REMARK                            x       y       z     vdW  Elec       q    Type
REMARK                         _______ _______ _______ _____ _____    ______ ____
ROOT
ATOM      1  N   UNL     1       8.512   7.658  18.976  0.00  0.00    +0.000 N 
ATOM      2  C   UNL     1       8.518   8.988  18.596  0.00  0.00    +0.000 C 
ATOM      3  O   UNL     1       7.698   9.501  17.844  0.00  0.00    +0.000 OA
ATOM      4  N   UNL     1       9.595   9.677  19.140  0.00  0.00    +0.000 N 
ATOM      5  H   UNL     1       8.874   7.465  19.897  0.00  0.00    +0.000 HD
ATOM      6  H   UNL     1      10.429   9.122  19.269  0.00  0.00    +0.000 HD
ENDROOT
BRANCH   1  10
ATOM      7  C   UNL     1       6.036   4.734  17.172  0.00  0.00    +0.000 A 
ATOM      8  C   UNL     1       6.309   4.674  18.536  0.00  0.00    +0.000 A 
ATOM      9  C   UNL     1       7.105   5.643  19.143  0.00  0.00    +0.000 A 
ATOM     10  C   UNL     1       7.668   6.676  18.392  0.00  0.00    +0.000 A 
ATOM     11  C   UNL     1       7.380   6.751  17.027  0.00  0.00    +0.000 A 
ATOM     12  C   UNL     1       6.584   5.770  16.414  0.00  0.00    +0.000 A 
BRANCH   7  13
ATOM     13  O   UNL     1       5.251   3.721  16.704  0.00  0.00    +0.000 OA
BRANCH  13  15
ATOM     14  C   UNL     1       3.468   2.517  17.709  0.00  0.00    +0.000 C 
ATOM     15  C   UNL     1       3.859   3.800  16.997  0.00  0.00    +0.000 C 
ENDBRANCH  13  15
ENDBRANCH   7  13
ENDBRANCH   1  10
BRANCH   4  16
ATOM     16  C   UNL     1       9.773  11.059  18.901  0.00  0.00    +0.000 A 
ATOM     17  C   UNL     1       9.295  12.023  19.790  0.00  0.00    +0.000 A 
ATOM     18  C   UNL     1       9.476  13.387  19.536  0.00  0.00    +0.000 A 
ATOM     19  C   UNL     1      10.129  13.815  18.383  0.00  0.00    +0.000 A 
ATOM     20  C   UNL     1      10.583  12.847  17.476  0.00  0.00    +0.000 A 
ATOM     21  C   UNL     1      10.436  11.477  17.746  0.00  0.00    +0.000 A 
BRANCH  19  22
ATOM     22  N   UNL     1      10.380  15.172  18.084  0.00  0.00    +0.000 N 
ATOM     23  C   UNL     1       9.439  16.137  17.754  0.00  0.00    +0.000 C 
ATOM     24  C   UNL     1      10.030  17.516  17.587  0.00  0.00    +0.000 C 
ATOM     25  O   UNL     1       8.237  15.970  17.592  0.00  0.00    +0.000 OA
ATOM     26  H   UNL     1      11.341  15.479  18.167  0.00  0.00    +0.000 HD
ENDBRANCH  19  22
ENDBRANCH   4  16
TORSDOF 5
ENDMDL
MODEL 9
REMARK VINA RESULT:      -7.0      2.630      9.948
REMARK  Name = 
REMARK  7 active torsions:
REMARK  status: ('A' for Active; 'I' for Inactive)
REMARK    1  A    between atoms: C_1  and  C_2
REMARK    2  A    between atoms: C_2  and  O_3
REMARK    3  A    between atoms: O_3  and  C_4
REMARK    4  A    between atoms: C_7  and  N_8
REMARK    5  A    between atoms: N_11  and  C_12
REMARK    6  A    between atoms: C_15  and  N_16
REMARK    7  A    between atoms: C_17  and  C_18
REMARK                            x       y       z     vdW  Elec       q    Type
REMARK                         _______ _______ _______ _____ _____    ______ ____
ROOT
ATOM      1  N   UNL     1       1.762   8.144  21.099  0.00  0.00    +0.000 N 
ATOM      2  C   UNL     1       0.613   8.914  21.103  0.00  0.00    +0.000 C 
ATOM      3  O   UNL     1      -0.405   8.649  20.473  0.00  0.00    +0.000 OA
ATOM      4  N   UNL     1       0.757  10.055  21.882  0.00  0.00    +0.000 N 
ATOM      5  H   UNL     1       2.301   8.159  21.951  0.00  0.00    +0.000 HD
ATOM      6  H   UNL     1       1.692  10.435  21.902  0.00  0.00    +0.000 HD
ENDROOT
BRANCH   1  10
ATOM      7  C   UNL     1       2.341   4.856  18.494  0.00  0.00    +0.000 A 
ATOM      8  C   UNL     1       2.646   6.146  18.069  0.00  0.00    +0.000 A 
ATOM      9  C   UNL     1       2.479   7.232  18.926  0.00  0.00    +0.000 A 
ATOM     10  C   UNL     1       1.976   7.052  20.215  0.00  0.00    +0.000 A 
ATOM     11  C   UNL     1       1.687   5.757  20.651  0.00  0.00    +0.000 A 
ATOM     12  C   UNL     1       1.849   4.663  19.785  0.00  0.00    +0.000 A 
BRANCH   7  13
ATOM     13  O   UNL     1       2.543   3.886  17.555  0.00  0.00    +0.000 OA
BRANCH  13  15
ATOM     14  C   UNL     1       3.436   1.756  18.112  0.00  0.00    +0.000 C 
ATOM     15  C   UNL     1       3.767   3.160  17.636  0.00  0.00    +0.000 C 
ENDBRANCH  13  15
ENDBRANCH   7  13
ENDBRANCH   1  10
BRANCH   4  16
ATOM     16  C   UNL     1      -0.312  10.967  22.046  0.00  0.00    +0.000 A 
ATOM     17  C   UNL     1      -0.518  12.020  21.153  0.00  0.00    +0.000 A 
ATOM     18  C   UNL     1      -1.578  12.915  21.332  0.00  0.00    +0.000 A 
ATOM     19  C   UNL     1      -2.446  12.782  22.413  0.00  0.00    +0.000 A 
ATOM     20  C   UNL     1      -2.220  11.742  23.326  0.00  0.00    +0.000 A 
ATOM     21  C   UNL     1      -1.179  10.820  23.128  0.00  0.00    +0.000 A 
BRANCH  19  22
ATOM     22  N   UNL     1      -3.557  13.626  22.633  0.00  0.00    +0.000 N 
ATOM     23  C   UNL     1      -4.893  13.308  22.432  0.00  0.00    +0.000 C 
ATOM     24  C   UNL     1      -5.839  14.406  22.857  0.00  0.00    +0.000 C 
ATOM     25  O   UNL     1      -5.342  12.271  21.963  0.00  0.00    +0.000 OA
ATOM     26  H   UNL     1      -3.357  14.538  23.021  0.00  0.00    +0.000 HD
ENDBRANCH  19  22
ENDBRANCH   4  16
TORSDOF 5
ENDMDL
