MODEL 1
REMARK VINA RESULT:      -7.6      0.000      0.000
REMARK  Name = 
REMARK  17 active torsions:
REMARK  status: ('A' for Active; 'I' for Inactive)
REMARK    1  A    between atoms: C_1  and  C_2
REMARK    2  A    between atoms: C_2  and  C_3
REMARK    3  A    between atoms: C_5  and  O_6
REMARK    4  A    between atoms: C_10  and  C_11
REMARK    5  A    between atoms: C_13  and  N_14
REMARK    6  A    between atoms: N_14  and  CA_15
REMARK    7  A    between atoms: CA_15  and  CB_16
REMARK    8  A    between atoms: CA_15  and  C_17
REMARK    9  A    between atoms: C_17  and  O_18
REMARK   10  A    between atoms: N_22  and  C_23
REMARK   11  A    between atoms: C_23  and  C_24
REMARK   12  A    between atoms: C_24  and  O_25
REMARK   13  A    between atoms: O_25  and  C_26
REMARK   14  A    between atoms: C_26  and  C_27
REMARK   15  A    between atoms: C_27  and  N_28
REMARK   16  A    between atoms: N_28  and  C_29
REMARK   17  A    between atoms: N_28  and  C_30
REMARK                            x       y       z     vdW  Elec       q    Type
REMARK                         _______ _______ _______ _____ _____    ______ ____
ROOT
ATOM      1  C   UNK A   0       4.245   6.199  17.496  0.00  0.00    +0.000 A 
ATOM      2  C   UNK A   0       3.899   5.479  18.647  0.00  0.00    +0.000 A 
ATOM      3  C   UNK A   0       3.038   5.966  19.632  0.00  0.00    +0.000 A 
ATOM      4  C   UNK A   0       2.420   7.221  19.437  0.00  0.00    +0.000 A 
ATOM      5  N   UNK A   0       1.538   7.706  20.309  0.00  0.00    +0.000 NA
ATOM      6  C   UNK A   0       0.956   8.894  20.059  0.00  0.00    +0.000 A 
ATOM      7  N   UNK A   0      -0.030   9.364  20.895  0.00  0.00    +0.000 N 
ATOM      8  N   UNK A   0       1.239   9.665  19.005  0.00  0.00    +0.000 NA
ATOM      9  C   UNK A   0       2.122   9.171  18.128  0.00  0.00    +0.000 A 
ATOM     10  C   UNK A   0       2.743   7.942  18.274  0.00  0.00    +0.000 A 
ATOM     11  C   UNK A   0       3.613   7.431  17.327  0.00  0.00    +0.000 A 
ATOM     12  H   UNK A   0      -0.162  10.357  20.707  0.00  0.00    +0.000 HD
ENDROOT
BRANCH   1  19
ATOM     13  C   UNK A   0       6.605   5.762  16.610  0.00  0.00    +0.000 A 
ATOM     14  C   UNK A   0       7.413   5.293  15.553  0.00  0.00    +0.000 A 
ATOM     15  C   UNK A   0       6.861   4.648  14.468  0.00  0.00    +0.000 A 
ATOM     16  C   UNK A   0       5.491   4.474  14.391  0.00  0.00    +0.000 A 
ATOM     17  F   UNK A   0       4.937   3.833  13.347  0.00  0.00    +0.000 F 
ATOM     18  C   UNK A   0       4.669   4.981  15.378  0.00  0.00    +0.000 A 
ATOM     19  C   UNK A   0       5.195   5.654  16.505  0.00  0.00    +0.000 A 
BRANCH  13  21
ATOM     20  C   UNK A   0       7.687   7.838  17.628  0.00  0.00    +0.000 C 
ATOM     21  C   UNK A   0       7.298   6.383  17.815  0.00  0.00    +0.000 C 
ENDBRANCH  13  21
BRANCH  15  22
ATOM     22  O   UNK A   0       7.648   4.159  13.464  0.00  0.00    +0.000 OA
ATOM     23  H   UNK A   0       8.232   3.474  13.826  0.00  0.00    +0.000 HD
ENDBRANCH  15  22
ENDBRANCH   1  19
BRANCH   3  24
ATOM     24  N   ALA A   1       2.757   5.220  20.773  0.00  0.00    +0.000 N 
ATOM     25  H   ALA A   1       3.391   5.387  21.558  0.00  0.00    +0.000 HD
BRANCH  24  26
ATOM     26  CA  ALA A   1       1.636   4.285  20.933  0.00  0.00    +0.000 C 
ATOM     27  CB  ALA A   1       1.165   3.765  19.575  0.00  0.00    +0.000 C 
BRANCH  26  28
ATOM     28  C   ALA A   1       2.055   3.085  21.814  0.00  0.00    +0.000 C 
BRANCH  28  29
ATOM     29  O   ALA A   1       3.300   2.528  21.393  0.00  0.00    +0.000 OA
ATOM     30  H   ALA A   1       3.959   2.810  22.046  0.00  0.00    +0.000 HD
ENDBRANCH  28  29
ENDBRANCH  26  28
ENDBRANCH  24  26
ENDBRANCH   3  24
BRANCH   7  31
ATOM     31  C   UNK A   0       0.082   9.014  22.305  0.00  0.00    +0.000 C 
BRANCH  31  32
ATOM     32  C   UNK A   0      -0.654  10.009  23.195  0.00  0.00    +0.000 C 
BRANCH  32  33
ATOM     33  O   UNK A   0      -0.277  11.352  22.847  0.00  0.00    +0.000 OA
BRANCH  33  34
ATOM     34  C   UNK A   0      -1.410  12.215  22.968  0.00  0.00    +0.000 C 
BRANCH  34  35
ATOM     35  C   UNK A   0      -2.094  12.400  21.608  0.00  0.00    +0.000 C 
BRANCH  35  36
ATOM     36  N   UNK A   0      -1.157  12.302  20.471  0.00  0.00    +0.000 NA
ATOM     37  C   UNK A   0      -1.830  11.894  19.235  0.00  0.00    +0.000 C 
ATOM     38  C   UNK A   0      -0.484  13.586  20.262  0.00  0.00    +0.000 C 
ENDBRANCH  35  36
ENDBRANCH  34  35
ENDBRANCH  33  34
ENDBRANCH  32  33
ENDBRANCH  31  32
ENDBRANCH   7  31
TORSDOF 13
ENDMDL
MODEL 2
REMARK VINA RESULT:      -7.4      1.125      1.497
REMARK  Name = 
REMARK  17 active torsions:
REMARK  status: ('A' for Active; 'I' for Inactive)
REMARK    1  A    between atoms: C_1  and  C_2
REMARK    2  A    between atoms: C_2  and  C_3
REMARK    3  A    between atoms: C_5  and  O_6
REMARK    4  A    between atoms: C_10  and  C_11
REMARK    5  A    between atoms: C_13  and  N_14
REMARK    6  A    between atoms: N_14  and  CA_15
REMARK    7  A    between atoms: CA_15  and  CB_16
REMARK    8  A    between atoms: CA_15  and  C_17
REMARK    9  A    between atoms: C_17  and  O_18
REMARK   10  A    between atoms: N_22  and  C_23
REMARK   11  A    between atoms: C_23  and  C_24
REMARK   12  A    between atoms: C_24  and  O_25
REMARK   13  A    between atoms: O_25  and  C_26
REMARK   14  A    between atoms: C_26  and  C_27
REMARK   15  A    between atoms: C_27  and  N_28
REMARK   16  A    between atoms: N_28  and  C_29
REMARK   17  A    between atoms: N_28  and  C_30
REMARK                            x       y       z     vdW  Elec       q    Type
REMARK                         _______ _______ _______ _____ _____    ______ ____
ROOT
ATOM      1  C   UNK A   0       4.173   6.344  17.646  0.00  0.00    +0.000 A 
ATOM      2  C   UNK A   0       3.841   5.633  18.807  0.00  0.00    +0.000 A 
ATOM      3  C   UNK A   0       2.955   6.109  19.776  0.00  0.00    +0.000 A 
ATOM      4  C   UNK A   0       2.298   7.339  19.554  0.00  0.00    +0.000 A 
ATOM      5  N   UNK A   0       1.393   7.810  20.410  0.00  0.00    +0.000 NA
ATOM      6  C   UNK A   0       0.774   8.973  20.133  0.00  0.00    +0.000 A 
ATOM      7  N   UNK A   0      -0.235   9.426  20.953  0.00  0.00    +0.000 N 
ATOM      8  N   UNK A   0       1.041   9.735  19.068  0.00  0.00    +0.000 NA
ATOM      9  C   UNK A   0       1.947   9.255  18.207  0.00  0.00    +0.000 A 
ATOM     10  C   UNK A   0       2.607   8.049  18.380  0.00  0.00    +0.000 A 
ATOM     11  C   UNK A   0       3.502   7.551  17.450  0.00  0.00    +0.000 A 
ATOM     12  H   UNK A   0      -0.397  10.409  20.746  0.00  0.00    +0.000 HD
ENDROOT
BRANCH   1  19
ATOM     13  C   UNK A   0       6.551   5.995  16.773  0.00  0.00    +0.000 A 
ATOM     14  C   UNK A   0       7.382   5.531  15.731  0.00  0.00    +0.000 A 
ATOM     15  C   UNK A   0       6.863   4.823  14.669  0.00  0.00    +0.000 A 
ATOM     16  C   UNK A   0       5.505   4.577  14.600  0.00  0.00    +0.000 A 
ATOM     17  F   UNK A   0       4.983   3.875  13.580  0.00  0.00    +0.000 F 
ATOM     18  C   UNK A   0       4.658   5.077  15.570  0.00  0.00    +0.000 A 
ATOM     19  C   UNK A   0       5.149   5.814  16.674  0.00  0.00    +0.000 A 
BRANCH  13  21
ATOM     20  C   UNK A   0       7.800   8.051  17.627  0.00  0.00    +0.000 C 
ATOM     21  C   UNK A   0       7.213   6.691  17.955  0.00  0.00    +0.000 C 
ENDBRANCH  13  21
BRANCH  15  22
ATOM     22  O   UNK A   0       7.674   4.339  13.681  0.00  0.00    +0.000 OA
ATOM     23  H   UNK A   0       7.755   5.009  12.984  0.00  0.00    +0.000 HD
ENDBRANCH  15  22
ENDBRANCH   1  19
BRANCH   3  24
ATOM     24  N   ALA A   1       2.689   5.374  20.928  0.00  0.00    +0.000 N 
ATOM     25  H   ALA A   1       2.901   5.861  21.802  0.00  0.00    +0.000 HD
BRANCH  24  26
ATOM     26  CA  ALA A   1       2.109   4.025  20.971  0.00  0.00    +0.000 C 
ATOM     27  CB  ALA A   1       0.834   3.955  20.133  0.00  0.00    +0.000 C 
BRANCH  26  28
ATOM     28  C   ALA A   1       3.122   2.986  20.435  0.00  0.00    +0.000 C 
BRANCH  28  29
ATOM     29  O   ALA A   1       2.525   2.106  19.483  0.00  0.00    +0.000 OA
ATOM     30  H   ALA A   1       2.154   2.671  18.787  0.00  0.00    +0.000 HD
ENDBRANCH  28  29
ENDBRANCH  26  28
ENDBRANCH  24  26
ENDBRANCH   3  24
BRANCH   7  31
ATOM     31  C   UNK A   0      -0.123   9.104  22.369  0.00  0.00    +0.000 C 
BRANCH  31  32
ATOM     32  C   UNK A   0      -0.668  10.225  23.248  0.00  0.00    +0.000 C 
BRANCH  32  33
ATOM     33  O   UNK A   0      -0.223  11.498  22.752  0.00  0.00    +0.000 OA
BRANCH  33  34
ATOM     34  C   UNK A   0      -1.265  12.465  22.909  0.00  0.00    +0.000 C 
BRANCH  34  35
ATOM     35  C   UNK A   0      -2.566  11.787  23.355  0.00  0.00    +0.000 C 
BRANCH  35  36
ATOM     36  N   UNK A   0      -3.712  12.718  23.417  0.00  0.00    +0.000 NA
ATOM     37  C   UNK A   0      -3.334  14.022  23.967  0.00  0.00    +0.000 C 
ATOM     38  C   UNK A   0      -4.284  12.897  22.080  0.00  0.00    +0.000 C 
ENDBRANCH  35  36
ENDBRANCH  34  35
ENDBRANCH  33  34
ENDBRANCH  32  33
ENDBRANCH  31  32
ENDBRANCH   7  31
TORSDOF 13
ENDMDL
MODEL 3
REMARK VINA RESULT:      -7.2      0.985      1.282
REMARK  Name = 
REMARK  17 active torsions:
REMARK  status: ('A' for Active; 'I' for Inactive)
REMARK    1  A    between atoms: C_1  and  C_2
REMARK    2  A    between atoms: C_2  and  C_3
REMARK    3  A    between atoms: C_5  and  O_6
REMARK    4  A    between atoms: C_10  and  C_11
REMARK    5  A    between atoms: C_13  and  N_14
REMARK    6  A    between atoms: N_14  and  CA_15
REMARK    7  A    between atoms: CA_15  and  CB_16
REMARK    8  A    between atoms: CA_15  and  C_17
REMARK    9  A    between atoms: C_17  and  O_18
REMARK   10  A    between atoms: N_22  and  C_23
REMARK   11  A    between atoms: C_23  and  C_24
REMARK   12  A    between atoms: C_24  and  O_25
REMARK   13  A    between atoms: O_25  and  C_26
REMARK   14  A    between atoms: C_26  and  C_27
REMARK   15  A    between atoms: C_27  and  N_28
REMARK   16  A    between atoms: N_28  and  C_29
REMARK   17  A    between atoms: N_28  and  C_30
REMARK                            x       y       z     vdW  Elec       q    Type
REMARK                         _______ _______ _______ _____ _____    ______ ____
ROOT
ATOM      1  C   UNK A   0       4.171   6.380  17.583  0.00  0.00    +0.000 A 
ATOM      2  C   UNK A   0       3.804   5.669  18.733  0.00  0.00    +0.000 A 
ATOM      3  C   UNK A   0       2.916   6.159  19.694  0.00  0.00    +0.000 A 
ATOM      4  C   UNK A   0       2.293   7.407  19.471  0.00  0.00    +0.000 A 
ATOM      5  N   UNK A   0       1.387   7.894  20.317  0.00  0.00    +0.000 NA
ATOM      6  C   UNK A   0       0.801   9.074  20.041  0.00  0.00    +0.000 A 
ATOM      7  N   UNK A   0      -0.208   9.545  20.849  0.00  0.00    +0.000 N 
ATOM      8  N   UNK A   0       1.104   9.837  18.986  0.00  0.00    +0.000 NA
ATOM      9  C   UNK A   0       2.010   9.341  18.135  0.00  0.00    +0.000 A 
ATOM     10  C   UNK A   0       2.637   8.118  18.308  0.00  0.00    +0.000 A 
ATOM     11  C   UNK A   0       3.533   7.605  17.387  0.00  0.00    +0.000 A 
ATOM     12  H   UNK A   0      -0.343  10.534  20.648  0.00  0.00    +0.000 HD
ENDROOT
BRANCH   1  19
ATOM     13  C   UNK A   0       6.550   6.016  16.718  0.00  0.00    +0.000 A 
ATOM     14  C   UNK A   0       7.382   5.534  15.686  0.00  0.00    +0.000 A 
ATOM     15  C   UNK A   0       6.864   4.807  14.636  0.00  0.00    +0.000 A 
ATOM     16  C   UNK A   0       5.505   4.561  14.570  0.00  0.00    +0.000 A 
ATOM     17  F   UNK A   0       4.985   3.841  13.561  0.00  0.00    +0.000 F 
ATOM     18  C   UNK A   0       4.658   5.077  15.530  0.00  0.00    +0.000 A 
ATOM     19  C   UNK A   0       5.148   5.833  16.621  0.00  0.00    +0.000 A 
BRANCH  13  21
ATOM     20  C   UNK A   0       7.778   5.803  18.947  0.00  0.00    +0.000 C 
ATOM     21  C   UNK A   0       7.211   6.732  17.889  0.00  0.00    +0.000 C 
ENDBRANCH  13  21
BRANCH  15  22
ATOM     22  O   UNK A   0       7.676   4.307  13.658  0.00  0.00    +0.000 OA
ATOM     23  H   UNK A   0       7.410   4.684  12.804  0.00  0.00    +0.000 HD
ENDBRANCH  15  22
ENDBRANCH   1  19
BRANCH   3  24
ATOM     24  N   ALA A   1       2.614   5.422  20.835  0.00  0.00    +0.000 N 
ATOM     25  H   ALA A   1       3.093   5.736  21.683  0.00  0.00    +0.000 HD
BRANCH  24  26
ATOM     26  CA  ALA A   1       1.664   4.304  20.909  0.00  0.00    +0.000 C 
ATOM     27  CB  ALA A   1       1.131   3.952  19.521  0.00  0.00    +0.000 C 
BRANCH  26  28
ATOM     28  C   ALA A   1       2.346   3.057  21.519  0.00  0.00    +0.000 C 
BRANCH  28  29
ATOM     29  O   ALA A   1       1.466   2.344  22.388  0.00  0.00    +0.000 OA
ATOM     30  H   ALA A   1       1.953   1.561  22.686  0.00  0.00    +0.000 HD
ENDBRANCH  28  29
ENDBRANCH  26  28
ENDBRANCH  24  26
ENDBRANCH   3  24
BRANCH   7  31
ATOM     31  C   UNK A   0      -0.126   9.210  22.265  0.00  0.00    +0.000 C 
BRANCH  31  32
ATOM     32  C   UNK A   0      -0.692  10.321  23.142  0.00  0.00    +0.000 C 
BRANCH  32  33
ATOM     33  O   UNK A   0      -0.408  11.602  22.557  0.00  0.00    +0.000 OA
BRANCH  33  34
ATOM     34  C   UNK A   0      -1.319  12.577  23.072  0.00  0.00    +0.000 C 
BRANCH  34  35
ATOM     35  C   UNK A   0      -1.789  13.519  21.957  0.00  0.00    +0.000 C 
BRANCH  35  36
ATOM     36  N   UNK A   0      -3.206  13.913  22.092  0.00  0.00    +0.000 NA
ATOM     37  C   UNK A   0      -4.112  12.770  21.961  0.00  0.00    +0.000 C 
ATOM     38  C   UNK A   0      -3.424  14.565  23.386  0.00  0.00    +0.000 C 
ENDBRANCH  35  36
ENDBRANCH  34  35
ENDBRANCH  33  34
ENDBRANCH  32  33
ENDBRANCH  31  32
ENDBRANCH   7  31
TORSDOF 13
ENDMDL
MODEL 4
REMARK VINA RESULT:      -7.2      0.745      1.014
REMARK  Name = 
REMARK  17 active torsions:
REMARK  status: ('A' for Active; 'I' for Inactive)
REMARK    1  A    between atoms: C_1  and  C_2
REMARK    2  A    between atoms: C_2  and  C_3
REMARK    3  A    between atoms: C_5  and  O_6
REMARK    4  A    between atoms: C_10  and  C_11
REMARK    5  A    between atoms: C_13  and  N_14
REMARK    6  A    between atoms: N_14  and  CA_15
REMARK    7  A    between atoms: CA_15  and  CB_16
REMARK    8  A    between atoms: CA_15  and  C_17
REMARK    9  A    between atoms: C_17  and  O_18
REMARK   10  A    between atoms: N_22  and  C_23
REMARK   11  A    between atoms: C_23  and  C_24
REMARK   12  A    between atoms: C_24  and  O_25
REMARK   13  A    between atoms: O_25  and  C_26
REMARK   14  A    between atoms: C_26  and  C_27
REMARK   15  A    between atoms: C_27  and  N_28
REMARK   16  A    between atoms: N_28  and  C_29
REMARK   17  A    between atoms: N_28  and  C_30
REMARK                            x       y       z     vdW  Elec       q    Type
REMARK                         _______ _______ _______ _____ _____    ______ ____
ROOT
ATOM      1  C   UNK A   0       4.189   6.284  17.614  0.00  0.00    +0.000 A 
ATOM      2  C   UNK A   0       3.784   5.469  18.679  0.00  0.00    +0.000 A 
ATOM      3  C   UNK A   0       2.870   5.873  19.655  0.00  0.00    +0.000 A 
ATOM      4  C   UNK A   0       2.260   7.141  19.534  0.00  0.00    +0.000 A 
ATOM      5  N   UNK A   0       1.331   7.553  20.395  0.00  0.00    +0.000 NA
ATOM      6  C   UNK A   0       0.760   8.758  20.216  0.00  0.00    +0.000 A 
ATOM      7  N   UNK A   0      -0.271   9.158  21.035  0.00  0.00    +0.000 N 
ATOM      8  N   UNK A   0       1.098   9.616  19.248  0.00  0.00    +0.000 NA
ATOM      9  C   UNK A   0       2.028   9.196  18.381  0.00  0.00    +0.000 A 
ATOM     10  C   UNK A   0       2.643   7.957  18.455  0.00  0.00    +0.000 A 
ATOM     11  C   UNK A   0       3.564   7.527  17.516  0.00  0.00    +0.000 A 
ATOM     12  H   UNK A   0      -0.395  10.163  20.925  0.00  0.00    +0.000 HD
ENDROOT
BRANCH   1  19
ATOM     13  C   UNK A   0       6.581   6.093  16.727  0.00  0.00    +0.000 A 
ATOM     14  C   UNK A   0       7.434   5.690  15.678  0.00  0.00    +0.000 A 
ATOM     15  C   UNK A   0       6.956   4.956  14.615  0.00  0.00    +0.000 A 
ATOM     16  C   UNK A   0       5.615   4.625  14.550  0.00  0.00    +0.000 A 
ATOM     17  F   UNK A   0       5.135   3.896  13.528  0.00  0.00    +0.000 F 
ATOM     18  C   UNK A   0       4.743   5.063  15.527  0.00  0.00    +0.000 A 
ATOM     19  C   UNK A   0       5.193   5.823  16.633  0.00  0.00    +0.000 A 
BRANCH  13  21
ATOM     20  C   UNK A   0       7.754   5.906  18.986  0.00  0.00    +0.000 C 
ATOM     21  C   UNK A   0       7.202   6.823  17.910  0.00  0.00    +0.000 C 
ENDBRANCH  13  21
BRANCH  15  22
ATOM     22  O   UNK A   0       7.791   4.532  13.620  0.00  0.00    +0.000 OA
ATOM     23  H   UNK A   0       8.685   4.423  13.983  0.00  0.00    +0.000 HD
ENDBRANCH  15  22
ENDBRANCH   1  19
BRANCH   3  24
ATOM     24  N   ALA A   1       2.530   5.033  20.712  0.00  0.00    +0.000 N 
ATOM     25  H   ALA A   1       2.489   5.493  21.624  0.00  0.00    +0.000 HD
BRANCH  24  26
ATOM     26  CA  ALA A   1       2.198   3.606  20.602  0.00  0.00    +0.000 C 
ATOM     27  CB  ALA A   1       2.120   2.959  21.984  0.00  0.00    +0.000 C 
BRANCH  26  28
ATOM     28  C   ALA A   1       0.842   3.422  19.881  0.00  0.00    +0.000 C 
BRANCH  28  29
ATOM     29  O   ALA A   1       0.955   2.549  18.757  0.00  0.00    +0.000 OA
ATOM     30  H   ALA A   1       0.455   1.750  18.983  0.00  0.00    +0.000 HD
ENDBRANCH  28  29
ENDBRANCH  26  28
ENDBRANCH  24  26
ENDBRANCH   3  24
BRANCH   7  31
ATOM     31  C   UNK A   0      -0.233   8.689  22.414  0.00  0.00    +0.000 C 
BRANCH  31  32
ATOM     32  C   UNK A   0       0.051   9.826  23.390  0.00  0.00    +0.000 C 
BRANCH  32  33
ATOM     33  O   UNK A   0      -0.167  11.092  22.746  0.00  0.00    +0.000 OA
BRANCH  33  34
ATOM     34  C   UNK A   0      -1.522  11.505  22.947  0.00  0.00    +0.000 C 
BRANCH  34  35
ATOM     35  C   UNK A   0      -1.960  12.472  21.841  0.00  0.00    +0.000 C 
BRANCH  35  36
ATOM     36  N   UNK A   0      -1.211  12.289  20.581  0.00  0.00    +0.000 NA
ATOM     37  C   UNK A   0      -2.075  11.846  19.484  0.00  0.00    +0.000 C 
ATOM     38  C   UNK A   0      -0.546  13.539  20.207  0.00  0.00    +0.000 C 
ENDBRANCH  35  36
ENDBRANCH  34  35
ENDBRANCH  33  34
ENDBRANCH  32  33
ENDBRANCH  31  32
ENDBRANCH   7  31
TORSDOF 13
ENDMDL
MODEL 5
REMARK VINA RESULT:      -7.2      2.842      5.459
REMARK  Name = 
REMARK  17 active torsions:
REMARK  status: ('A' for Active; 'I' for Inactive)
REMARK    1  A    between atoms: C_1  and  C_2
REMARK    2  A    between atoms: C_2  and  C_3
REMARK    3  A    between atoms: C_5  and  O_6
REMARK    4  A    between atoms: C_10  and  C_11
REMARK    5  A    between atoms: C_13  and  N_14
REMARK    6  A    between atoms: N_14  and  CA_15
REMARK    7  A    between atoms: CA_15  and  CB_16
REMARK    8  A    between atoms: CA_15  and  C_17
REMARK    9  A    between atoms: C_17  and  O_18
REMARK   10  A    between atoms: N_22  and  C_23
REMARK   11  A    between atoms: C_23  and  C_24
REMARK   12  A    between atoms: C_24  and  O_25
REMARK   13  A    between atoms: O_25  and  C_26
REMARK   14  A    between atoms: C_26  and  C_27
REMARK   15  A    between atoms: C_27  and  N_28
REMARK   16  A    between atoms: N_28  and  C_29
REMARK   17  A    between atoms: N_28  and  C_30
REMARK                            x       y       z     vdW  Elec       q    Type
REMARK                         _______ _______ _______ _____ _____    ______ ____
ROOT
ATOM      1  C   UNK A   0       1.890   7.918  19.066  0.00  0.00    +0.000 A 
ATOM      2  C   UNK A   0       1.095   8.815  18.340  0.00  0.00    +0.000 A 
ATOM      3  C   UNK A   0       0.253   9.757  18.935  0.00  0.00    +0.000 A 
ATOM      4  C   UNK A   0       0.245   9.869  20.343  0.00  0.00    +0.000 A 
ATOM      5  N   UNK A   0      -0.487  10.793  20.964  0.00  0.00    +0.000 NA
ATOM      6  C   UNK A   0      -0.434  10.876  22.307  0.00  0.00    +0.000 A 
ATOM      7  N   UNK A   0      -1.102  11.887  22.959  0.00  0.00    +0.000 N 
ATOM      8  N   UNK A   0       0.271  10.050  23.086  0.00  0.00    +0.000 NA
ATOM      9  C   UNK A   0       1.009   9.127  22.458  0.00  0.00    +0.000 A 
ATOM     10  C   UNK A   0       1.056   8.988  21.081  0.00  0.00    +0.000 A 
ATOM     11  C   UNK A   0       1.866   8.058  20.454  0.00  0.00    +0.000 A 
ATOM     12  H   UNK A   0      -1.164  11.645  23.946  0.00  0.00    +0.000 HD
ENDROOT
BRANCH   1  19
ATOM     13  C   UNK A   0       2.586   5.512  18.547  0.00  0.00    +0.000 A 
ATOM     14  C   UNK A   0       3.511   4.647  17.926  0.00  0.00    +0.000 A 
ATOM     15  C   UNK A   0       4.492   5.136  17.091  0.00  0.00    +0.000 A 
ATOM     16  C   UNK A   0       4.596   6.496  16.870  0.00  0.00    +0.000 A 
ATOM     17  F   UNK A   0       5.537   6.989  16.046  0.00  0.00    +0.000 F 
ATOM     18  C   UNK A   0       3.747   7.373  17.516  0.00  0.00    +0.000 A 
ATOM     19  C   UNK A   0       2.730   6.912  18.386  0.00  0.00    +0.000 A 
BRANCH  13  21
ATOM     20  C   UNK A   0       1.500   3.370  19.415  0.00  0.00    +0.000 C 
ATOM     21  C   UNK A   0       1.477   4.887  19.383  0.00  0.00    +0.000 C 
ENDBRANCH  13  21
BRANCH  15  22
ATOM     22  O   UNK A   0       5.363   4.294  16.459  0.00  0.00    +0.000 OA
ATOM     23  H   UNK A   0       5.768   3.707  17.117  0.00  0.00    +0.000 HD
ENDBRANCH  15  22
ENDBRANCH   1  19
BRANCH   3  24
ATOM     24  N   ALA A   1      -0.541  10.600  18.164  0.00  0.00    +0.000 N 
ATOM     25  H   ALA A   1      -0.042  11.386  17.742  0.00  0.00    +0.000 HD
BRANCH  24  26
ATOM     26  CA  ALA A   1      -1.973  10.420  17.893  0.00  0.00    +0.000 C 
ATOM     27  CB  ALA A   1      -2.778  11.614  18.406  0.00  0.00    +0.000 C 
BRANCH  26  28
ATOM     28  C   ALA A   1      -2.219  10.262  16.374  0.00  0.00    +0.000 C 
BRANCH  28  29
ATOM     29  O   ALA A   1      -2.696  11.472  15.786  0.00  0.00    +0.000 OA
ATOM     30  H   ALA A   1      -2.690  12.137  16.490  0.00  0.00    +0.000 HD
ENDBRANCH  28  29
ENDBRANCH  26  28
ENDBRANCH  24  26
ENDBRANCH   3  24
BRANCH   7  31
ATOM     31  C   UNK A   0      -2.348  12.344  22.358  0.00  0.00    +0.000 C 
BRANCH  31  32
ATOM     32  C   UNK A   0      -2.631  13.806  22.686  0.00  0.00    +0.000 C 
BRANCH  32  33
ATOM     33  O   UNK A   0      -3.367  13.899  23.917  0.00  0.00    +0.000 OA
BRANCH  33  34
ATOM     34  C   UNK A   0      -4.171  12.728  24.085  0.00  0.00    +0.000 C 
BRANCH  34  35
ATOM     35  C   UNK A   0      -5.658  13.070  23.937  0.00  0.00    +0.000 C 
BRANCH  35  36
ATOM     36  N   UNK A   0      -6.324  12.303  22.864  0.00  0.00    +0.000 NA
ATOM     37  C   UNK A   0      -7.747  12.093  23.138  0.00  0.00    +0.000 C 
ATOM     38  C   UNK A   0      -6.167  12.994  21.583  0.00  0.00    +0.000 C 
ENDBRANCH  35  36
ENDBRANCH  34  35
ENDBRANCH  33  34
ENDBRANCH  32  33
ENDBRANCH  31  32
ENDBRANCH   7  31
TORSDOF 13
ENDMDL
MODEL 6
REMARK VINA RESULT:      -7.2      2.652      5.616
REMARK  Name = 
REMARK  17 active torsions:
REMARK  status: ('A' for Active; 'I' for Inactive)
REMARK    1  A    between atoms: C_1  and  C_2
REMARK    2  A    between atoms: C_2  and  C_3
REMARK    3  A    between atoms: C_5  and  O_6
REMARK    4  A    between atoms: C_10  and  C_11
REMARK    5  A    between atoms: C_13  and  N_14
REMARK    6  A    between atoms: N_14  and  CA_15
REMARK    7  A    between atoms: CA_15  and  CB_16
REMARK    8  A    between atoms: CA_15  and  C_17
REMARK    9  A    between atoms: C_17  and  O_18
REMARK   10  A    between atoms: N_22  and  C_23
REMARK   11  A    between atoms: C_23  and  C_24
REMARK   12  A    between atoms: C_24  and  O_25
REMARK   13  A    between atoms: O_25  and  C_26
REMARK   14  A    between atoms: C_26  and  C_27
REMARK   15  A    between atoms: C_27  and  N_28
REMARK   16  A    between atoms: N_28  and  C_29
REMARK   17  A    between atoms: N_28  and  C_30
REMARK                            x       y       z     vdW  Elec       q    Type
REMARK                         _______ _______ _______ _____ _____    ______ ____
ROOT
ATOM      1  C   UNK A   0       1.970   7.846  19.520  0.00  0.00    +0.000 A 
ATOM      2  C   UNK A   0       1.652   8.986  18.770  0.00  0.00    +0.000 A 
ATOM      3  C   UNK A   0       0.841  10.020  19.243  0.00  0.00    +0.000 A 
ATOM      4  C   UNK A   0       0.366   9.958  20.572  0.00  0.00    +0.000 A 
ATOM      5  N   UNK A   0      -0.355  10.946  21.100  0.00  0.00    +0.000 NA
ATOM      6  C   UNK A   0      -0.757  10.850  22.381  0.00  0.00    +0.000 A 
ATOM      7  N   UNK A   0      -1.415  11.903  22.974  0.00  0.00    +0.000 N 
ATOM      8  N   UNK A   0      -0.528   9.793  23.166  0.00  0.00    +0.000 NA
ATOM      9  C   UNK A   0       0.202   8.805  22.633  0.00  0.00    +0.000 A 
ATOM     10  C   UNK A   0       0.698   8.829  21.340  0.00  0.00    +0.000 A 
ATOM     11  C   UNK A   0       1.492   7.817  20.830  0.00  0.00    +0.000 A 
ATOM     12  H   UNK A   0      -1.858  11.564  23.826  0.00  0.00    +0.000 HD
ENDROOT
BRANCH   1  19
ATOM     13  C   UNK A   0       2.877   5.454  19.497  0.00  0.00    +0.000 A 
ATOM     14  C   UNK A   0       3.779   4.527  18.933  0.00  0.00    +0.000 A 
ATOM     15  C   UNK A   0       4.511   4.841  17.809  0.00  0.00    +0.000 A 
ATOM     16  C   UNK A   0       4.387   6.090  17.229  0.00  0.00    +0.000 A 
ATOM     17  F   UNK A   0       5.082   6.407  16.123  0.00  0.00    +0.000 F 
ATOM     18  C   UNK A   0       3.562   7.041  17.797  0.00  0.00    +0.000 A 
ATOM     19  C   UNK A   0       2.797   6.761  18.955  0.00  0.00    +0.000 A 
BRANCH  13  21
ATOM     20  C   UNK A   0       0.937   4.018  20.329  0.00  0.00    +0.000 C 
ATOM     21  C   UNK A   0       2.038   5.000  20.684  0.00  0.00    +0.000 C 
ENDBRANCH  13  21
BRANCH  15  22
ATOM     22  O   UNK A   0       5.355   3.928  17.241  0.00  0.00    +0.000 OA
ATOM     23  H   UNK A   0       4.969   3.620  16.406  0.00  0.00    +0.000 HD
ENDBRANCH  15  22
ENDBRANCH   1  19
BRANCH   3  24
ATOM     24  N   ALA A   1       0.531  11.114  18.441  0.00  0.00    +0.000 N 
ATOM     25  H   ALA A   1       0.011  10.885  17.591  0.00  0.00    +0.000 HD
BRANCH  24  26
ATOM     26  CA  ALA A   1       0.848  12.516  18.742  0.00  0.00    +0.000 C 
ATOM     27  CB  ALA A   1       2.170  12.925  18.095  0.00  0.00    +0.000 C 
BRANCH  26  28
ATOM     28  C   ALA A   1      -0.276  13.446  18.226  0.00  0.00    +0.000 C 
BRANCH  28  29
ATOM     29  O   ALA A   1      -1.242  12.731  17.455  0.00  0.00    +0.000 OA
ATOM     30  H   ALA A   1      -1.237  11.821  17.789  0.00  0.00    +0.000 HD
ENDBRANCH  28  29
ENDBRANCH  26  28
ENDBRANCH  24  26
ENDBRANCH   3  24
BRANCH   7  31
ATOM     31  C   UNK A   0      -2.271  12.710  22.115  0.00  0.00    +0.000 C 
BRANCH  31  32
ATOM     32  C   UNK A   0      -3.590  13.058  22.797  0.00  0.00    +0.000 C 
BRANCH  32  33
ATOM     33  O   UNK A   0      -4.660  12.295  22.215  0.00  0.00    +0.000 OA
BRANCH  33  34
ATOM     34  C   UNK A   0      -5.115  12.939  21.023  0.00  0.00    +0.000 C 
BRANCH  34  35
ATOM     35  C   UNK A   0      -6.360  12.234  20.471  0.00  0.00    +0.000 C 
BRANCH  35  36
ATOM     36  N   UNK A   0      -6.177  11.728  19.095  0.00  0.00    +0.000 NA
ATOM     37  C   UNK A   0      -4.778  11.788  18.667  0.00  0.00    +0.000 C 
ATOM     38  C   UNK A   0      -6.661  10.349  18.999  0.00  0.00    +0.000 C 
ENDBRANCH  35  36
ENDBRANCH  34  35
ENDBRANCH  33  34
ENDBRANCH  32  33
ENDBRANCH  31  32
ENDBRANCH   7  31
TORSDOF 13
ENDMDL
MODEL 7
REMARK VINA RESULT:      -7.2      1.208      1.766
REMARK  Name = 
REMARK  17 active torsions:
REMARK  status: ('A' for Active; 'I' for Inactive)
REMARK    1  A    between atoms: C_1  and  C_2
REMARK    2  A    between atoms: C_2  and  C_3
REMARK    3  A    between atoms: C_5  and  O_6
REMARK    4  A    between atoms: C_10  and  C_11
REMARK    5  A    between atoms: C_13  and  N_14
REMARK    6  A    between atoms: N_14  and  CA_15
REMARK    7  A    between atoms: CA_15  and  CB_16
REMARK    8  A    between atoms: CA_15  and  C_17
REMARK    9  A    between atoms: C_17  and  O_18
REMARK   10  A    between atoms: N_22  and  C_23
REMARK   11  A    between atoms: C_23  and  C_24
REMARK   12  A    between atoms: C_24  and  O_25
REMARK   13  A    between atoms: O_25  and  C_26
REMARK   14  A    between atoms: C_26  and  C_27
REMARK   15  A    between atoms: C_27  and  N_28
REMARK   16  A    between atoms: N_28  and  C_29
REMARK   17  A    between atoms: N_28  and  C_30
REMARK                            x       y       z     vdW  Elec       q    Type
REMARK                         _______ _______ _______ _____ _____    ______ ____
ROOT
ATOM      1  C   UNK A   0       4.311   6.192  17.285  0.00  0.00    +0.000 A 
ATOM      2  C   UNK A   0       3.992   5.448  18.428  0.00  0.00    +0.000 A 
ATOM      3  C   UNK A   0       3.156   5.915  19.444  0.00  0.00    +0.000 A 
ATOM      4  C   UNK A   0       2.536   7.175  19.291  0.00  0.00    +0.000 A 
ATOM      5  N   UNK A   0       1.677   7.643  20.195  0.00  0.00    +0.000 NA
ATOM      6  C   UNK A   0       1.091   8.836  19.984  0.00  0.00    +0.000 A 
ATOM      7  N   UNK A   0       0.126   9.291  20.854  0.00  0.00    +0.000 N 
ATOM      8  N   UNK A   0       1.351   9.630  18.941  0.00  0.00    +0.000 NA
ATOM      9  C   UNK A   0       2.211   9.154  18.032  0.00  0.00    +0.000 A 
ATOM     10  C   UNK A   0       2.832   7.920  18.136  0.00  0.00    +0.000 A 
ATOM     11  C   UNK A   0       3.679   7.429  17.158  0.00  0.00    +0.000 A 
ATOM     12  H   UNK A   0      -0.008  10.287  20.690  0.00  0.00    +0.000 HD
ENDROOT
BRANCH   1  19
ATOM     13  C   UNK A   0       6.642   5.849  16.288  0.00  0.00    +0.000 A 
ATOM     14  C   UNK A   0       7.418   5.390  15.202  0.00  0.00    +0.000 A 
ATOM     15  C   UNK A   0       6.845   4.688  14.165  0.00  0.00    +0.000 A 
ATOM     16  C   UNK A   0       5.484   4.442  14.165  0.00  0.00    +0.000 A 
ATOM     17  F   UNK A   0       4.911   3.744  13.169  0.00  0.00    +0.000 F 
ATOM     18  C   UNK A   0       4.689   4.936  15.180  0.00  0.00    +0.000 A 
ATOM     19  C   UNK A   0       5.237   5.667  16.260  0.00  0.00    +0.000 A 
BRANCH  13  21
ATOM     20  C   UNK A   0       7.702   5.623  18.599  0.00  0.00    +0.000 C 
ATOM     21  C   UNK A   0       7.364   6.539  17.438  0.00  0.00    +0.000 C 
ENDBRANCH  13  21
BRANCH  15  22
ATOM     22  O   UNK A   0       7.604   4.210  13.134  0.00  0.00    +0.000 OA
ATOM     23  H   UNK A   0       7.277   4.587  12.301  0.00  0.00    +0.000 HD
ENDBRANCH  15  22
ENDBRANCH   1  19
BRANCH   3  24
ATOM     24  N   ALA A   1       2.901   5.145  20.576  0.00  0.00    +0.000 N 
ATOM     25  H   ALA A   1       2.973   5.652  21.460  0.00  0.00    +0.000 HD
BRANCH  24  26
ATOM     26  CA  ALA A   1       2.510   3.729  20.580  0.00  0.00    +0.000 C 
ATOM     27  CB  ALA A   1       2.040   3.299  21.968  0.00  0.00    +0.000 C 
BRANCH  26  28
ATOM     28  C   ALA A   1       1.372   3.481  19.562  0.00  0.00    +0.000 C 
BRANCH  28  29
ATOM     29  O   ALA A   1       0.199   2.968  20.194  0.00  0.00    +0.000 OA
ATOM     30  H   ALA A   1      -0.383   2.665  19.481  0.00  0.00    +0.000 HD
ENDBRANCH  28  29
ENDBRANCH  26  28
ENDBRANCH  24  26
ENDBRANCH   3  24
BRANCH   7  31
ATOM     31  C   UNK A   0       0.272   8.910  22.252  0.00  0.00    +0.000 C 
BRANCH  31  32
ATOM     32  C   UNK A   0      -0.654   9.715  23.157  0.00  0.00    +0.000 C 
BRANCH  32  33
ATOM     33  O   UNK A   0      -0.306  11.109  23.100  0.00  0.00    +0.000 OA
BRANCH  33  34
ATOM     34  C   UNK A   0      -1.422  11.863  22.623  0.00  0.00    +0.000 C 
BRANCH  34  35
ATOM     35  C   UNK A   0      -1.349  13.311  23.125  0.00  0.00    +0.000 C 
BRANCH  35  36
ATOM     36  N   UNK A   0      -2.496  13.686  23.978  0.00  0.00    +0.000 NA
ATOM     37  C   UNK A   0      -2.990  15.031  23.677  0.00  0.00    +0.000 C 
ATOM     38  C   UNK A   0      -3.581  12.717  23.814  0.00  0.00    +0.000 C 
ENDBRANCH  35  36
ENDBRANCH  34  35
ENDBRANCH  33  34
ENDBRANCH  32  33
ENDBRANCH  31  32
ENDBRANCH   7  31
TORSDOF 13
ENDMDL
MODEL 8
REMARK VINA RESULT:      -7.1      3.067      5.663
REMARK  Name = 
REMARK  17 active torsions:
REMARK  status: ('A' for Active; 'I' for Inactive)
REMARK    1  A    between atoms: C_1  and  C_2
REMARK    2  A    between atoms: C_2  and  C_3
REMARK    3  A    between atoms: C_5  and  O_6
REMARK    4  A    between atoms: C_10  and  C_11
REMARK    5  A    between atoms: C_13  and  N_14
REMARK    6  A    between atoms: N_14  and  CA_15
REMARK    7  A    between atoms: CA_15  and  CB_16
REMARK    8  A    between atoms: CA_15  and  C_17
REMARK    9  A    between atoms: C_17  and  O_18
REMARK   10  A    between atoms: N_22  and  C_23
REMARK   11  A    between atoms: C_23  and  C_24
REMARK   12  A    between atoms: C_24  and  O_25
REMARK   13  A    between atoms: O_25  and  C_26
REMARK   14  A    between atoms: C_26  and  C_27
REMARK   15  A    between atoms: C_27  and  N_28
REMARK   16  A    between atoms: N_28  and  C_29
REMARK   17  A    between atoms: N_28  and  C_30
REMARK                            x       y       z     vdW  Elec       q    Type
REMARK                         _______ _______ _______ _____ _____    ______ ____
ROOT
ATOM      1  C   UNK A   0       1.723   8.108  19.476  0.00  0.00    +0.000 A 
ATOM      2  C   UNK A   0       0.982   8.981  18.669  0.00  0.00    +0.000 A 
ATOM      3  C   UNK A   0       0.090   9.929  19.174  0.00  0.00    +0.000 A 
ATOM      4  C   UNK A   0      -0.029  10.074  20.574  0.00  0.00    +0.000 A 
ATOM      5  N   UNK A   0      -0.813  11.006  21.114  0.00  0.00    +0.000 NA
ATOM      6  C   UNK A   0      -0.866  11.121  22.454  0.00  0.00    +0.000 A 
ATOM      7  N   UNK A   0      -1.590  12.141  23.027  0.00  0.00    +0.000 N 
ATOM      8  N   UNK A   0      -0.219  10.320  23.305  0.00  0.00    +0.000 NA
ATOM      9  C   UNK A   0       0.572   9.388  22.759  0.00  0.00    +0.000 A 
ATOM     10  C   UNK A   0       0.727   9.218  21.393  0.00  0.00    +0.000 A 
ATOM     11  C   UNK A   0       1.590   8.280  20.854  0.00  0.00    +0.000 A 
ATOM     12  H   UNK A   0      -1.727  11.921  24.012  0.00  0.00    +0.000 HD
ENDROOT
BRANCH   1  19
ATOM     13  C   UNK A   0       2.766   5.774  19.383  0.00  0.00    +0.000 A 
ATOM     14  C   UNK A   0       3.730   4.921  18.803  0.00  0.00    +0.000 A 
ATOM     15  C   UNK A   0       4.461   5.318  17.706  0.00  0.00    +0.000 A 
ATOM     16  C   UNK A   0       4.276   6.579  17.170  0.00  0.00    +0.000 A 
ATOM     17  F   UNK A   0       4.970   6.976  16.089  0.00  0.00    +0.000 F 
ATOM     18  C   UNK A   0       3.388   7.460  17.756  0.00  0.00    +0.000 A 
ATOM     19  C   UNK A   0       2.621   7.093  18.888  0.00  0.00    +0.000 A 
BRANCH  13  21
ATOM     20  C   UNK A   0       1.032   4.068  20.160  0.00  0.00    +0.000 C 
ATOM     21  C   UNK A   0       1.935   5.229  20.537  0.00  0.00    +0.000 C 
ENDBRANCH  13  21
BRANCH  15  22
ATOM     22  O   UNK A   0       5.366   4.477  17.121  0.00  0.00    +0.000 OA
ATOM     23  H   UNK A   0       5.003   3.576  17.119  0.00  0.00    +0.000 HD
ENDBRANCH  15  22
ENDBRANCH   1  19
BRANCH   3  24
ATOM     24  N   ALA A   1      -0.647  10.747  18.323  0.00  0.00    +0.000 N 
ATOM     25  H   ALA A   1      -0.131  11.546  17.948  0.00  0.00    +0.000 HD
BRANCH  24  26
ATOM     26  CA  ALA A   1      -2.040  10.526  17.912  0.00  0.00    +0.000 C 
ATOM     27  CB  ALA A   1      -2.926  11.692  18.346  0.00  0.00    +0.000 C 
BRANCH  26  28
ATOM     28  C   ALA A   1      -2.131  10.368  16.376  0.00  0.00    +0.000 C 
BRANCH  28  29
ATOM     29  O   ALA A   1      -3.303   9.654  15.986  0.00  0.00    +0.000 OA
ATOM     30  H   ALA A   1      -3.743  10.199  15.315  0.00  0.00    +0.000 HD
ENDBRANCH  28  29
ENDBRANCH  26  28
ENDBRANCH  24  26
ENDBRANCH   3  24
BRANCH   7  31
ATOM     31  C   UNK A   0      -2.788  12.573  22.320  0.00  0.00    +0.000 C 
BRANCH  31  32
ATOM     32  C   UNK A   0      -3.932  12.879  23.281  0.00  0.00    +0.000 C 
BRANCH  32  33
ATOM     33  O   UNK A   0      -5.129  12.213  22.847  0.00  0.00    +0.000 OA
BRANCH  33  34
ATOM     34  C   UNK A   0      -5.852  13.062  21.952  0.00  0.00    +0.000 C 
BRANCH  34  35
ATOM     35  C   UNK A   0      -7.284  12.548  21.760  0.00  0.00    +0.000 C 
BRANCH  35  36
ATOM     36  N   UNK A   0      -7.516  11.967  20.422  0.00  0.00    +0.000 NA
ATOM     37  C   UNK A   0      -6.508  12.398  19.451  0.00  0.00    +0.000 C 
ATOM     38  C   UNK A   0      -7.523  10.505  20.504  0.00  0.00    +0.000 C 
ENDBRANCH  35  36
ENDBRANCH  34  35
ENDBRANCH  33  34
ENDBRANCH  32  33
ENDBRANCH  31  32
ENDBRANCH   7  31
TORSDOF 13
ENDMDL
MODEL 9
REMARK VINA RESULT:      -7.1      2.781      5.559
REMARK  Name = 
REMARK  17 active torsions:
REMARK  status: ('A' for Active; 'I' for Inactive)
REMARK    1  A    between atoms: C_1  and  C_2
REMARK    2  A    between atoms: C_2  and  C_3
REMARK    3  A    between atoms: C_5  and  O_6
REMARK    4  A    between atoms: C_10  and  C_11
REMARK    5  A    between atoms: C_13  and  N_14
REMARK    6  A    between atoms: N_14  and  CA_15
REMARK    7  A    between atoms: CA_15  and  CB_16
REMARK    8  A    between atoms: CA_15  and  C_17
REMARK    9  A    between atoms: C_17  and  O_18
REMARK   10  A    between atoms: N_22  and  C_23
REMARK   11  A    between atoms: C_23  and  C_24
REMARK   12  A    between atoms: C_24  and  O_25
REMARK   13  A    between atoms: O_25  and  C_26
REMARK   14  A    between atoms: C_26  and  C_27
REMARK   15  A    between atoms: C_27  and  N_28
REMARK   16  A    between atoms: N_28  and  C_29
REMARK   17  A    between atoms: N_28  and  C_30
REMARK                            x       y       z     vdW  Elec       q    Type
REMARK                         _______ _______ _______ _____ _____    ______ ____
ROOT
ATOM      1  C   UNK A   0       1.708   8.206  19.530  0.00  0.00    +0.000 A 
ATOM      2  C   UNK A   0       1.123   9.218  18.758  0.00  0.00    +0.000 A 
ATOM      3  C   UNK A   0       0.291  10.208  19.285  0.00  0.00    +0.000 A 
ATOM      4  C   UNK A   0       0.075  10.244  20.680  0.00  0.00    +0.000 A 
ATOM      5  N   UNK A   0      -0.653  11.204  21.248  0.00  0.00    +0.000 NA
ATOM      6  C   UNK A   0      -0.801  11.209  22.586  0.00  0.00    +0.000 A 
ATOM      7  N   UNK A   0      -1.465  12.247  23.199  0.00  0.00    +0.000 N 
ATOM      8  N   UNK A   0      -0.305  10.275  23.402  0.00  0.00    +0.000 NA
ATOM      9  C   UNK A   0       0.431   9.315  22.829  0.00  0.00    +0.000 A 
ATOM     10  C   UNK A   0       0.677   9.247  21.468  0.00  0.00    +0.000 A 
ATOM     11  C   UNK A   0       1.484   8.273  20.905  0.00  0.00    +0.000 A 
ATOM     12  H   UNK A   0      -1.700  11.959  24.147  0.00  0.00    +0.000 HD
ENDROOT
BRANCH   1  19
ATOM     13  C   UNK A   0       2.598   5.814  19.362  0.00  0.00    +0.000 A 
ATOM     14  C   UNK A   0       3.511   4.921  18.762  0.00  0.00    +0.000 A 
ATOM     15  C   UNK A   0       4.283   5.309  17.689  0.00  0.00    +0.000 A 
ATOM     16  C   UNK A   0       4.187   6.598  17.198  0.00  0.00    +0.000 A 
ATOM     17  F   UNK A   0       4.921   6.989  16.141  0.00  0.00    +0.000 F 
ATOM     18  C   UNK A   0       3.351   7.514  17.807  0.00  0.00    +0.000 A 
ATOM     19  C   UNK A   0       2.546   7.157  18.915  0.00  0.00    +0.000 A 
BRANCH  13  21
ATOM     20  C   UNK A   0       1.108   3.921  20.207  0.00  0.00    +0.000 C 
ATOM     21  C   UNK A   0       1.716   5.283  20.485  0.00  0.00    +0.000 C 
ENDBRANCH  13  21
BRANCH  15  22
ATOM     22  O   UNK A   0       5.138   4.433  17.083  0.00  0.00    +0.000 OA
ATOM     23  H   UNK A   0       5.497   3.828  17.752  0.00  0.00    +0.000 HD
ENDBRANCH  15  22
ENDBRANCH   1  19
BRANCH   3  24
ATOM     24  N   ALA A   1      -0.292  11.169  18.464  0.00  0.00    +0.000 N 
ATOM     25  H   ALA A   1      -1.192  10.897  18.063  0.00  0.00    +0.000 HD
BRANCH  24  26
ATOM     26  CA  ALA A   1       0.255  12.503  18.183  0.00  0.00    +0.000 C 
ATOM     27  CB  ALA A   1      -0.519  13.578  18.945  0.00  0.00    +0.000 C 
BRANCH  26  28
ATOM     28  C   ALA A   1       1.746  12.571  18.589  0.00  0.00    +0.000 C 
BRANCH  28  29
ATOM     29  O   ALA A   1       2.608  12.291  17.487  0.00  0.00    +0.000 OA
ATOM     30  H   ALA A   1       2.985  13.142  17.214  0.00  0.00    +0.000 HD
ENDBRANCH  28  29
ENDBRANCH  26  28
ENDBRANCH  24  26
ENDBRANCH   3  24
BRANCH   7  31
ATOM     31  C   UNK A   0      -2.555  12.861  22.453  0.00  0.00    +0.000 C 
BRANCH  31  32
ATOM     32  C   UNK A   0      -3.903  12.624  23.124  0.00  0.00    +0.000 C 
BRANCH  32  33
ATOM     33  O   UNK A   0      -4.945  12.591  22.135  0.00  0.00    +0.000 OA
BRANCH  33  34
ATOM     34  C   UNK A   0      -4.372  12.716  20.831  0.00  0.00    +0.000 C 
BRANCH  34  35
ATOM     35  C   UNK A   0      -5.344  12.199  19.763  0.00  0.00    +0.000 C 
BRANCH  35  36
ATOM     36  N   UNK A   0      -4.790  12.267  18.395  0.00  0.00    +0.000 NA
ATOM     37  C   UNK A   0      -3.814  11.206  18.142  0.00  0.00    +0.000 C 
ATOM     38  C   UNK A   0      -5.872  12.184  17.411  0.00  0.00    +0.000 C 
ENDBRANCH  35  36
ENDBRANCH  34  35
ENDBRANCH  33  34
ENDBRANCH  32  33
ENDBRANCH  31  32
ENDBRANCH   7  31
TORSDOF 13
ENDMDL
