MODEL 1
REMARK VINA RESULT:      -6.5      0.000      0.000
REMARK  Name = 
REMARK  5 active torsions:
REMARK  status: ('A' for Active; 'I' for Inactive)
REMARK    1  A    between atoms: N_2  and  N_3
REMARK    2  A    between atoms: N_3  and  C_4
REMARK    3  A    between atoms: C_4  and  C_5
REMARK    4  A    between atoms: N_9  and  C_10
REMARK    5  A    between atoms: C_14  and  O_15
REMARK                            x       y       z     vdW  Elec       q    Type
REMARK                         _______ _______ _______ _____ _____    ______ ____
ROOT
ATOM      1  N   UNL     1       5.998   5.869  17.223  0.00  0.00    +0.000 N 
ATOM      2  C   UNL     1       5.402   4.825  17.932  0.00  0.00    +0.000 C 
ATOM      3  O   UNL     1       6.059   3.983  18.545  0.00  0.00    +0.000 OA
ATOM      4  N   UNL     1       4.020   4.811  17.938  0.00  0.00    +0.000 N 
ATOM      5  H   UNL     1       3.550   5.357  17.229  0.00  0.00    +0.000 HD
ENDROOT
BRANCH   4   6
ATOM      6  C   UNL     1       3.233   3.773  18.591  0.00  0.00    +0.000 C 
ATOM      7  C   UNL     1       1.830   3.704  17.969  0.00  0.00    +0.000 C 
ATOM      8  C   UNL     1       0.926   2.713  18.696  0.00  0.00    +0.000 C 
ATOM      9  C   UNL     1       0.868   2.990  20.194  0.00  0.00    +0.000 C 
ATOM     10  C   UNL     1       2.268   3.022  20.804  0.00  0.00    +0.000 C 
ATOM     11  C   UNL     1       3.156   4.044  20.096  0.00  0.00    +0.000 C 
BRANCH  10  12
ATOM     12  O   UNL     1       2.182   3.332  22.190  0.00  0.00    +0.000 OA
ATOM     13  H   UNL     1       3.061   3.605  22.502  0.00  0.00    +0.000 HD
ENDBRANCH  10  12
ENDBRANCH   4   6
BRANCH   1  15
ATOM     14  O   UNL     1       5.105   6.727  15.381  0.00  0.00    +0.000 OA
ATOM     15  N   UNL     1       5.191   6.839  16.606  0.00  0.00    +0.000 NA
ENDBRANCH   1  15
BRANCH   1  16
ATOM     16  C   UNL     1       7.449   6.059  17.312  0.00  0.00    +0.000 C 
BRANCH  16  17
ATOM     17  C   UNL     1       7.908   7.022  18.406  0.00  0.00    +0.000 C 
ATOM     18 CL   UNL     1       8.056   8.694  17.813  0.00  0.00    +0.000 Cl
ENDBRANCH  16  17
ENDBRANCH   1  16
TORSDOF 5
ENDMDL
MODEL 2
REMARK VINA RESULT:      -6.4      1.735      2.555
REMARK  Name = 
REMARK  5 active torsions:
REMARK  status: ('A' for Active; 'I' for Inactive)
REMARK    1  A    between atoms: N_2  and  N_3
REMARK    2  A    between atoms: N_3  and  C_4
REMARK    3  A    between atoms: C_4  and  C_5
REMARK    4  A    between atoms: N_9  and  C_10
REMARK    5  A    between atoms: C_14  and  O_15
REMARK                            x       y       z     vdW  Elec       q    Type
REMARK                         _______ _______ _______ _____ _____    ______ ____
ROOT
ATOM      1  N   UNL     1       6.637   6.045  18.300  0.00  0.00    +0.000 N 
ATOM      2  C   UNL     1       5.246   5.938  18.235  0.00  0.00    +0.000 C 
ATOM      3  O   UNL     1       4.552   6.731  17.600  0.00  0.00    +0.000 OA
ATOM      4  N   UNL     1       4.692   4.861  18.900  0.00  0.00    +0.000 N 
ATOM      5  H   UNL     1       5.265   4.403  19.596  0.00  0.00    +0.000 HD
ENDROOT
BRANCH   4   6
ATOM      6  C   UNL     1       3.257   4.618  18.973  0.00  0.00    +0.000 C 
ATOM      7  C   UNL     1       2.728   4.990  20.367  0.00  0.00    +0.000 C 
ATOM      8  C   UNL     1       1.253   4.643  20.535  0.00  0.00    +0.000 C 
ATOM      9  C   UNL     1       0.970   3.185  20.193  0.00  0.00    +0.000 C 
ATOM     10  C   UNL     1       1.470   2.839  18.792  0.00  0.00    +0.000 C 
ATOM     11  C   UNL     1       2.958   3.153  18.644  0.00  0.00    +0.000 C 
BRANCH  10  12
ATOM     12  O   UNL     1       1.236   1.460  18.525  0.00  0.00    +0.000 OA
ATOM     13  H   UNL     1       1.189   1.335  17.562  0.00  0.00    +0.000 HD
ENDBRANCH  10  12
ENDBRANCH   4   6
BRANCH   1  15
ATOM     14  O   UNL     1       7.448   5.234  20.201  0.00  0.00    +0.000 OA
ATOM     15  N   UNL     1       7.378   5.064  18.981  0.00  0.00    +0.000 NA
ENDBRANCH   1  15
BRANCH   1  16
ATOM     16  C   UNL     1       7.317   7.052  17.480  0.00  0.00    +0.000 C 
BRANCH  16  17
ATOM     17  C   UNL     1       8.281   7.962  18.242  0.00  0.00    +0.000 C 
ATOM     18 CL   UNL     1       8.062   9.677  17.821  0.00  0.00    +0.000 Cl
ENDBRANCH  16  17
ENDBRANCH   1  16
TORSDOF 5
ENDMDL
MODEL 3
REMARK VINA RESULT:      -6.4      1.382      1.548
REMARK  Name = 
REMARK  5 active torsions:
REMARK  status: ('A' for Active; 'I' for Inactive)
REMARK    1  A    between atoms: N_2  and  N_3
REMARK    2  A    between atoms: N_3  and  C_4
REMARK    3  A    between atoms: C_4  and  C_5
REMARK    4  A    between atoms: N_9  and  C_10
REMARK    5  A    between atoms: C_14  and  O_15
REMARK                            x       y       z     vdW  Elec       q    Type
REMARK                         _______ _______ _______ _____ _____    ______ ____
ROOT
ATOM      1  N   UNL     1       6.902   6.456  17.795  0.00  0.00    +0.000 N 
ATOM      2  C   UNL     1       6.339   5.481  18.622  0.00  0.00    +0.000 C 
ATOM      3  O   UNL     1       6.802   5.207  19.729  0.00  0.00    +0.000 OA
ATOM      4  N   UNL     1       5.202   4.863  18.138  0.00  0.00    +0.000 N 
ATOM      5  H   UNL     1       5.020   4.941  17.146  0.00  0.00    +0.000 HD
ENDROOT
BRANCH   4   6
ATOM      6  C   UNL     1       4.509   3.795  18.847  0.00  0.00    +0.000 C 
ATOM      7  C   UNL     1       3.915   2.794  17.844  0.00  0.00    +0.000 C 
ATOM      8  C   UNL     1       3.077   1.720  18.530  0.00  0.00    +0.000 C 
ATOM      9  C   UNL     1       2.005   2.323  19.429  0.00  0.00    +0.000 C 
ATOM     10  C   UNL     1       2.614   3.290  20.442  0.00  0.00    +0.000 C 
ATOM     11  C   UNL     1       3.420   4.385  19.746  0.00  0.00    +0.000 C 
BRANCH  10  12
ATOM     12  O   UNL     1       1.583   3.873  21.232  0.00  0.00    +0.000 OA
ATOM     13  H   UNL     1       1.993   4.391  21.944  0.00  0.00    +0.000 HD
ENDBRANCH  10  12
ENDBRANCH   4   6
BRANCH   1  15
ATOM     14  O   UNL     1       6.560   6.011  15.648  0.00  0.00    +0.000 OA
ATOM     15  N   UNL     1       6.281   6.774  16.575  0.00  0.00    +0.000 NA
ENDBRANCH   1  15
BRANCH   1  16
ATOM     16  C   UNL     1       8.001   7.281  18.306  0.00  0.00    +0.000 C 
BRANCH  16  17
ATOM     17  C   UNL     1       7.993   8.734  17.832  0.00  0.00    +0.000 C 
ATOM     18 CL   UNL     1       9.006   9.781  18.855  0.00  0.00    +0.000 Cl
ENDBRANCH  16  17
ENDBRANCH   1  16
TORSDOF 5
ENDMDL
MODEL 4
REMARK VINA RESULT:      -6.4      1.382      1.740
REMARK  Name = 
REMARK  5 active torsions:
REMARK  status: ('A' for Active; 'I' for Inactive)
REMARK    1  A    between atoms: N_2  and  N_3
REMARK    2  A    between atoms: N_3  and  C_4
REMARK    3  A    between atoms: C_4  and  C_5
REMARK    4  A    between atoms: N_9  and  C_10
REMARK    5  A    between atoms: C_14  and  O_15
REMARK                            x       y       z     vdW  Elec       q    Type
REMARK                         _______ _______ _______ _____ _____    ______ ____
ROOT
ATOM      1  N   UNL     1       6.625   5.543  17.478  0.00  0.00    +0.000 N 
ATOM      2  C   UNL     1       5.399   5.109  17.987  0.00  0.00    +0.000 C 
ATOM      3  O   UNL     1       4.571   5.884  18.465  0.00  0.00    +0.000 OA
ATOM      4  N   UNL     1       5.151   3.753  17.889  0.00  0.00    +0.000 N 
ATOM      5  H   UNL     1       5.946   3.149  17.728  0.00  0.00    +0.000 HD
ENDROOT
BRANCH   4   6
ATOM      6  C   UNL     1       3.944   3.121  18.405  0.00  0.00    +0.000 C 
ATOM      7  C   UNL     1       2.698   3.779  17.792  0.00  0.00    +0.000 C 
ATOM      8  C   UNL     1       1.405   3.234  18.388  0.00  0.00    +0.000 C 
ATOM      9  C   UNL     1       1.400   3.321  19.910  0.00  0.00    +0.000 C 
ATOM     10  C   UNL     1       2.627   2.633  20.507  0.00  0.00    +0.000 C 
ATOM     11  C   UNL     1       3.919   3.211  19.933  0.00  0.00    +0.000 C 
BRANCH  10  12
ATOM     12  O   UNL     1       2.617   2.776  21.923  0.00  0.00    +0.000 OA
ATOM     13  H   UNL     1       2.116   2.037  22.306  0.00  0.00    +0.000 HD
ENDBRANCH  10  12
ENDBRANCH   4   6
BRANCH   1  15
ATOM     14  O   UNL     1       8.305   4.102  17.655  0.00  0.00    +0.000 OA
ATOM     15  N   UNL     1       7.495   4.617  16.879  0.00  0.00    +0.000 NA
ENDBRANCH   1  15
BRANCH   1  16
ATOM     16  C   UNL     1       6.892   6.981  17.383  0.00  0.00    +0.000 C 
BRANCH  16  17
ATOM     17  C   UNL     1       8.074   7.476  18.215  0.00  0.00    +0.000 C 
ATOM     18 CL   UNL     1       8.292   9.239  18.094  0.00  0.00    +0.000 Cl
ENDBRANCH  16  17
ENDBRANCH   1  16
TORSDOF 5
ENDMDL
MODEL 5
REMARK VINA RESULT:      -6.2      3.173      5.905
REMARK  Name = 
REMARK  5 active torsions:
REMARK  status: ('A' for Active; 'I' for Inactive)
REMARK    1  A    between atoms: N_2  and  N_3
REMARK    2  A    between atoms: N_3  and  C_4
REMARK    3  A    between atoms: C_4  and  C_5
REMARK    4  A    between atoms: N_9  and  C_10
REMARK    5  A    between atoms: C_14  and  O_15
REMARK                            x       y       z     vdW  Elec       q    Type
REMARK                         _______ _______ _______ _____ _____    ______ ____
ROOT
ATOM      1  N   UNL     1       1.679   4.122  19.043  0.00  0.00    +0.000 N 
ATOM      2  C   UNL     1       2.912   4.713  18.755  0.00  0.00    +0.000 C 
ATOM      3  O   UNL     1       3.499   5.440  19.556  0.00  0.00    +0.000 OA
ATOM      4  N   UNL     1       3.457   4.403  17.523  0.00  0.00    +0.000 N 
ATOM      5  H   UNL     1       2.832   4.021  16.825  0.00  0.00    +0.000 HD
ENDROOT
BRANCH   4   6
ATOM      6  C   UNL     1       4.713   4.962  17.040  0.00  0.00    +0.000 C 
ATOM      7  C   UNL     1       4.788   4.849  15.510  0.00  0.00    +0.000 C 
ATOM      8  C   UNL     1       6.134   5.312  14.964  0.00  0.00    +0.000 C 
ATOM      9  C   UNL     1       7.298   4.599  15.642  0.00  0.00    +0.000 C 
ATOM     10  C   UNL     1       7.229   4.749  17.160  0.00  0.00    +0.000 C 
ATOM     11  C   UNL     1       5.892   4.247  17.704  0.00  0.00    +0.000 C 
BRANCH  10  12
ATOM     12  O   UNL     1       8.299   4.031  17.764  0.00  0.00    +0.000 OA
ATOM     13  H   UNL     1       8.333   4.261  18.708  0.00  0.00    +0.000 HD
ENDBRANCH  10  12
ENDBRANCH   4   6
BRANCH   1  15
ATOM     14  O   UNL     1       1.746   2.215  17.908  0.00  0.00    +0.000 OA
ATOM     15  N   UNL     1       1.097   3.244  18.114  0.00  0.00    +0.000 NA
ENDBRANCH   1  15
BRANCH   1  16
ATOM     16  C   UNL     1       1.118   4.256  20.390  0.00  0.00    +0.000 C 
BRANCH  16  17
ATOM     17  C   UNL     1       1.248   3.013  21.270  0.00  0.00    +0.000 C 
ATOM     18 CL   UNL     1       2.939   2.481  21.438  0.00  0.00    +0.000 Cl
ENDBRANCH  16  17
ENDBRANCH   1  16
TORSDOF 5
ENDMDL
MODEL 6
REMARK VINA RESULT:      -6.2      1.367      1.746
REMARK  Name = 
REMARK  5 active torsions:
REMARK  status: ('A' for Active; 'I' for Inactive)
REMARK    1  A    between atoms: N_2  and  N_3
REMARK    2  A    between atoms: N_3  and  C_4
REMARK    3  A    between atoms: C_4  and  C_5
REMARK    4  A    between atoms: N_9  and  C_10
REMARK    5  A    between atoms: C_14  and  O_15
REMARK                            x       y       z     vdW  Elec       q    Type
REMARK                         _______ _______ _______ _____ _____    ______ ____
ROOT
ATOM      1  N   UNL     1       5.857   5.778  17.160  0.00  0.00    +0.000 N 
ATOM      2  C   UNL     1       4.845   5.179  17.915  0.00  0.00    +0.000 C 
ATOM      3  O   UNL     1       5.082   4.376  18.817  0.00  0.00    +0.000 OA
ATOM      4  N   UNL     1       3.555   5.570  17.613  0.00  0.00    +0.000 N 
ATOM      5  H   UNL     1       3.406   6.022  16.720  0.00  0.00    +0.000 HD
ENDROOT
BRANCH   4   6
ATOM      6  C   UNL     1       2.377   5.018  18.269  0.00  0.00    +0.000 C 
ATOM      7  C   UNL     1       2.412   5.334  19.772  0.00  0.00    +0.000 C 
ATOM      8  C   UNL     1       1.261   4.676  20.526  0.00  0.00    +0.000 C 
ATOM      9  C   UNL     1       1.194   3.176  20.265  0.00  0.00    +0.000 C 
ATOM     10  C   UNL     1       1.125   2.879  18.769  0.00  0.00    +0.000 C 
ATOM     11  C   UNL     1       2.302   3.508  18.025  0.00  0.00    +0.000 C 
BRANCH  10  12
ATOM     12  O   UNL     1       1.115   1.471  18.557  0.00  0.00    +0.000 OA
ATOM     13  H   UNL     1       2.031   1.149  18.569  0.00  0.00    +0.000 HD
ENDBRANCH  10  12
ENDBRANCH   4   6
BRANCH   1  15
ATOM     14  O   UNL     1       5.344   6.287  15.061  0.00  0.00    +0.000 OA
ATOM     15  N   UNL     1       5.523   6.741  16.194  0.00  0.00    +0.000 NA
ENDBRANCH   1  15
BRANCH   1  16
ATOM     16  C   UNL     1       7.257   5.553  17.533  0.00  0.00    +0.000 C 
BRANCH  16  17
ATOM     17  C   UNL     1       7.818   6.538  18.558  0.00  0.00    +0.000 C 
ATOM     18 CL   UNL     1       8.065   8.160  17.868  0.00  0.00    +0.000 Cl
ENDBRANCH  16  17
ENDBRANCH   1  16
TORSDOF 5
ENDMDL
MODEL 7
REMARK VINA RESULT:      -6.2      1.727      1.824
REMARK  Name = 
REMARK  5 active torsions:
REMARK  status: ('A' for Active; 'I' for Inactive)
REMARK    1  A    between atoms: N_2  and  N_3
REMARK    2  A    between atoms: N_3  and  C_4
REMARK    3  A    between atoms: C_4  and  C_5
REMARK    4  A    between atoms: N_9  and  C_10
REMARK    5  A    between atoms: C_14  and  O_15
REMARK                            x       y       z     vdW  Elec       q    Type
REMARK                         _______ _______ _______ _____ _____    ______ ____
ROOT
ATOM      1  N   UNL     1       7.321   5.052  18.369  0.00  0.00    +0.000 N 
ATOM      2  C   UNL     1       6.019   4.752  18.775  0.00  0.00    +0.000 C 
ATOM      3  O   UNL     1       5.426   5.410  19.630  0.00  0.00    +0.000 OA
ATOM      4  N   UNL     1       5.415   3.690  18.130  0.00  0.00    +0.000 N 
ATOM      5  H   UNL     1       6.019   3.046  17.636  0.00  0.00    +0.000 HD
ENDROOT
BRANCH   4   6
ATOM      6  C   UNL     1       4.077   3.212  18.454  0.00  0.00    +0.000 C 
ATOM      7  C   UNL     1       3.021   4.180  17.898  0.00  0.00    +0.000 C 
ATOM      8  C   UNL     1       1.606   3.788  18.313  0.00  0.00    +0.000 C 
ATOM      9  C   UNL     1       1.482   3.621  19.823  0.00  0.00    +0.000 C 
ATOM     10  C   UNL     1       2.516   2.631  20.356  0.00  0.00    +0.000 C 
ATOM     11  C   UNL     1       3.933   3.051  19.970  0.00  0.00    +0.000 C 
BRANCH  10  12
ATOM     12  O   UNL     1       2.407   2.537  21.772  0.00  0.00    +0.000 OA
ATOM     13  H   UNL     1       2.542   3.421  22.153  0.00  0.00    +0.000 HD
ENDBRANCH  10  12
ENDBRANCH   4   6
BRANCH   1  15
ATOM     14  O   UNL     1       7.459   4.541  16.213  0.00  0.00    +0.000 OA
ATOM     15  N   UNL     1       7.915   4.308  17.336  0.00  0.00    +0.000 NA
ENDBRANCH   1  15
BRANCH   1  16
ATOM     16  C   UNL     1       7.967   6.267  18.874  0.00  0.00    +0.000 C 
BRANCH  16  17
ATOM     17  C   UNL     1       7.884   7.477  17.944  0.00  0.00    +0.000 C 
ATOM     18 CL   UNL     1       6.305   7.594  17.131  0.00  0.00    +0.000 Cl
ENDBRANCH  16  17
ENDBRANCH   1  16
TORSDOF 5
ENDMDL
MODEL 8
REMARK VINA RESULT:      -6.2      2.259      3.012
REMARK  Name = 
REMARK  5 active torsions:
REMARK  status: ('A' for Active; 'I' for Inactive)
REMARK    1  A    between atoms: N_2  and  N_3
REMARK    2  A    between atoms: N_3  and  C_4
REMARK    3  A    between atoms: C_4  and  C_5
REMARK    4  A    between atoms: N_9  and  C_10
REMARK    5  A    between atoms: C_14  and  O_15
REMARK                            x       y       z     vdW  Elec       q    Type
REMARK                         _______ _______ _______ _____ _____    ______ ____
ROOT
ATOM      1  N   UNL     1       6.362   5.284  17.694  0.00  0.00    +0.000 N 
ATOM      2  C   UNL     1       4.967   5.243  17.715  0.00  0.00    +0.000 C 
ATOM      3  O   UNL     1       4.278   5.707  16.806  0.00  0.00    +0.000 OA
ATOM      4  N   UNL     1       4.398   4.614  18.807  0.00  0.00    +0.000 N 
ATOM      5  H   UNL     1       4.983   4.484  19.621  0.00  0.00    +0.000 HD
ENDROOT
BRANCH   4   6
ATOM      6  C   UNL     1       2.959   4.517  19.014  0.00  0.00    +0.000 C 
ATOM      7  C   UNL     1       2.626   4.700  20.503  0.00  0.00    +0.000 C 
ATOM      8  C   UNL     1       1.143   4.489  20.791  0.00  0.00    +0.000 C 
ATOM      9  C   UNL     1       0.646   3.149  20.261  0.00  0.00    +0.000 C 
ATOM     10  C   UNL     1       0.954   2.996  18.773  0.00  0.00    +0.000 C 
ATOM     11  C   UNL     1       2.447   3.170  18.497  0.00  0.00    +0.000 C 
BRANCH  10  12
ATOM     12  O   UNL     1       0.523   1.717  18.322  0.00  0.00    +0.000 OA
ATOM     13  H   UNL     1       0.936   1.536  17.461  0.00  0.00    +0.000 HD
ENDBRANCH  10  12
ENDBRANCH   4   6
BRANCH   1  15
ATOM     14  O   UNL     1       7.049   5.269  19.805  0.00  0.00    +0.000 OA
ATOM     15  N   UNL     1       7.091   4.671  18.727  0.00  0.00    +0.000 NA
ENDBRANCH   1  15
BRANCH   1  16
ATOM     16  C   UNL     1       7.046   5.773  16.493  0.00  0.00    +0.000 C 
BRANCH  16  17
ATOM     17  C   UNL     1       7.323   4.711  15.430  0.00  0.00    +0.000 C 
ATOM     18 CL   UNL     1       6.021   4.615  14.219  0.00  0.00    +0.000 Cl
ENDBRANCH  16  17
ENDBRANCH   1  16
TORSDOF 5
ENDMDL
MODEL 9
REMARK VINA RESULT:      -6.1      2.959      6.111
REMARK  Name = 
REMARK  5 active torsions:
REMARK  status: ('A' for Active; 'I' for Inactive)
REMARK    1  A    between atoms: N_2  and  N_3
REMARK    2  A    between atoms: N_3  and  C_4
REMARK    3  A    between atoms: C_4  and  C_5
REMARK    4  A    between atoms: N_9  and  C_10
REMARK    5  A    between atoms: C_14  and  O_15
REMARK                            x       y       z     vdW  Elec       q    Type
REMARK                         _______ _______ _______ _____ _____    ______ ____
ROOT
ATOM      1  N   UNL     1       2.284   2.877  18.751  0.00  0.00    +0.000 N 
ATOM      2  C   UNL     1       3.631   3.240  18.811  0.00  0.00    +0.000 C 
ATOM      3  O   UNL     1       4.331   3.021  19.800  0.00  0.00    +0.000 OA
ATOM      4  N   UNL     1       4.149   3.831  17.674  0.00  0.00    +0.000 N 
ATOM      5  H   UNL     1       3.487   4.208  17.008  0.00  0.00    +0.000 HD
ENDROOT
BRANCH   4   6
ATOM      6  C   UNL     1       5.521   4.310  17.574  0.00  0.00    +0.000 C 
ATOM      7  C   UNL     1       5.702   5.576  18.427  0.00  0.00    +0.000 C 
ATOM      8  C   UNL     1       7.090   6.186  18.264  0.00  0.00    +0.000 C 
ATOM      9  C   UNL     1       7.433   6.437  16.800  0.00  0.00    +0.000 C 
ATOM     10  C   UNL     1       7.281   5.162  15.973  0.00  0.00    +0.000 C 
ATOM     11  C   UNL     1       5.877   4.577  16.110  0.00  0.00    +0.000 C 
BRANCH  10  12
ATOM     12  O   UNL     1       7.560   5.441  14.605  0.00  0.00    +0.000 OA
ATOM     13  H   UNL     1       6.789   5.886  14.216  0.00  0.00    +0.000 HD
ENDBRANCH  10  12
ENDBRANCH   4   6
BRANCH   1  15
ATOM     14  O   UNL     1       1.180   4.250  17.400  0.00  0.00    +0.000 OA
ATOM     15  N   UNL     1       1.561   3.089  17.565  0.00  0.00    +0.000 NA
ENDBRANCH   1  15
BRANCH   1  16
ATOM     16  C   UNL     1       1.705   2.089  19.843  0.00  0.00    +0.000 C 
BRANCH  16  17
ATOM     17  C   UNL     1       1.190   2.906  21.027  0.00  0.00    +0.000 C 
ATOM     18 CL   UNL     1       1.169   4.652  20.681  0.00  0.00    +0.000 Cl
ENDBRANCH  16  17
ENDBRANCH   1  16
TORSDOF 5
ENDMDL
