MODEL 1
REMARK VINA RESULT:      -7.6      0.000      0.000
REMARK  Name = 
REMARK  5 active torsions:
REMARK  status: ('A' for Active; 'I' for Inactive)
REMARK    1  A    between atoms: C_1  and  C_2
REMARK    2  A    between atoms: C_6  and  C_7
REMARK    3  A    between atoms: C_9  and  C_10
REMARK    4  A    between atoms: C_13  and  O_14
REMARK    5  A    between atoms: O_14  and  C_15
REMARK                            x       y       z     vdW  Elec       q    Type
REMARK                         _______ _______ _______ _____ _____    ______ ____
ROOT
ATOM      1  C   UNL     1       0.780   9.803  19.145  0.00  0.00    +0.000 A 
ATOM      2  C   UNL     1       1.640   9.483  18.078  0.00  0.00    +0.000 A 
ATOM      3  C   UNL     1       2.435   8.324  18.095  0.00  0.00    +0.000 A 
ATOM      4  C   UNL     1       2.449   7.499  19.217  0.00  0.00    +0.000 A 
ATOM      5  C   UNL     1       1.732   7.880  20.342  0.00  0.00    +0.000 A 
ATOM      6  C   UNL     1       0.859   8.964  20.270  0.00  0.00    +0.000 A 
ATOM      7  F   UNL     1       0.036   9.151  21.313  0.00  0.00    +0.000 F 
ENDROOT
BRANCH   1  14
ATOM      8  C   UNL     1      -1.828   9.727  17.517  0.00  0.00    +0.000 C 
ATOM      9  C   UNL     1      -1.401  10.887  18.374  0.00  0.00    +0.000 A 
ATOM     10  N   UNL     1      -2.312  11.893  18.382  0.00  0.00    +0.000 NA
ATOM     11  C   UNL     1      -2.045  12.968  19.121  0.00  0.00    +0.000 A 
ATOM     12  N   UNL     1      -0.937  13.152  19.830  0.00  0.00    +0.000 NA
ATOM     13  C   UNL     1      -0.032  12.139  19.796  0.00  0.00    +0.000 A 
ATOM     14  C   UNL     1      -0.192  10.935  19.090  0.00  0.00    +0.000 A 
BRANCH  13  15
ATOM     15  C   UNL     1       1.160  12.475  20.537  0.00  0.00    +0.000 C 
ATOM     16  N   UNL     1       2.119  12.761  21.126  0.00  0.00    +0.000 NA
ENDBRANCH  13  15
ENDBRANCH   1  14
BRANCH   4  17
ATOM     17  O   UNL     1       3.213   6.355  19.162  0.00  0.00    +0.000 OA
BRANCH  17  18
ATOM     18  C   UNL     1       2.554   5.144  18.934  0.00  0.00    +0.000 A 
ATOM     19  N   UNL     1       2.199   4.792  17.664  0.00  0.00    +0.000 NA
ATOM     20  C   UNL     1       1.481   3.669  17.463  0.00  0.00    +0.000 A 
ATOM     21  C   UNL     1       1.105   2.783  18.456  0.00  0.00    +0.000 A 
ATOM     22  C   UNL     1       1.535   3.117  19.738  0.00  0.00    +0.000 A 
ATOM     23  N   UNL     1       1.365   2.460  20.935  0.00  0.00    +0.000 N 
ATOM     24  C   UNL     1       1.953   3.168  21.949  0.00  0.00    +0.000 A 
ATOM     25  C   UNL     1       2.503   4.307  21.406  0.00  0.00    +0.000 A 
ATOM     26  C   UNL     1       2.257   4.285  20.003  0.00  0.00    +0.000 A 
ATOM     27  H   UNL     1       0.880   1.579  21.044  0.00  0.00    +0.000 HD
ENDBRANCH  17  18
ENDBRANCH   4  17
TORSDOF 4
ENDMDL
MODEL 2
REMARK VINA RESULT:      -7.6      2.303      7.924
REMARK  Name = 
REMARK  5 active torsions:
REMARK  status: ('A' for Active; 'I' for Inactive)
REMARK    1  A    between atoms: C_1  and  C_2
REMARK    2  A    between atoms: C_6  and  C_7
REMARK    3  A    between atoms: C_9  and  C_10
REMARK    4  A    between atoms: C_13  and  O_14
REMARK    5  A    between atoms: O_14  and  C_15
REMARK                            x       y       z     vdW  Elec       q    Type
REMARK                         _______ _______ _______ _____ _____    ______ ____
ROOT
ATOM      1  C   UNL     1       3.012   6.791  18.264  0.00  0.00    +0.000 A 
ATOM      2  C   UNL     1       2.515   7.944  17.627  0.00  0.00    +0.000 A 
ATOM      3  C   UNL     1       1.796   8.924  18.334  0.00  0.00    +0.000 A 
ATOM      4  C   UNL     1       1.487   8.734  19.678  0.00  0.00    +0.000 A 
ATOM      5  C   UNL     1       1.828   7.534  20.285  0.00  0.00    +0.000 A 
ATOM      6  C   UNL     1       2.641   6.625  19.610  0.00  0.00    +0.000 A 
ATOM      7  F   UNL     1       3.114   5.590  20.319  0.00  0.00    +0.000 F 
ENDROOT
BRANCH   1  14
ATOM      8  C   UNL     1       5.869   7.465  17.346  0.00  0.00    +0.000 C 
ATOM      9  C   UNL     1       5.230   6.112  17.195  0.00  0.00    +0.000 A 
ATOM     10  N   UNL     1       6.066   5.200  16.637  0.00  0.00    +0.000 NA
ATOM     11  C   UNL     1       5.610   3.960  16.467  0.00  0.00    +0.000 A 
ATOM     12  N   UNL     1       4.386   3.549  16.771  0.00  0.00    +0.000 NA
ATOM     13  C   UNL     1       3.560   4.481  17.314  0.00  0.00    +0.000 A 
ATOM     14  C   UNL     1       3.912   5.815  17.583  0.00  0.00    +0.000 A 
BRANCH  13  15
ATOM     15  C   UNL     1       2.237   3.947  17.536  0.00  0.00    +0.000 C 
ATOM     16  N   UNL     1       1.170   3.532  17.726  0.00  0.00    +0.000 NA
ENDBRANCH  13  15
ENDBRANCH   1  14
BRANCH   4  17
ATOM     17  O   UNL     1       0.819   9.745  20.332  0.00  0.00    +0.000 OA
BRANCH  17  18
ATOM     18  C   UNL     1       0.627  10.947  19.646  0.00  0.00    +0.000 A 
ATOM     19  N   UNL     1       1.518  11.969  19.803  0.00  0.00    +0.000 NA
ATOM     20  C   UNL     1       1.277  13.157  19.214  0.00  0.00    +0.000 A 
ATOM     21  C   UNL     1       0.197  13.426  18.392  0.00  0.00    +0.000 A 
ATOM     22  C   UNL     1      -0.666  12.353  18.181  0.00  0.00    +0.000 A 
ATOM     23  N   UNL     1      -1.804  12.262  17.414  0.00  0.00    +0.000 N 
ATOM     24  C   UNL     1      -2.341  11.007  17.516  0.00  0.00    +0.000 A 
ATOM     25  C   UNL     1      -1.549  10.275  18.370  0.00  0.00    +0.000 A 
ATOM     26  C   UNL     1      -0.475  11.111  18.793  0.00  0.00    +0.000 A 
ATOM     27  H   UNL     1      -2.182  13.015  16.853  0.00  0.00    +0.000 HD
ENDBRANCH  17  18
ENDBRANCH   4  17
TORSDOF 4
ENDMDL
MODEL 3
REMARK VINA RESULT:      -7.6      2.059      7.620
REMARK  Name = 
REMARK  5 active torsions:
REMARK  status: ('A' for Active; 'I' for Inactive)
REMARK    1  A    between atoms: C_1  and  C_2
REMARK    2  A    between atoms: C_6  and  C_7
REMARK    3  A    between atoms: C_9  and  C_10
REMARK    4  A    between atoms: C_13  and  O_14
REMARK    5  A    between atoms: O_14  and  C_15
REMARK                            x       y       z     vdW  Elec       q    Type
REMARK                         _______ _______ _______ _____ _____    ______ ____
ROOT
ATOM      1  C   UNL     1       2.760   6.040  19.053  0.00  0.00    +0.000 A 
ATOM      2  C   UNL     1       2.915   6.598  17.770  0.00  0.00    +0.000 A 
ATOM      3  C   UNL     1       2.602   7.945  17.510  0.00  0.00    +0.000 A 
ATOM      4  C   UNL     1       2.051   8.742  18.509  0.00  0.00    +0.000 A 
ATOM      5  C   UNL     1       1.741   8.170  19.734  0.00  0.00    +0.000 A 
ATOM      6  C   UNL     1       2.163   6.872  20.017  0.00  0.00    +0.000 A 
ATOM      7  F   UNL     1       2.028   6.452  21.283  0.00  0.00    +0.000 F 
ENDROOT
BRANCH   1  14
ATOM      8  C   UNL     1       0.876   3.759  19.891  0.00  0.00    +0.000 C 
ATOM      9  C   UNL     1       2.366   3.615  19.750  0.00  0.00    +0.000 A 
ATOM     10  N   UNL     1       2.795   2.351  20.000  0.00  0.00    +0.000 NA
ATOM     11  C   UNL     1       4.099   2.103  19.891  0.00  0.00    +0.000 A 
ATOM     12  N   UNL     1       5.025   3.004  19.588  0.00  0.00    +0.000 NA
ATOM     13  C   UNL     1       4.576   4.266  19.357  0.00  0.00    +0.000 A 
ATOM     14  C   UNL     1       3.231   4.667  19.401  0.00  0.00    +0.000 A 
BRANCH  13  15
ATOM     15  C   UNL     1       5.670   5.176  19.110  0.00  0.00    +0.000 C 
ATOM     16  N   UNL     1       6.540   5.915  18.898  0.00  0.00    +0.000 NA
ENDBRANCH  13  15
ENDBRANCH   1  14
BRANCH   4  17
ATOM     17  O   UNL     1       1.804  10.064  18.211  0.00  0.00    +0.000 OA
BRANCH  17  18
ATOM     18  C   UNL     1       0.781  10.708  18.910  0.00  0.00    +0.000 A 
ATOM     19  N   UNL     1       1.075  11.454  20.015  0.00  0.00    +0.000 NA
ATOM     20  C   UNL     1       0.074  11.994  20.738  0.00  0.00    +0.000 A 
ATOM     21  C   UNL     1      -1.269  11.902  20.420  0.00  0.00    +0.000 A 
ATOM     22  C   UNL     1      -1.551  11.199  19.251  0.00  0.00    +0.000 A 
ATOM     23  N   UNL     1      -2.754  10.940  18.635  0.00  0.00    +0.000 N 
ATOM     24  C   UNL     1      -2.553  10.195  17.504  0.00  0.00    +0.000 A 
ATOM     25  C   UNL     1      -1.203   9.957  17.388  0.00  0.00    +0.000 A 
ATOM     26  C   UNL     1      -0.551  10.596  18.482  0.00  0.00    +0.000 A 
ATOM     27  H   UNL     1      -3.653  11.260  18.971  0.00  0.00    +0.000 HD
ENDBRANCH  17  18
ENDBRANCH   4  17
TORSDOF 4
ENDMDL
MODEL 4
REMARK VINA RESULT:      -7.5      0.976      1.782
REMARK  Name = 
REMARK  5 active torsions:
REMARK  status: ('A' for Active; 'I' for Inactive)
REMARK    1  A    between atoms: C_1  and  C_2
REMARK    2  A    between atoms: C_6  and  C_7
REMARK    3  A    between atoms: C_9  and  C_10
REMARK    4  A    between atoms: C_13  and  O_14
REMARK    5  A    between atoms: O_14  and  C_15
REMARK                            x       y       z     vdW  Elec       q    Type
REMARK                         _______ _______ _______ _____ _____    ______ ____
ROOT
ATOM      1  C   UNL     1       0.768   9.718  19.215  0.00  0.00    +0.000 A 
ATOM      2  C   UNL     1       1.576   9.414  18.103  0.00  0.00    +0.000 A 
ATOM      3  C   UNL     1       2.381   8.261  18.071  0.00  0.00    +0.000 A 
ATOM      4  C   UNL     1       2.458   7.428  19.183  0.00  0.00    +0.000 A 
ATOM      5  C   UNL     1       1.795   7.793  20.345  0.00  0.00    +0.000 A 
ATOM      6  C   UNL     1       0.910   8.869  20.327  0.00  0.00    +0.000 A 
ATOM      7  F   UNL     1       0.140   9.041  21.411  0.00  0.00    +0.000 F 
ENDROOT
BRANCH   1  14
ATOM      8  C   UNL     1      -1.905   9.643  17.695  0.00  0.00    +0.000 C 
ATOM      9  C   UNL     1      -1.452  10.793  18.553  0.00  0.00    +0.000 A 
ATOM     10  N   UNL     1      -2.371  11.790  18.615  0.00  0.00    +0.000 NA
ATOM     11  C   UNL     1      -2.082  12.856  19.359  0.00  0.00    +0.000 A 
ATOM     12  N   UNL     1      -0.948  13.039  20.024  0.00  0.00    +0.000 NA
ATOM     13  C   UNL     1      -0.036  12.035  19.936  0.00  0.00    +0.000 A 
ATOM     14  C   UNL     1      -0.215  10.841  19.219  0.00  0.00    +0.000 A 
BRANCH  13  15
ATOM     15  C   UNL     1       1.183  12.370  20.633  0.00  0.00    +0.000 C 
ATOM     16  N   UNL     1       2.166  12.654  21.182  0.00  0.00    +0.000 NA
ENDBRANCH  13  15
ENDBRANCH   1  14
BRANCH   4  17
ATOM     17  O   UNL     1       3.228   6.291  19.080  0.00  0.00    +0.000 OA
BRANCH  17  18
ATOM     18  C   UNL     1       2.711   5.106  19.610  0.00  0.00    +0.000 A 
ATOM     19  N   UNL     1       2.304   5.063  20.912  0.00  0.00    +0.000 NA
ATOM     20  C   UNL     1       1.896   3.893  21.442  0.00  0.00    +0.000 A 
ATOM     21  C   UNL     1       1.797   2.702  20.746  0.00  0.00    +0.000 A 
ATOM     22  C   UNL     1       2.146   2.776  19.399  0.00  0.00    +0.000 A 
ATOM     23  N   UNL     1       2.140   1.806  18.423  0.00  0.00    +0.000 N 
ATOM     24  C   UNL     1       2.578   2.331  17.236  0.00  0.00    +0.000 A 
ATOM     25  C   UNL     1       2.882   3.656  17.445  0.00  0.00    +0.000 A 
ATOM     26  C   UNL     1       2.603   3.958  18.810  0.00  0.00    +0.000 A 
ATOM     27  H   UNL     1       1.850   0.848  18.566  0.00  0.00    +0.000 HD
ENDBRANCH  17  18
ENDBRANCH   4  17
TORSDOF 4
ENDMDL
MODEL 5
REMARK VINA RESULT:      -7.5      2.217      7.614
REMARK  Name = 
REMARK  5 active torsions:
REMARK  status: ('A' for Active; 'I' for Inactive)
REMARK    1  A    between atoms: C_1  and  C_2
REMARK    2  A    between atoms: C_6  and  C_7
REMARK    3  A    between atoms: C_9  and  C_10
REMARK    4  A    between atoms: C_13  and  O_14
REMARK    5  A    between atoms: O_14  and  C_15
REMARK                            x       y       z     vdW  Elec       q    Type
REMARK                         _______ _______ _______ _____ _____    ______ ____
ROOT
ATOM      1  C   UNL     1       2.666   5.604  18.988  0.00  0.00    +0.000 A 
ATOM      2  C   UNL     1       2.794   6.376  17.818  0.00  0.00    +0.000 A 
ATOM      3  C   UNL     1       2.516   7.755  17.811  0.00  0.00    +0.000 A 
ATOM      4  C   UNL     1       2.025   8.377  18.955  0.00  0.00    +0.000 A 
ATOM      5  C   UNL     1       1.740   7.605  20.072  0.00  0.00    +0.000 A 
ATOM      6  C   UNL     1       2.129   6.267  20.106  0.00  0.00    +0.000 A 
ATOM      7  F   UNL     1       2.025   5.633  21.282  0.00  0.00    +0.000 F 
ENDROOT
BRANCH   1  14
ATOM      8  C   UNL     1       0.734   3.218  18.817  0.00  0.00    +0.000 C 
ATOM      9  C   UNL     1       2.226   3.088  18.956  0.00  0.00    +0.000 A 
ATOM     10  N   UNL     1       2.639   1.795  18.965  0.00  0.00    +0.000 NA
ATOM     11  C   UNL     1       3.945   1.560  19.070  0.00  0.00    +0.000 A 
ATOM     12  N   UNL     1       4.881   2.492  19.202  0.00  0.00    +0.000 NA
ATOM     13  C   UNL     1       4.444   3.779  19.206  0.00  0.00    +0.000 A 
ATOM     14  C   UNL     1       3.105   4.180  19.070  0.00  0.00    +0.000 A 
BRANCH  13  15
ATOM     15  C   UNL     1       5.532   4.703  19.428  0.00  0.00    +0.000 C 
ATOM     16  N   UNL     1       6.414   5.441  19.590  0.00  0.00    +0.000 NA
ENDBRANCH  13  15
ENDBRANCH   1  14
BRANCH   4  17
ATOM     17  O   UNL     1       1.811   9.736  18.905  0.00  0.00    +0.000 OA
BRANCH  17  18
ATOM     18  C   UNL     1       0.488  10.185  18.880  0.00  0.00    +0.000 A 
ATOM     19  N   UNL     1      -0.312   9.888  17.815  0.00  0.00    +0.000 NA
ATOM     20  C   UNL     1      -1.556  10.404  17.754  0.00  0.00    +0.000 A 
ATOM     21  C   UNL     1      -2.133  11.191  18.734  0.00  0.00    +0.000 A 
ATOM     22  C   UNL     1      -1.332  11.427  19.849  0.00  0.00    +0.000 A 
ATOM     23  N   UNL     1      -1.593  12.133  21.001  0.00  0.00    +0.000 N 
ATOM     24  C   UNL     1      -0.500  12.110  21.825  0.00  0.00    +0.000 A 
ATOM     25  C   UNL     1       0.489  11.389  21.197  0.00  0.00    +0.000 A 
ATOM     26  C   UNL     1      -0.026  10.939  19.947  0.00  0.00    +0.000 A 
ATOM     27  H   UNL     1      -2.469  12.596  21.206  0.00  0.00    +0.000 HD
ENDBRANCH  17  18
ENDBRANCH   4  17
TORSDOF 4
ENDMDL
MODEL 6
REMARK VINA RESULT:      -7.5      1.034      1.396
REMARK  Name = 
REMARK  5 active torsions:
REMARK  status: ('A' for Active; 'I' for Inactive)
REMARK    1  A    between atoms: C_1  and  C_2
REMARK    2  A    between atoms: C_6  and  C_7
REMARK    3  A    between atoms: C_9  and  C_10
REMARK    4  A    between atoms: C_13  and  O_14
REMARK    5  A    between atoms: O_14  and  C_15
REMARK                            x       y       z     vdW  Elec       q    Type
REMARK                         _______ _______ _______ _____ _____    ______ ____
ROOT
ATOM      1  C   UNL     1       0.498   9.692  19.490  0.00  0.00    +0.000 A 
ATOM      2  C   UNL     1       0.548   8.819  20.593  0.00  0.00    +0.000 A 
ATOM      3  C   UNL     1       1.476   7.764  20.655  0.00  0.00    +0.000 A 
ATOM      4  C   UNL     1       2.319   7.507  19.578  0.00  0.00    +0.000 A 
ATOM      5  C   UNL     1       2.177   8.254  18.418  0.00  0.00    +0.000 A 
ATOM      6  C   UNL     1       1.340   9.369  18.412  0.00  0.00    +0.000 A 
ATOM      7  F   UNL     1       1.408  10.174  17.342  0.00  0.00    +0.000 F 
ENDROOT
BRANCH   1  14
ATOM      8  C   UNL     1      -2.254   9.807  18.122  0.00  0.00    +0.000 C 
ATOM      9  C   UNL     1      -1.633  10.956  18.868  0.00  0.00    +0.000 A 
ATOM     10  N   UNL     1      -2.436  12.050  18.905  0.00  0.00    +0.000 NA
ATOM     11  C   UNL     1      -1.993  13.125  19.553  0.00  0.00    +0.000 A 
ATOM     12  N   UNL     1      -0.809  13.228  20.143  0.00  0.00    +0.000 NA
ATOM     13  C   UNL     1      -0.014  12.127  20.081  0.00  0.00    +0.000 A 
ATOM     14  C   UNL     1      -0.360  10.913  19.463  0.00  0.00    +0.000 A 
BRANCH  13  15
ATOM     15  C   UNL     1       1.273  12.373  20.687  0.00  0.00    +0.000 C 
ATOM     16  N   UNL     1       2.300  12.578  21.189  0.00  0.00    +0.000 NA
ENDBRANCH  13  15
ENDBRANCH   1  14
BRANCH   4  17
ATOM     17  O   UNL     1       3.236   6.488  19.710  0.00  0.00    +0.000 OA
BRANCH  17  18
ATOM     18  C   UNL     1       2.916   5.249  19.150  0.00  0.00    +0.000 A 
ATOM     19  N   UNL     1       3.141   5.023  17.823  0.00  0.00    +0.000 NA
ATOM     20  C   UNL     1       2.743   3.860  17.270  0.00  0.00    +0.000 A 
ATOM     21  C   UNL     1       2.155   2.817  17.963  0.00  0.00    +0.000 A 
ATOM     22  C   UNL     1       1.997   3.031  19.330  0.00  0.00    +0.000 A 
ATOM     23  N   UNL     1       1.482   2.211  20.308  0.00  0.00    +0.000 N 
ATOM     24  C   UNL     1       1.512   2.847  21.520  0.00  0.00    +0.000 A 
ATOM     25  C   UNL     1       2.043   4.101  21.327  0.00  0.00    +0.000 A 
ATOM     26  C   UNL     1       2.366   4.231  19.946  0.00  0.00    +0.000 A 
ATOM     27  H   UNL     1       1.137   1.273  20.149  0.00  0.00    +0.000 HD
ENDBRANCH  17  18
ENDBRANCH   4  17
TORSDOF 4
ENDMDL
MODEL 7
REMARK VINA RESULT:      -7.4      1.781      3.268
REMARK  Name = 
REMARK  5 active torsions:
REMARK  status: ('A' for Active; 'I' for Inactive)
REMARK    1  A    between atoms: C_1  and  C_2
REMARK    2  A    between atoms: C_6  and  C_7
REMARK    3  A    between atoms: C_9  and  C_10
REMARK    4  A    between atoms: C_13  and  O_14
REMARK    5  A    between atoms: O_14  and  C_15
REMARK                            x       y       z     vdW  Elec       q    Type
REMARK                         _______ _______ _______ _____ _____    ______ ____
ROOT
ATOM      1  C   UNL     1       0.884   9.822  19.420  0.00  0.00    +0.000 A 
ATOM      2  C   UNL     1       0.677   9.078  20.597  0.00  0.00    +0.000 A 
ATOM      3  C   UNL     1       1.342   7.860  20.825  0.00  0.00    +0.000 A 
ATOM      4  C   UNL     1       2.167   7.317  19.844  0.00  0.00    +0.000 A 
ATOM      5  C   UNL     1       2.260   7.953  18.615  0.00  0.00    +0.000 A 
ATOM      6  C   UNL     1       1.693   9.214  18.444  0.00  0.00    +0.000 A 
ATOM      7  F   UNL     1       1.998   9.870  17.315  0.00  0.00    +0.000 F 
ENDROOT
BRANCH   1  14
ATOM      8  C   UNL     1       2.178  12.376  20.542  0.00  0.00    +0.000 C 
ATOM      9  C   UNL     1       0.931  12.360  19.701  0.00  0.00    +0.000 A 
ATOM     10  N   UNL     1       0.451  13.606  19.456  0.00  0.00    +0.000 NA
ATOM     11  C   UNL     1      -0.645  13.714  18.707  0.00  0.00    +0.000 A 
ATOM     12  N   UNL     1      -1.330  12.695  18.204  0.00  0.00    +0.000 NA
ATOM     13  C   UNL     1      -0.840  11.456  18.473  0.00  0.00    +0.000 A 
ATOM     14  C   UNL     1       0.321  11.189  19.218  0.00  0.00    +0.000 A 
BRANCH  13  15
ATOM     15  C   UNL     1      -1.699  10.424  17.942  0.00  0.00    +0.000 C 
ATOM     16  N   UNL     1      -2.400   9.607  17.506  0.00  0.00    +0.000 NA
ENDBRANCH  13  15
ENDBRANCH   1  14
BRANCH   4  17
ATOM     17  O   UNL     1       2.826   6.145  20.138  0.00  0.00    +0.000 OA
BRANCH  17  18
ATOM     18  C   UNL     1       2.749   5.105  19.208  0.00  0.00    +0.000 A 
ATOM     19  N   UNL     1       1.576   4.428  19.040  0.00  0.00    +0.000 NA
ATOM     20  C   UNL     1       1.534   3.366  18.211  0.00  0.00    +0.000 A 
ATOM     21  C   UNL     1       2.597   2.918  17.447  0.00  0.00    +0.000 A 
ATOM     22  C   UNL     1       3.768   3.662  17.573  0.00  0.00    +0.000 A 
ATOM     23  N   UNL     1       4.987   3.517  16.951  0.00  0.00    +0.000 N 
ATOM     24  C   UNL     1       5.858   4.476  17.394  0.00  0.00    +0.000 A 
ATOM     25  C   UNL     1       5.201   5.249  18.323  0.00  0.00    +0.000 A 
ATOM     26  C   UNL     1       3.871   4.753  18.440  0.00  0.00    +0.000 A 
ATOM     27  H   UNL     1       5.202   2.805  16.265  0.00  0.00    +0.000 HD
ENDBRANCH  17  18
ENDBRANCH   4  17
TORSDOF 4
ENDMDL
MODEL 8
REMARK VINA RESULT:      -7.4      2.363      8.024
REMARK  Name = 
REMARK  5 active torsions:
REMARK  status: ('A' for Active; 'I' for Inactive)
REMARK    1  A    between atoms: C_1  and  C_2
REMARK    2  A    between atoms: C_6  and  C_7
REMARK    3  A    between atoms: C_9  and  C_10
REMARK    4  A    between atoms: C_13  and  O_14
REMARK    5  A    between atoms: O_14  and  C_15
REMARK                            x       y       z     vdW  Elec       q    Type
REMARK                         _______ _______ _______ _____ _____    ______ ____
ROOT
ATOM      1  C   UNL     1       3.169   6.653  18.456  0.00  0.00    +0.000 A 
ATOM      2  C   UNL     1       2.727   6.484  19.782  0.00  0.00    +0.000 A 
ATOM      3  C   UNL     1       1.833   7.389  20.381  0.00  0.00    +0.000 A 
ATOM      4  C   UNL     1       1.425   8.530  19.695  0.00  0.00    +0.000 A 
ATOM      5  C   UNL     1       1.973   8.799  18.449  0.00  0.00    +0.000 A 
ATOM      6  C   UNL     1       2.762   7.839  17.819  0.00  0.00    +0.000 A 
ATOM      7  F   UNL     1       3.082   8.062  16.536  0.00  0.00    +0.000 F 
ENDROOT
BRANCH   1  14
ATOM      8  C   UNL     1       6.059   7.136  17.522  0.00  0.00    +0.000 C 
ATOM      9  C   UNL     1       5.319   5.839  17.343  0.00  0.00    +0.000 A 
ATOM     10  N   UNL     1       6.079   4.883  16.750  0.00  0.00    +0.000 NA
ATOM     11  C   UNL     1       5.529   3.686  16.553  0.00  0.00    +0.000 A 
ATOM     12  N   UNL     1       4.280   3.358  16.861  0.00  0.00    +0.000 NA
ATOM     13  C   UNL     1       3.533   4.335  17.439  0.00  0.00    +0.000 A 
ATOM     14  C   UNL     1       3.987   5.631  17.739  0.00  0.00    +0.000 A 
BRANCH  13  15
ATOM     15  C   UNL     1       2.176   3.896  17.663  0.00  0.00    +0.000 C 
ATOM     16  N   UNL     1       1.083   3.537  17.825  0.00  0.00    +0.000 NA
ENDBRANCH  13  15
ENDBRANCH   1  14
BRANCH   4  17
ATOM     17  O   UNL     1       0.516   9.359  20.313  0.00  0.00    +0.000 OA
BRANCH  17  18
ATOM     18  C   UNL     1       0.369  10.653  19.809  0.00  0.00    +0.000 A 
ATOM     19  N   UNL     1       1.166  11.659  20.273  0.00  0.00    +0.000 NA
ATOM     20  C   UNL     1       0.956  12.922  19.851  0.00  0.00    +0.000 A 
ATOM     21  C   UNL     1       0.005  13.295  18.918  0.00  0.00    +0.000 A 
ATOM     22  C   UNL     1      -0.753  12.249  18.398  0.00  0.00    +0.000 A 
ATOM     23  N   UNL     1      -1.750  12.256  17.450  0.00  0.00    +0.000 N 
ATOM     24  C   UNL     1      -2.227  10.986  17.259  0.00  0.00    +0.000 A 
ATOM     25  C   UNL     1      -1.540  10.144  18.102  0.00  0.00    +0.000 A 
ATOM     26  C   UNL     1      -0.593  10.927  18.824  0.00  0.00    +0.000 A 
ATOM     27  H   UNL     1      -2.076  13.081  16.964  0.00  0.00    +0.000 HD
ENDBRANCH  17  18
ENDBRANCH   4  17
TORSDOF 4
ENDMDL
MODEL 9
REMARK VINA RESULT:      -7.4      2.336      7.971
REMARK  Name = 
REMARK  5 active torsions:
REMARK  status: ('A' for Active; 'I' for Inactive)
REMARK    1  A    between atoms: C_1  and  C_2
REMARK    2  A    between atoms: C_6  and  C_7
REMARK    3  A    between atoms: C_9  and  C_10
REMARK    4  A    between atoms: C_13  and  O_14
REMARK    5  A    between atoms: O_14  and  C_15
REMARK                            x       y       z     vdW  Elec       q    Type
REMARK                         _______ _______ _______ _____ _____    ______ ____
ROOT
ATOM      1  C   UNL     1       3.038   6.807  18.196  0.00  0.00    +0.000 A 
ATOM      2  C   UNL     1       2.608   7.953  17.500  0.00  0.00    +0.000 A 
ATOM      3  C   UNL     1       1.920   8.994  18.149  0.00  0.00    +0.000 A 
ATOM      4  C   UNL     1       1.573   8.875  19.491  0.00  0.00    +0.000 A 
ATOM      5  C   UNL     1       1.846   7.688  20.156  0.00  0.00    +0.000 A 
ATOM      6  C   UNL     1       2.630   6.716  19.538  0.00  0.00    +0.000 A 
ATOM      7  F   UNL     1       3.040   5.692  20.301  0.00  0.00    +0.000 F 
ENDROOT
BRANCH   1  14
ATOM      8  C   UNL     1       5.938   7.316  17.309  0.00  0.00    +0.000 C 
ATOM      9  C   UNL     1       5.243   5.986  17.204  0.00  0.00    +0.000 A 
ATOM     10  N   UNL     1       6.049   5.014  16.704  0.00  0.00    +0.000 NA
ATOM     11  C   UNL     1       5.542   3.789  16.580  0.00  0.00    +0.000 A 
ATOM     12  N   UNL     1       4.295   3.444  16.877  0.00  0.00    +0.000 NA
ATOM     13  C   UNL     1       3.501   4.435  17.361  0.00  0.00    +0.000 A 
ATOM     14  C   UNL     1       3.906   5.763  17.578  0.00  0.00    +0.000 A 
BRANCH  13  15
ATOM     15  C   UNL     1       2.153   3.969  17.579  0.00  0.00    +0.000 C 
ATOM     16  N   UNL     1       1.074   3.578  17.758  0.00  0.00    +0.000 NA
ENDBRANCH  13  15
ENDBRANCH   1  14
BRANCH   4  17
ATOM     17  O   UNL     1       0.938   9.942  20.086  0.00  0.00    +0.000 OA
BRANCH  17  18
ATOM     18  C   UNL     1      -0.086  10.570  19.372  0.00  0.00    +0.000 A 
ATOM     19  N   UNL     1      -1.174   9.851  18.970  0.00  0.00    +0.000 NA
ATOM     20  C   UNL     1      -2.112  10.440  18.201  0.00  0.00    +0.000 A 
ATOM     21  C   UNL     1      -2.096  11.768  17.814  0.00  0.00    +0.000 A 
ATOM     22  C   UNL     1      -1.017  12.509  18.291  0.00  0.00    +0.000 A 
ATOM     23  N   UNL     1      -0.705  13.839  18.124  0.00  0.00    +0.000 N 
ATOM     24  C   UNL     1       0.468  14.131  18.767  0.00  0.00    +0.000 A 
ATOM     25  C   UNL     1       0.932  12.974  19.350  0.00  0.00    +0.000 A 
ATOM     26  C   UNL     1      -0.004  11.938  19.067  0.00  0.00    +0.000 A 
ATOM     27  H   UNL     1      -1.267  14.500  17.606  0.00  0.00    +0.000 HD
ENDBRANCH  17  18
ENDBRANCH   4  17
TORSDOF 4
ENDMDL
