MODEL 1
REMARK VINA RESULT:      -7.4      0.000      0.000
REMARK  Name = 
REMARK  8 active torsions:
REMARK  status: ('A' for Active; 'I' for Inactive)
REMARK    1  A    between atoms: C_2  and  C_3
REMARK    2  A    between atoms: C_3  and  C_4
REMARK    3  A    between atoms: C_6  and  C_7
REMARK    4  A    between atoms: C_10  and  O_11
REMARK    5  A    between atoms: O_11  and  C_12
REMARK    6  A    between atoms: C_14  and  O_15
REMARK    7  A    between atoms: O_15  and  C_16
REMARK    8  A    between atoms: C_19  and  O_20
REMARK                            x       y       z     vdW  Elec       q    Type
REMARK                         _______ _______ _______ _____ _____    ______ ____
ROOT
ATOM      1  C   UNL     1       6.064   4.307  14.286  0.00  0.00    +0.000 A 
ATOM      2  C   UNL     1       5.017   4.051  15.191  0.00  0.00    +0.000 A 
ATOM      3  C   UNL     1       5.017   4.513  16.531  0.00  0.00    +0.000 A 
ATOM      4  C   UNL     1       6.095   5.331  16.902  0.00  0.00    +0.000 A 
ATOM      5  C   UNL     1       7.120   5.655  15.997  0.00  0.00    +0.000 A 
ATOM      6  C   UNL     1       7.106   5.127  14.705  0.00  0.00    +0.000 A 
ENDROOT
BRANCH   3   7
ATOM      7  C   UNL     1       3.969   4.051  17.497  0.00  0.00    +0.000 A 
ATOM      8  C   UNL     1       3.889   2.664  17.771  0.00  0.00    +0.000 A 
ATOM      9  C   UNL     1       2.950   2.110  18.647  0.00  0.00    +0.000 A 
ATOM     10  C   UNL     1       2.056   2.938  19.299  0.00  0.00    +0.000 A 
ATOM     11  C   UNL     1       2.117   4.311  19.078  0.00  0.00    +0.000 A 
ATOM     12  C   UNL     1       3.064   4.882  18.203  0.00  0.00    +0.000 A 
BRANCH  10  13
ATOM     13  O   UNL     1       1.086   2.540  20.178  0.00  0.00    +0.000 OA
ATOM     14  C   UNL     1       1.342   2.777  21.556  0.00  0.00    +0.000 C 
ENDBRANCH  10  13
BRANCH  12  15
ATOM     15  O   UNL     1       3.098   6.241  17.985  0.00  0.00    +0.000 OA
ATOM     16  C   UNL     1       2.457   7.051  18.974  0.00  0.00    +0.000 C 
ENDBRANCH  12  15
ENDBRANCH   3   7
BRANCH   6  17
ATOM     17  O   UNL     1       8.128   5.398  13.844  0.00  0.00    +0.000 OA
ATOM     18  H   UNL     1       8.966   5.148  14.263  0.00  0.00    +0.000 HD
ENDBRANCH   6  17
BRANCH   1  19
ATOM     19  C   UNL     1       6.072   3.620  12.938  0.00  0.00    +0.000 C 
BRANCH  19  21
ATOM     20  C   UNL     1       4.309   3.016  11.230  0.00  0.00    +0.000 C 
ATOM     21  C   UNL     1       4.775   3.820  12.193  0.00  0.00    +0.000 C 
ENDBRANCH  19  21
ENDBRANCH   1  19
TORSDOF 6
ENDMDL
MODEL 2
REMARK VINA RESULT:      -7.2      1.677      6.937
REMARK  Name = 
REMARK  8 active torsions:
REMARK  status: ('A' for Active; 'I' for Inactive)
REMARK    1  A    between atoms: C_2  and  C_3
REMARK    2  A    between atoms: C_3  and  C_4
REMARK    3  A    between atoms: C_6  and  C_7
REMARK    4  A    between atoms: C_10  and  O_11
REMARK    5  A    between atoms: O_11  and  C_12
REMARK    6  A    between atoms: C_14  and  O_15
REMARK    7  A    between atoms: O_15  and  C_16
REMARK    8  A    between atoms: C_19  and  O_20
REMARK                            x       y       z     vdW  Elec       q    Type
REMARK                         _______ _______ _______ _____ _____    ______ ____
ROOT
ATOM      1  C   UNL     1       2.426   4.220  19.820  0.00  0.00    +0.000 A 
ATOM      2  C   UNL     1       3.334   4.619  18.819  0.00  0.00    +0.000 A 
ATOM      3  C   UNL     1       3.962   3.708  17.934  0.00  0.00    +0.000 A 
ATOM      4  C   UNL     1       3.567   2.367  18.043  0.00  0.00    +0.000 A 
ATOM      5  C   UNL     1       2.615   1.954  18.990  0.00  0.00    +0.000 A 
ATOM      6  C   UNL     1       2.067   2.879  19.881  0.00  0.00    +0.000 A 
ENDROOT
BRANCH   3   7
ATOM      7  C   UNL     1       5.056   4.167  17.018  0.00  0.00    +0.000 A 
ATOM      8  C   UNL     1       4.769   4.244  15.634  0.00  0.00    +0.000 A 
ATOM      9  C   UNL     1       5.707   4.651  14.679  0.00  0.00    +0.000 A 
ATOM     10  C   UNL     1       6.978   5.013  15.085  0.00  0.00    +0.000 A 
ATOM     11  C   UNL     1       7.294   4.976  16.440  0.00  0.00    +0.000 A 
ATOM     12  C   UNL     1       6.355   4.575  17.412  0.00  0.00    +0.000 A 
BRANCH  10  13
ATOM     13  O   UNL     1       7.995   5.428  14.268  0.00  0.00    +0.000 OA
ATOM     14  C   UNL     1       7.834   5.181  12.877  0.00  0.00    +0.000 C 
ENDBRANCH  10  13
BRANCH  12  15
ATOM     15  O   UNL     1       6.692   4.530  18.746  0.00  0.00    +0.000 OA
ATOM     16  C   UNL     1       7.438   5.644  19.243  0.00  0.00    +0.000 C 
ENDBRANCH  12  15
ENDBRANCH   3   7
BRANCH   6  17
ATOM     17  O   UNL     1       1.183   2.469  20.835  0.00  0.00    +0.000 OA
ATOM     18  H   UNL     1       1.534   2.704  21.709  0.00  0.00    +0.000 HD
ENDBRANCH   6  17
BRANCH   1  19
ATOM     19  C   UNL     1       1.949   5.230  20.840  0.00  0.00    +0.000 C 
BRANCH  19  21
ATOM     20  C   UNL     1       1.416   7.701  20.917  0.00  0.00    +0.000 C 
ATOM     21  C   UNL     1       1.857   6.621  20.260  0.00  0.00    +0.000 C 
ENDBRANCH  19  21
ENDBRANCH   1  19
TORSDOF 6
ENDMDL
MODEL 3
REMARK VINA RESULT:      -6.8      2.664      5.163
REMARK  Name = 
REMARK  8 active torsions:
REMARK  status: ('A' for Active; 'I' for Inactive)
REMARK    1  A    between atoms: C_2  and  C_3
REMARK    2  A    between atoms: C_3  and  C_4
REMARK    3  A    between atoms: C_6  and  C_7
REMARK    4  A    between atoms: C_10  and  O_11
REMARK    5  A    between atoms: O_11  and  C_12
REMARK    6  A    between atoms: C_14  and  O_15
REMARK    7  A    between atoms: O_15  and  C_16
REMARK    8  A    between atoms: C_19  and  O_20
REMARK                            x       y       z     vdW  Elec       q    Type
REMARK                         _______ _______ _______ _____ _____    ______ ____
ROOT
ATOM      1  C   UNL     1       5.768   5.266  17.300  0.00  0.00    +0.000 A 
ATOM      2  C   UNL     1       4.931   6.102  18.064  0.00  0.00    +0.000 A 
ATOM      3  C   UNL     1       3.536   5.890  18.201  0.00  0.00    +0.000 A 
ATOM      4  C   UNL     1       3.025   4.732  17.596  0.00  0.00    +0.000 A 
ATOM      5  C   UNL     1       3.851   3.847  16.883  0.00  0.00    +0.000 A 
ATOM      6  C   UNL     1       5.209   4.129  16.726  0.00  0.00    +0.000 A 
ENDROOT
BRANCH   3   7
ATOM      7  C   UNL     1       2.672   6.916  18.869  0.00  0.00    +0.000 A 
ATOM      8  C   UNL     1       2.402   8.113  18.161  0.00  0.00    +0.000 A 
ATOM      9  C   UNL     1       1.616   9.147  18.680  0.00  0.00    +0.000 A 
ATOM     10  C   UNL     1       1.054   9.011  19.935  0.00  0.00    +0.000 A 
ATOM     11  C   UNL     1       1.273   7.839  20.654  0.00  0.00    +0.000 A 
ATOM     12  C   UNL     1       2.057   6.787  20.139  0.00  0.00    +0.000 A 
BRANCH  10  13
ATOM     13  O   UNL     1       0.268   9.936  20.568  0.00  0.00    +0.000 OA
ATOM     14  C   UNL     1       0.828  11.230  20.747  0.00  0.00    +0.000 C 
ENDBRANCH  10  13
BRANCH  12  15
ATOM     15  O   UNL     1       2.275   5.642  20.871  0.00  0.00    +0.000 OA
ATOM     16  C   UNL     1       1.317   4.595  20.699  0.00  0.00    +0.000 C 
ENDBRANCH  12  15
ENDBRANCH   3   7
BRANCH   6  17
ATOM     17  O   UNL     1       6.000   3.298  15.989  0.00  0.00    +0.000 OA
ATOM     18  H   UNL     1       6.022   2.427  16.416  0.00  0.00    +0.000 HD
ENDBRANCH   6  17
BRANCH   1  19
ATOM     19  C   UNL     1       7.205   5.670  17.054  0.00  0.00    +0.000 C 
BRANCH  19  21
ATOM     20  C   UNL     1       7.863   8.049  17.604  0.00  0.00    +0.000 C 
ATOM     21  C   UNL     1       7.646   6.781  17.976  0.00  0.00    +0.000 C 
ENDBRANCH  19  21
ENDBRANCH   1  19
TORSDOF 6
ENDMDL
MODEL 4
REMARK VINA RESULT:      -6.8      2.876      6.554
REMARK  Name = 
REMARK  8 active torsions:
REMARK  status: ('A' for Active; 'I' for Inactive)
REMARK    1  A    between atoms: C_2  and  C_3
REMARK    2  A    between atoms: C_3  and  C_4
REMARK    3  A    between atoms: C_6  and  C_7
REMARK    4  A    between atoms: C_10  and  O_11
REMARK    5  A    between atoms: O_11  and  C_12
REMARK    6  A    between atoms: C_14  and  O_15
REMARK    7  A    between atoms: O_15  and  C_16
REMARK    8  A    between atoms: C_19  and  O_20
REMARK                            x       y       z     vdW  Elec       q    Type
REMARK                         _______ _______ _______ _____ _____    ______ ____
ROOT
ATOM      1  C   UNL     1       1.929   3.615  19.067  0.00  0.00    +0.000 A 
ATOM      2  C   UNL     1       2.937   4.577  18.865  0.00  0.00    +0.000 A 
ATOM      3  C   UNL     1       4.010   4.400  17.955  0.00  0.00    +0.000 A 
ATOM      4  C   UNL     1       3.976   3.231  17.181  0.00  0.00    +0.000 A 
ATOM      5  C   UNL     1       2.945   2.286  17.318  0.00  0.00    +0.000 A 
ATOM      6  C   UNL     1       1.942   2.477  18.270  0.00  0.00    +0.000 A 
ENDROOT
BRANCH   3   7
ATOM      7  C   UNL     1       5.150   5.372  17.922  0.00  0.00    +0.000 A 
ATOM      8  C   UNL     1       6.390   4.952  18.461  0.00  0.00    +0.000 A 
ATOM      9  C   UNL     1       7.525   5.769  18.495  0.00  0.00    +0.000 A 
ATOM     10  C   UNL     1       7.461   7.046  17.971  0.00  0.00    +0.000 A 
ATOM     11  C   UNL     1       6.267   7.489  17.409  0.00  0.00    +0.000 A 
ATOM     12  C   UNL     1       5.119   6.673  17.362  0.00  0.00    +0.000 A 
BRANCH  10  13
ATOM     13  O   UNL     1       8.485   7.953  17.936  0.00  0.00    +0.000 OA
ATOM     14  C   UNL     1       8.118   9.327  17.942  0.00  0.00    +0.000 C 
ENDBRANCH  10  13
BRANCH  12  15
ATOM     15  O   UNL     1       3.943   7.135  16.815  0.00  0.00    +0.000 OA
ATOM     16  C   UNL     1       3.156   7.989  17.650  0.00  0.00    +0.000 C 
ENDBRANCH  12  15
ENDBRANCH   3   7
BRANCH   6  17
ATOM     17  O   UNL     1       0.971   1.534  18.439  0.00  0.00    +0.000 OA
ATOM     18  H   UNL     1       0.979   0.935  17.676  0.00  0.00    +0.000 HD
ENDBRANCH   6  17
BRANCH   1  19
ATOM     19  C   UNL     1       0.932   3.803  20.189  0.00  0.00    +0.000 C 
BRANCH  19  21
ATOM     20  C   UNL     1       2.428   2.500  21.756  0.00  0.00    +0.000 C 
ATOM     21  C   UNL     1       1.523   3.461  21.535  0.00  0.00    +0.000 C 
ENDBRANCH  19  21
ENDBRANCH   1  19
TORSDOF 6
ENDMDL
MODEL 5
REMARK VINA RESULT:      -6.7      1.541      1.629
REMARK  Name = 
REMARK  8 active torsions:
REMARK  status: ('A' for Active; 'I' for Inactive)
REMARK    1  A    between atoms: C_2  and  C_3
REMARK    2  A    between atoms: C_3  and  C_4
REMARK    3  A    between atoms: C_6  and  C_7
REMARK    4  A    between atoms: C_10  and  O_11
REMARK    5  A    between atoms: O_11  and  C_12
REMARK    6  A    between atoms: C_14  and  O_15
REMARK    7  A    between atoms: O_15  and  C_16
REMARK    8  A    between atoms: C_19  and  O_20
REMARK                            x       y       z     vdW  Elec       q    Type
REMARK                         _______ _______ _______ _____ _____    ______ ____
ROOT
ATOM      1  C   UNL     1       6.150   4.116  13.736  0.00  0.00    +0.000 A 
ATOM      2  C   UNL     1       5.248   3.824  14.777  0.00  0.00    +0.000 A 
ATOM      3  C   UNL     1       5.341   4.398  16.070  0.00  0.00    +0.000 A 
ATOM      4  C   UNL     1       6.346   5.361  16.247  0.00  0.00    +0.000 A 
ATOM      5  C   UNL     1       7.218   5.717  15.204  0.00  0.00    +0.000 A 
ATOM      6  C   UNL     1       7.125   5.080  13.965  0.00  0.00    +0.000 A 
ENDROOT
BRANCH   3   7
ATOM      7  C   UNL     1       4.470   3.908  17.186  0.00  0.00    +0.000 A 
ATOM      8  C   UNL     1       3.144   3.526  16.869  0.00  0.00    +0.000 A 
ATOM      9  C   UNL     1       2.234   3.060  17.823  0.00  0.00    +0.000 A 
ATOM     10  C   UNL     1       2.628   2.947  19.143  0.00  0.00    +0.000 A 
ATOM     11  C   UNL     1       3.932   3.288  19.493  0.00  0.00    +0.000 A 
ATOM     12  C   UNL     1       4.861   3.751  18.539  0.00  0.00    +0.000 A 
BRANCH  10  13
ATOM     13  O   UNL     1       1.850   2.510  20.180  0.00  0.00    +0.000 OA
ATOM     14  C   UNL     1       2.357   2.726  21.491  0.00  0.00    +0.000 C 
ENDBRANCH  10  13
BRANCH  12  15
ATOM     15  O   UNL     1       6.141   4.099  18.908  0.00  0.00    +0.000 OA
ATOM     16  C   UNL     1       6.296   5.395  19.491  0.00  0.00    +0.000 C 
ENDBRANCH  12  15
ENDBRANCH   3   7
BRANCH   6  17
ATOM     17  O   UNL     1       8.004   5.388  12.969  0.00  0.00    +0.000 OA
ATOM     18  H   UNL     1       7.777   6.259  12.609  0.00  0.00    +0.000 HD
ENDBRANCH   6  17
BRANCH   1  19
ATOM     19  C   UNL     1       6.091   3.318  12.452  0.00  0.00    +0.000 C 
BRANCH  19  21
ATOM     20  C   UNL     1       4.000   3.621  11.062  0.00  0.00    +0.000 C 
ATOM     21  C   UNL     1       4.672   3.006  12.043  0.00  0.00    +0.000 C 
ENDBRANCH  19  21
ENDBRANCH   1  19
TORSDOF 6
ENDMDL
MODEL 6
REMARK VINA RESULT:      -6.6      2.230      6.660
REMARK  Name = 
REMARK  8 active torsions:
REMARK  status: ('A' for Active; 'I' for Inactive)
REMARK    1  A    between atoms: C_2  and  C_3
REMARK    2  A    between atoms: C_3  and  C_4
REMARK    3  A    between atoms: C_6  and  C_7
REMARK    4  A    between atoms: C_10  and  O_11
REMARK    5  A    between atoms: O_11  and  C_12
REMARK    6  A    between atoms: C_14  and  O_15
REMARK    7  A    between atoms: O_15  and  C_16
REMARK    8  A    between atoms: C_19  and  O_20
REMARK                            x       y       z     vdW  Elec       q    Type
REMARK                         _______ _______ _______ _____ _____    ______ ____
ROOT
ATOM      1  C   UNL     1       2.154   3.648  18.978  0.00  0.00    +0.000 A 
ATOM      2  C   UNL     1       3.194   4.588  18.844  0.00  0.00    +0.000 A 
ATOM      3  C   UNL     1       4.388   4.330  18.124  0.00  0.00    +0.000 A 
ATOM      4  C   UNL     1       4.454   3.096  17.461  0.00  0.00    +0.000 A 
ATOM      5  C   UNL     1       3.401   2.167  17.525  0.00  0.00    +0.000 A 
ATOM      6  C   UNL     1       2.270   2.442  18.296  0.00  0.00    +0.000 A 
ENDROOT
BRANCH   3   7
ATOM      7  C   UNL     1       5.533   5.295  18.176  0.00  0.00    +0.000 A 
ATOM      8  C   UNL     1       6.440   5.184  19.257  0.00  0.00    +0.000 A 
ATOM      9  C   UNL     1       7.543   6.030  19.420  0.00  0.00    +0.000 A 
ATOM     10  C   UNL     1       7.786   7.019  18.486  0.00  0.00    +0.000 A 
ATOM     11  C   UNL     1       6.933   7.145  17.393  0.00  0.00    +0.000 A 
ATOM     12  C   UNL     1       5.822   6.295  17.214  0.00  0.00    +0.000 A 
BRANCH  10  13
ATOM     13  O   UNL     1       8.819   7.916  18.515  0.00  0.00    +0.000 OA
ATOM     14  C   UNL     1       8.507   9.258  18.165  0.00  0.00    +0.000 C 
ENDBRANCH  10  13
BRANCH  12  15
ATOM     15  O   UNL     1       4.981   6.445  16.135  0.00  0.00    +0.000 OA
ATOM     16  C   UNL     1       5.335   5.717  14.957  0.00  0.00    +0.000 C 
ENDBRANCH  12  15
ENDBRANCH   3   7
BRANCH   6  17
ATOM     17  O   UNL     1       1.272   1.519  18.401  0.00  0.00    +0.000 OA
ATOM     18  H   UNL     1       1.518   0.868  19.078  0.00  0.00    +0.000 HD
ENDBRANCH   6  17
BRANCH   1  19
ATOM     19  C   UNL     1       1.004   3.936  19.917  0.00  0.00    +0.000 C 
BRANCH  19  21
ATOM     20  C   UNL     1       2.113   2.609  21.762  0.00  0.00    +0.000 C 
ATOM     21  C   UNL     1       1.357   3.635  21.354  0.00  0.00    +0.000 C 
ENDBRANCH  19  21
ENDBRANCH   1  19
TORSDOF 6
ENDMDL
MODEL 7
REMARK VINA RESULT:      -6.6      1.187      2.118
REMARK  Name = 
REMARK  8 active torsions:
REMARK  status: ('A' for Active; 'I' for Inactive)
REMARK    1  A    between atoms: C_2  and  C_3
REMARK    2  A    between atoms: C_3  and  C_4
REMARK    3  A    between atoms: C_6  and  C_7
REMARK    4  A    between atoms: C_10  and  O_11
REMARK    5  A    between atoms: O_11  and  C_12
REMARK    6  A    between atoms: C_14  and  O_15
REMARK    7  A    between atoms: O_15  and  C_16
REMARK    8  A    between atoms: C_19  and  O_20
REMARK                            x       y       z     vdW  Elec       q    Type
REMARK                         _______ _______ _______ _____ _____    ______ ____
ROOT
ATOM      1  C   UNL     1       6.038   4.458  14.598  0.00  0.00    +0.000 A 
ATOM      2  C   UNL     1       4.989   4.352  15.532  0.00  0.00    +0.000 A 
ATOM      3  C   UNL     1       4.997   5.010  16.787  0.00  0.00    +0.000 A 
ATOM      4  C   UNL     1       6.084   5.862  17.031  0.00  0.00    +0.000 A 
ATOM      5  C   UNL     1       7.112   6.035  16.088  0.00  0.00    +0.000 A 
ATOM      6  C   UNL     1       7.089   5.319  14.889  0.00  0.00    +0.000 A 
ENDROOT
BRANCH   3   7
ATOM      7  C   UNL     1       3.945   4.711  17.812  0.00  0.00    +0.000 A 
ATOM      8  C   UNL     1       3.301   5.807  18.435  0.00  0.00    +0.000 A 
ATOM      9  C   UNL     1       2.309   5.657  19.410  0.00  0.00    +0.000 A 
ATOM     10  C   UNL     1       1.914   4.389  19.791  0.00  0.00    +0.000 A 
ATOM     11  C   UNL     1       2.504   3.284  19.184  0.00  0.00    +0.000 A 
ATOM     12  C   UNL     1       3.499   3.421  18.194  0.00  0.00    +0.000 A 
BRANCH  10  13
ATOM     13  O   UNL     1       0.962   4.090  20.728  0.00  0.00    +0.000 OA
ATOM     14  C   UNL     1       1.168   2.906  21.488  0.00  0.00    +0.000 C 
ENDBRANCH  10  13
BRANCH  12  15
ATOM     15  O   UNL     1       4.082   2.316  17.617  0.00  0.00    +0.000 OA
ATOM     16  C   UNL     1       3.943   1.087  18.335  0.00  0.00    +0.000 C 
ENDBRANCH  12  15
ENDBRANCH   3   7
BRANCH   6  17
ATOM     17  O   UNL     1       8.112   5.446  13.997  0.00  0.00    +0.000 OA
ATOM     18  H   UNL     1       8.672   4.654  14.047  0.00  0.00    +0.000 HD
ENDBRANCH   6  17
BRANCH   1  19
ATOM     19  C   UNL     1       6.035   3.576  13.369  0.00  0.00    +0.000 C 
BRANCH  19  21
ATOM     20  C   UNL     1       4.531   3.141  11.383  0.00  0.00    +0.000 C 
ATOM     21  C   UNL     1       4.780   3.751  12.549  0.00  0.00    +0.000 C 
ENDBRANCH  19  21
ENDBRANCH   1  19
TORSDOF 6
ENDMDL
MODEL 8
REMARK VINA RESULT:      -6.6      1.664      2.585
REMARK  Name = 
REMARK  8 active torsions:
REMARK  status: ('A' for Active; 'I' for Inactive)
REMARK    1  A    between atoms: C_2  and  C_3
REMARK    2  A    between atoms: C_3  and  C_4
REMARK    3  A    between atoms: C_6  and  C_7
REMARK    4  A    between atoms: C_10  and  O_11
REMARK    5  A    between atoms: O_11  and  C_12
REMARK    6  A    between atoms: C_14  and  O_15
REMARK    7  A    between atoms: O_15  and  C_16
REMARK    8  A    between atoms: C_19  and  O_20
REMARK                            x       y       z     vdW  Elec       q    Type
REMARK                         _______ _______ _______ _____ _____    ______ ____
ROOT
ATOM      1  C   UNL     1       5.683   3.637  12.597  0.00  0.00    +0.000 A 
ATOM      2  C   UNL     1       5.060   3.994  13.809  0.00  0.00    +0.000 A 
ATOM      3  C   UNL     1       5.733   4.667  14.859  0.00  0.00    +0.000 A 
ATOM      4  C   UNL     1       7.058   5.048  14.600  0.00  0.00    +0.000 A 
ATOM      5  C   UNL     1       7.681   4.761  13.374  0.00  0.00    +0.000 A 
ATOM      6  C   UNL     1       6.996   4.044  12.391  0.00  0.00    +0.000 A 
ENDROOT
BRANCH   3   7
ATOM      7  C   UNL     1       5.073   4.851  16.192  0.00  0.00    +0.000 A 
ATOM      8  C   UNL     1       4.256   3.800  16.675  0.00  0.00    +0.000 A 
ATOM      9  C   UNL     1       3.582   3.856  17.899  0.00  0.00    +0.000 A 
ATOM     10  C   UNL     1       3.715   4.975  18.699  0.00  0.00    +0.000 A 
ATOM     11  C   UNL     1       4.529   6.021  18.274  0.00  0.00    +0.000 A 
ATOM     12  C   UNL     1       5.220   5.973  17.045  0.00  0.00    +0.000 A 
BRANCH  10  13
ATOM     13  O   UNL     1       3.118   5.169  19.915  0.00  0.00    +0.000 OA
ATOM     14  C   UNL     1       2.621   4.011  20.572  0.00  0.00    +0.000 C 
ENDBRANCH  10  13
BRANCH  12  15
ATOM     15  O   UNL     1       6.009   7.024  16.635  0.00  0.00    +0.000 OA
ATOM     16  C   UNL     1       7.158   7.299  17.440  0.00  0.00    +0.000 C 
ENDBRANCH  12  15
ENDBRANCH   3   7
BRANCH   6  17
ATOM     17  O   UNL     1       7.618   3.719  11.222  0.00  0.00    +0.000 OA
ATOM     18  H   UNL     1       7.218   2.908  10.869  0.00  0.00    +0.000 HD
ENDBRANCH   6  17
BRANCH   1  19
ATOM     19  C   UNL     1       4.947   2.758  11.610  0.00  0.00    +0.000 C 
BRANCH  19  21
ATOM     20  C   UNL     1       3.295   3.789   9.998  0.00  0.00    +0.000 C 
ATOM     21  C   UNL     1       3.611   3.340  11.219  0.00  0.00    +0.000 C 
ENDBRANCH  19  21
ENDBRANCH   1  19
TORSDOF 6
ENDMDL
MODEL 9
REMARK VINA RESULT:      -6.5      2.606      5.193
REMARK  Name = 
REMARK  8 active torsions:
REMARK  status: ('A' for Active; 'I' for Inactive)
REMARK    1  A    between atoms: C_2  and  C_3
REMARK    2  A    between atoms: C_3  and  C_4
REMARK    3  A    between atoms: C_6  and  C_7
REMARK    4  A    between atoms: C_10  and  O_11
REMARK    5  A    between atoms: O_11  and  C_12
REMARK    6  A    between atoms: C_14  and  O_15
REMARK    7  A    between atoms: O_15  and  C_16
REMARK    8  A    between atoms: C_19  and  O_20
REMARK                            x       y       z     vdW  Elec       q    Type
REMARK                         _______ _______ _______ _____ _____    ______ ____
ROOT
ATOM      1  C   UNL     1       3.821   3.892  17.195  0.00  0.00    +0.000 A 
ATOM      2  C   UNL     1       3.019   4.930  17.708  0.00  0.00    +0.000 A 
ATOM      3  C   UNL     1       3.430   6.286  17.739  0.00  0.00    +0.000 A 
ATOM      4  C   UNL     1       4.667   6.571  17.144  0.00  0.00    +0.000 A 
ATOM      5  C   UNL     1       5.458   5.562  16.567  0.00  0.00    +0.000 A 
ATOM      6  C   UNL     1       5.037   4.232  16.613  0.00  0.00    +0.000 A 
ENDROOT
BRANCH   3   7
ATOM      7  C   UNL     1       2.614   7.313  18.465  0.00  0.00    +0.000 A 
ATOM      8  C   UNL     1       2.219   8.468  17.748  0.00  0.00    +0.000 A 
ATOM      9  C   UNL     1       1.464   9.499  18.316  0.00  0.00    +0.000 A 
ATOM     10  C   UNL     1       1.061   9.402  19.635  0.00  0.00    +0.000 A 
ATOM     11  C   UNL     1       1.407   8.270  20.368  0.00  0.00    +0.000 A 
ATOM     12  C   UNL     1       2.161   7.221  19.804  0.00  0.00    +0.000 A 
BRANCH  10  13
ATOM     13  O   UNL     1       0.324  10.328  20.321  0.00  0.00    +0.000 OA
ATOM     14  C   UNL     1      -0.662  11.033  19.577  0.00  0.00    +0.000 C 
ENDBRANCH  10  13
BRANCH  12  15
ATOM     15  O   UNL     1       2.507   6.117  20.550  0.00  0.00    +0.000 OA
ATOM     16  C   UNL     1       1.475   5.147  20.751  0.00  0.00    +0.000 C 
ENDBRANCH  12  15
ENDBRANCH   3   7
BRANCH   6  17
ATOM     17  O   UNL     1       5.828   3.246  16.101  0.00  0.00    +0.000 OA
ATOM     18  H   UNL     1       6.049   2.621  16.810  0.00  0.00    +0.000 HD
ENDBRANCH   6  17
BRANCH   1  19
ATOM     19  C   UNL     1       3.385   2.454  17.372  0.00  0.00    +0.000 C 
BRANCH  19  21
ATOM     20  C   UNL     1       4.355   2.568  19.704  0.00  0.00    +0.000 C 
ATOM     21  C   UNL     1       3.577   1.975  18.791  0.00  0.00    +0.000 C 
ENDBRANCH  19  21
ENDBRANCH   1  19
TORSDOF 6
ENDMDL
