MODEL 1
REMARK VINA RESULT:      -6.3      0.000      0.000
REMARK  Name = 
REMARK  2 active torsions:
REMARK  status: ('A' for Active; 'I' for Inactive)
REMARK    1  A    between atoms: C_1  and  C_2
REMARK    2  A    between atoms: C_5  and  N_6
REMARK                            x       y       z     vdW  Elec       q    Type
REMARK                         _______ _______ _______ _____ _____    ______ ____
ROOT
ATOM      1  N   UNL     1       6.140   4.180  18.223  0.00  0.00    +0.000 N 
ATOM      2  C   UNL     1       6.225   4.353  16.808  0.00  0.00    +0.000 C 
ATOM      3  N   UNL     1       5.245   4.166  16.014  0.00  0.00    +0.000 NA
ATOM      4  C   UNL     1       5.647   4.362  14.644  0.00  0.00    +0.000 C 
ATOM      5  C   UNL     1       7.111   4.825  14.740  0.00  0.00    +0.000 C 
ATOM      6  N   UNL     1       7.408   4.694  16.141  0.00  0.00    +0.000 N 
ATOM      7  H   UNL     1       7.031   4.147  18.741  0.00  0.00    +0.000 HD
ATOM      8  H   UNL     1       8.311   4.910  16.588  0.00  0.00    +0.000 HD
ENDROOT
BRANCH   1  13
ATOM      9  C   UNL     1       1.276   3.320  21.176  0.00  0.00    +0.000 C 
ATOM     10  C   UNL     1       2.533   3.558  20.398  0.00  0.00    +0.000 A 
ATOM     11  C   UNL     1       3.008   4.855  20.147  0.00  0.00    +0.000 A 
ATOM     12  C   UNL     1       4.187   5.047  19.418  0.00  0.00    +0.000 A 
ATOM     13  C   UNL     1       4.923   3.947  18.942  0.00  0.00    +0.000 A 
ATOM     14  C   UNL     1       4.419   2.649  19.184  0.00  0.00    +0.000 A 
ATOM     15  C   UNL     1       3.242   2.462  19.904  0.00  0.00    +0.000 A 
ENDBRANCH   1  13
TORSDOF 1
ENDMDL
MODEL 2
REMARK VINA RESULT:      -6.3      0.122      1.343
REMARK  Name = 
REMARK  2 active torsions:
REMARK  status: ('A' for Active; 'I' for Inactive)
REMARK    1  A    between atoms: C_1  and  C_2
REMARK    2  A    between atoms: C_5  and  N_6
REMARK                            x       y       z     vdW  Elec       q    Type
REMARK                         _______ _______ _______ _____ _____    ______ ____
ROOT
ATOM      1  N   UNL     1       6.162   4.216  18.297  0.00  0.00    +0.000 N 
ATOM      2  C   UNL     1       6.232   4.387  16.881  0.00  0.00    +0.000 C 
ATOM      3  N   UNL     1       5.235   4.234  16.101  0.00  0.00    +0.000 NA
ATOM      4  C   UNL     1       5.623   4.417  14.726  0.00  0.00    +0.000 C 
ATOM      5  C   UNL     1       7.104   4.827  14.800  0.00  0.00    +0.000 C 
ATOM      6  N   UNL     1       7.417   4.685  16.196  0.00  0.00    +0.000 N 
ATOM      7  H   UNL     1       7.059   4.151  18.803  0.00  0.00    +0.000 HD
ATOM      8  H   UNL     1       8.333   4.868  16.630  0.00  0.00    +0.000 HD
ENDROOT
BRANCH   1  13
ATOM      9  C   UNL     1       1.265   3.375  21.201  0.00  0.00    +0.000 C 
ATOM     10  C   UNL     1       2.548   3.581  20.456  0.00  0.00    +0.000 A 
ATOM     11  C   UNL     1       3.363   2.500  20.083  0.00  0.00    +0.000 A 
ATOM     12  C   UNL     1       4.556   2.723  19.387  0.00  0.00    +0.000 A 
ATOM     13  C   UNL     1       4.948   4.027  19.034  0.00  0.00    +0.000 A 
ATOM     14  C   UNL     1       4.127   5.105  19.436  0.00  0.00    +0.000 A 
ATOM     15  C   UNL     1       2.944   4.880  20.135  0.00  0.00    +0.000 A 
ENDBRANCH   1  13
TORSDOF 1
ENDMDL
MODEL 3
REMARK VINA RESULT:      -6.2      2.384      5.278
REMARK  Name = 
REMARK  2 active torsions:
REMARK  status: ('A' for Active; 'I' for Inactive)
REMARK    1  A    between atoms: C_1  and  C_2
REMARK    2  A    between atoms: C_5  and  N_6
REMARK                            x       y       z     vdW  Elec       q    Type
REMARK                         _______ _______ _______ _____ _____    ______ ____
ROOT
ATOM      1  N   UNL     1       4.737   3.307  17.224  0.00  0.00    +0.000 N 
ATOM      2  C   UNL     1       3.667   2.970  18.108  0.00  0.00    +0.000 C 
ATOM      3  N   UNL     1       3.383   3.635  19.158  0.00  0.00    +0.000 NA
ATOM      4  C   UNL     1       2.295   3.024  19.877  0.00  0.00    +0.000 C 
ATOM      5  C   UNL     1       1.864   1.846  18.986  0.00  0.00    +0.000 C 
ATOM      6  N   UNL     1       2.854   1.841  17.943  0.00  0.00    +0.000 N 
ATOM      7  H   UNL     1       5.013   2.591  16.534  0.00  0.00    +0.000 HD
ATOM      8  H   UNL     1       2.897   1.179  17.156  0.00  0.00    +0.000 HD
ENDROOT
BRANCH   1  13
ATOM      9  C   UNL     1       7.850   8.130  17.632  0.00  0.00    +0.000 C 
ATOM     10  C   UNL     1       7.056   6.865  17.522  0.00  0.00    +0.000 A 
ATOM     11  C   UNL     1       7.491   5.670  18.117  0.00  0.00    +0.000 A 
ATOM     12  C   UNL     1       6.727   4.503  17.999  0.00  0.00    +0.000 A 
ATOM     13  C   UNL     1       5.507   4.513  17.301  0.00  0.00    +0.000 A 
ATOM     14  C   UNL     1       5.094   5.719  16.690  0.00  0.00    +0.000 A 
ATOM     15  C   UNL     1       5.860   6.876  16.804  0.00  0.00    +0.000 A 
ENDBRANCH   1  13
TORSDOF 1
ENDMDL
MODEL 4
REMARK VINA RESULT:      -6.1      2.489      5.175
REMARK  Name = 
REMARK  2 active torsions:
REMARK  status: ('A' for Active; 'I' for Inactive)
REMARK    1  A    between atoms: C_1  and  C_2
REMARK    2  A    between atoms: C_5  and  N_6
REMARK                            x       y       z     vdW  Elec       q    Type
REMARK                         _______ _______ _______ _____ _____    ______ ____
ROOT
ATOM      1  N   UNL     1       4.656   3.281  17.389  0.00  0.00    +0.000 N 
ATOM      2  C   UNL     1       3.404   3.095  18.051  0.00  0.00    +0.000 C 
ATOM      3  N   UNL     1       2.927   3.916  18.902  0.00  0.00    +0.000 NA
ATOM      4  C   UNL     1       1.680   3.435  19.440  0.00  0.00    +0.000 C 
ATOM      5  C   UNL     1       1.402   2.141  18.656  0.00  0.00    +0.000 C 
ATOM      6  N   UNL     1       2.596   1.965  17.873  0.00  0.00    +0.000 N 
ATOM      7  H   UNL     1       5.043   2.465  16.890  0.00  0.00    +0.000 HD
ATOM      8  H   UNL     1       2.780   1.190  17.220  0.00  0.00    +0.000 HD
ENDROOT
BRANCH   1  13
ATOM      9  C   UNL     1       7.813   8.089  17.578  0.00  0.00    +0.000 C 
ATOM     10  C   UNL     1       6.976   6.848  17.529  0.00  0.00    +0.000 A 
ATOM     11  C   UNL     1       5.834   6.764  16.717  0.00  0.00    +0.000 A 
ATOM     12  C   UNL     1       5.071   5.591  16.691  0.00  0.00    +0.000 A 
ATOM     13  C   UNL     1       5.444   4.475  17.461  0.00  0.00    +0.000 A 
ATOM     14  C   UNL     1       6.584   4.584  18.290  0.00  0.00    +0.000 A 
ATOM     15  C   UNL     1       7.337   5.755  18.318  0.00  0.00    +0.000 A 
ENDBRANCH   1  13
TORSDOF 1
ENDMDL
MODEL 5
REMARK VINA RESULT:      -6.1      2.668      5.383
REMARK  Name = 
REMARK  2 active torsions:
REMARK  status: ('A' for Active; 'I' for Inactive)
REMARK    1  A    between atoms: C_1  and  C_2
REMARK    2  A    between atoms: C_5  and  N_6
REMARK                            x       y       z     vdW  Elec       q    Type
REMARK                         _______ _______ _______ _____ _____    ______ ____
ROOT
ATOM      1  N   UNL     1       5.924   3.785  18.239  0.00  0.00    +0.000 N 
ATOM      2  C   UNL     1       4.675   3.494  18.867  0.00  0.00    +0.000 C 
ATOM      3  N   UNL     1       4.014   4.342  19.551  0.00  0.00    +0.000 NA
ATOM      4  C   UNL     1       2.826   3.745  20.106  0.00  0.00    +0.000 C 
ATOM      5  C   UNL     1       2.814   2.318  19.531  0.00  0.00    +0.000 C 
ATOM      6  N   UNL     1       4.073   2.229  18.841  0.00  0.00    +0.000 N 
ATOM      7  H   UNL     1       6.471   2.980  17.897  0.00  0.00    +0.000 HD
ATOM      8  H   UNL     1       4.424   1.406  18.331  0.00  0.00    +0.000 HD
ENDROOT
BRANCH   1  13
ATOM      9  C   UNL     1       8.244   9.032  17.779  0.00  0.00    +0.000 C 
ATOM     10  C   UNL     1       7.623   7.673  17.898  0.00  0.00    +0.000 A 
ATOM     11  C   UNL     1       6.520   7.299  17.114  0.00  0.00    +0.000 A 
ATOM     12  C   UNL     1       5.961   6.022  17.246  0.00  0.00    +0.000 A 
ATOM     13  C   UNL     1       6.504   5.092  18.150  0.00  0.00    +0.000 A 
ATOM     14  C   UNL     1       7.600   5.493  18.947  0.00  0.00    +0.000 A 
ATOM     15  C   UNL     1       8.150   6.766  18.818  0.00  0.00    +0.000 A 
ENDBRANCH   1  13
TORSDOF 1
ENDMDL
MODEL 6
REMARK VINA RESULT:      -5.9      1.691      1.701
REMARK  Name = 
REMARK  2 active torsions:
REMARK  status: ('A' for Active; 'I' for Inactive)
REMARK    1  A    between atoms: C_1  and  C_2
REMARK    2  A    between atoms: C_5  and  N_6
REMARK                            x       y       z     vdW  Elec       q    Type
REMARK                         _______ _______ _______ _____ _____    ______ ____
ROOT
ATOM      1  N   UNL     1       5.559   4.700  17.053  0.00  0.00    +0.000 N 
ATOM      2  C   UNL     1       6.067   4.626  15.721  0.00  0.00    +0.000 C 
ATOM      3  N   UNL     1       5.530   3.929  14.798  0.00  0.00    +0.000 NA
ATOM      4  C   UNL     1       6.296   4.007  13.581  0.00  0.00    +0.000 C 
ATOM      5  C   UNL     1       7.417   5.011  13.900  0.00  0.00    +0.000 C 
ATOM      6  N   UNL     1       7.240   5.269  15.304  0.00  0.00    +0.000 N 
ATOM      7  H   UNL     1       6.181   5.113  17.766  0.00  0.00    +0.000 HD
ATOM      8  H   UNL     1       7.820   5.896  15.879  0.00  0.00    +0.000 HD
ENDROOT
BRANCH   1  13
ATOM      9  C   UNL     1       0.508   2.579  18.817  0.00  0.00    +0.000 C 
ATOM     10  C   UNL     1       1.814   3.142  18.345  0.00  0.00    +0.000 A 
ATOM     11  C   UNL     1       1.975   4.514  18.095  0.00  0.00    +0.000 A 
ATOM     12  C   UNL     1       3.207   5.012  17.656  0.00  0.00    +0.000 A 
ATOM     13  C   UNL     1       4.305   4.152  17.477  0.00  0.00    +0.000 A 
ATOM     14  C   UNL     1       4.120   2.771  17.712  0.00  0.00    +0.000 A 
ATOM     15  C   UNL     1       2.890   2.278  18.143  0.00  0.00    +0.000 A 
ENDBRANCH   1  13
TORSDOF 1
ENDMDL
MODEL 7
REMARK VINA RESULT:      -5.9      1.512      1.774
REMARK  Name = 
REMARK  2 active torsions:
REMARK  status: ('A' for Active; 'I' for Inactive)
REMARK    1  A    between atoms: C_1  and  C_2
REMARK    2  A    between atoms: C_5  and  N_6
REMARK                            x       y       z     vdW  Elec       q    Type
REMARK                         _______ _______ _______ _____ _____    ______ ____
ROOT
ATOM      1  N   UNL     1       4.139   5.939  17.159  0.00  0.00    +0.000 N 
ATOM      2  C   UNL     1       5.065   5.327  16.259  0.00  0.00    +0.000 C 
ATOM      3  N   UNL     1       5.388   4.095  16.310  0.00  0.00    +0.000 NA
ATOM      4  C   UNL     1       6.381   3.781  15.314  0.00  0.00    +0.000 C 
ATOM      5  C   UNL     1       6.558   5.091  14.528  0.00  0.00    +0.000 C 
ATOM      6  N   UNL     1       5.755   6.030  15.264  0.00  0.00    +0.000 N 
ATOM      7  H   UNL     1       4.114   6.970  17.169  0.00  0.00    +0.000 HD
ATOM      8  H   UNL     1       5.632   7.027  15.036  0.00  0.00    +0.000 HD
ENDROOT
BRANCH   1  13
ATOM      9  C   UNL     1       0.991   3.053  21.016  0.00  0.00    +0.000 C 
ATOM     10  C   UNL     1       1.811   3.819  20.024  0.00  0.00    +0.000 A 
ATOM     11  C   UNL     1       2.913   4.592  20.422  0.00  0.00    +0.000 A 
ATOM     12  C   UNL     1       3.662   5.296  19.472  0.00  0.00    +0.000 A 
ATOM     13  C   UNL     1       3.335   5.227  18.107  0.00  0.00    +0.000 A 
ATOM     14  C   UNL     1       2.209   4.462  17.725  0.00  0.00    +0.000 A 
ATOM     15  C   UNL     1       1.462   3.768  18.674  0.00  0.00    +0.000 A 
ENDBRANCH   1  13
TORSDOF 1
ENDMDL
MODEL 8
REMARK VINA RESULT:      -5.9      2.753      5.142
REMARK  Name = 
REMARK  2 active torsions:
REMARK  status: ('A' for Active; 'I' for Inactive)
REMARK    1  A    between atoms: C_1  and  C_2
REMARK    2  A    between atoms: C_5  and  N_6
REMARK                            x       y       z     vdW  Elec       q    Type
REMARK                         _______ _______ _______ _____ _____    ______ ____
ROOT
ATOM      1  N   UNL     1       5.726   3.694  17.916  0.00  0.00    +0.000 N 
ATOM      2  C   UNL     1       4.316   3.470  17.961  0.00  0.00    +0.000 C 
ATOM      3  N   UNL     1       3.459   4.398  18.137  0.00  0.00    +0.000 NA
ATOM      4  C   UNL     1       2.123   3.862  18.193  0.00  0.00    +0.000 C 
ATOM      5  C   UNL     1       2.303   2.361  17.910  0.00  0.00    +0.000 C 
ATOM      6  N   UNL     1       3.732   2.200  17.873  0.00  0.00    +0.000 N 
ATOM      7  H   UNL     1       6.331   2.862  17.986  0.00  0.00    +0.000 HD
ATOM      8  H   UNL     1       4.235   1.316  17.711  0.00  0.00    +0.000 HD
ENDROOT
BRANCH   1  13
ATOM      9  C   UNL     1       8.209   8.886  17.897  0.00  0.00    +0.000 C 
ATOM     10  C   UNL     1       7.580   7.526  17.904  0.00  0.00    +0.000 A 
ATOM     11  C   UNL     1       7.997   6.528  18.799  0.00  0.00    +0.000 A 
ATOM     12  C   UNL     1       7.389   5.267  18.783  0.00  0.00    +0.000 A 
ATOM     13  C   UNL     1       6.343   4.987  17.886  0.00  0.00    +0.000 A 
ATOM     14  C   UNL     1       5.951   5.996  16.977  0.00  0.00    +0.000 A 
ATOM     15  C   UNL     1       6.562   7.247  16.992  0.00  0.00    +0.000 A 
ENDBRANCH   1  13
TORSDOF 1
ENDMDL
MODEL 9
REMARK VINA RESULT:      -5.9      1.133      1.211
REMARK  Name = 
REMARK  2 active torsions:
REMARK  status: ('A' for Active; 'I' for Inactive)
REMARK    1  A    between atoms: C_1  and  C_2
REMARK    2  A    between atoms: C_5  and  N_6
REMARK                            x       y       z     vdW  Elec       q    Type
REMARK                         _______ _______ _______ _____ _____    ______ ____
ROOT
ATOM      1  N   UNL     1       5.788   5.486  17.537  0.00  0.00    +0.000 N 
ATOM      2  C   UNL     1       6.140   5.063  16.219  0.00  0.00    +0.000 C 
ATOM      3  N   UNL     1       5.511   4.158  15.577  0.00  0.00    +0.000 NA
ATOM      4  C   UNL     1       6.129   3.908  14.300  0.00  0.00    +0.000 C 
ATOM      5  C   UNL     1       7.263   4.944  14.217  0.00  0.00    +0.000 C 
ATOM      6  N   UNL     1       7.245   5.559  15.517  0.00  0.00    +0.000 N 
ATOM      7  H   UNL     1       6.482   6.060  18.041  0.00  0.00    +0.000 HD
ATOM      8  H   UNL     1       7.877   6.306  15.839  0.00  0.00    +0.000 HD
ENDROOT
BRANCH   1  13
ATOM      9  C   UNL     1       0.999   3.969  20.343  0.00  0.00    +0.000 C 
ATOM     10  C   UNL     1       2.235   4.367  19.597  0.00  0.00    +0.000 A 
ATOM     11  C   UNL     1       2.248   5.474  18.735  0.00  0.00    +0.000 A 
ATOM     12  C   UNL     1       3.419   5.823  18.051  0.00  0.00    +0.000 A 
ATOM     13  C   UNL     1       4.601   5.084  18.231  0.00  0.00    +0.000 A 
ATOM     14  C   UNL     1       4.565   3.959  19.086  0.00  0.00    +0.000 A 
ATOM     15  C   UNL     1       3.397   3.611  19.759  0.00  0.00    +0.000 A 
ENDBRANCH   1  13
TORSDOF 1
ENDMDL
