MODEL 1
REMARK VINA RESULT:      -7.8      0.000      0.000
REMARK  Name = 
REMARK  6 active torsions:
REMARK  status: ('A' for Active; 'I' for Inactive)
REMARK    1  A    between atoms: C_2  and  O_3
REMARK    2  A    between atoms: C_2  and  C_11
REMARK    3  A    between atoms: O_3  and  C_4
REMARK    4  A    between atoms: C_4  and  C_5
REMARK    5  A    between atoms: C_20  and  C_22
REMARK    6  A    between atoms: C_22  and  O_23
REMARK                            x       y       z     vdW  Elec       q    Type
REMARK                         _______ _______ _______ _____ _____    ______ ____
ROOT
ATOM      1  C   UNL     1       4.498   6.246  17.104  0.00  0.00    +0.000 C 
ATOM      2  C   UNL     1       3.569   7.345  17.723  0.00  0.00    +0.000 C 
ATOM      3  C   UNL     1       2.697   6.659  18.796  0.00  0.00    +0.000 C 
ATOM      4  C   UNL     1       2.783   5.212  18.387  0.00  0.00    +0.000 C 
ATOM      5  C   UNL     1       4.253   5.077  18.038  0.00  0.00    +0.000 C 
ATOM      6  C   UNL     1       4.296   3.615  17.644  0.00  0.00    +0.000 C 
ATOM      7  C   UNL     1       3.408   3.033  18.751  0.00  0.00    +0.000 C 
ATOM      8  O   UNL     1       3.402   1.864  19.101  0.00  0.00    +0.000 OA
ATOM      9  N   UNL     1       2.595   4.088  19.249  0.00  0.00    +0.000 N 
ATOM     10  C   UNL     1       1.674   4.074  20.287  0.00  0.00    +0.000 C 
ATOM     11  O   UNL     1       1.001   5.061  20.590  0.00  0.00    +0.000 OA
ENDROOT
BRANCH   1  13
ATOM     12  O   UNL     1       6.453   7.389  17.962  0.00  0.00    +0.000 OA
ATOM     13  C   UNL     1       5.938   6.738  17.058  0.00  0.00    +0.000 C 
BRANCH  13  14
ATOM     14  O   UNL     1       6.537   6.443  15.879  0.00  0.00    +0.000 OA
BRANCH  14  15
ATOM     15  C   UNL     1       7.035   5.095  15.739  0.00  0.00    +0.000 C 
BRANCH  15  16
ATOM     16  C   UNL     1       6.847   4.640  14.314  0.00  0.00    +0.000 A 
ATOM     17  C   UNL     1       5.858   3.700  13.990  0.00  0.00    +0.000 A 
ATOM     18  C   UNL     1       5.705   3.254  12.676  0.00  0.00    +0.000 A 
ATOM     19  C   UNL     1       6.533   3.747  11.670  0.00  0.00    +0.000 A 
ATOM     20  C   UNL     1       7.501   4.702  11.972  0.00  0.00    +0.000 A 
ATOM     21  C   UNL     1       7.656   5.149  13.287  0.00  0.00    +0.000 A 
ENDBRANCH  15  16
ENDBRANCH  14  15
ENDBRANCH  13  14
ENDBRANCH   1  13
BRANCH  10  22
ATOM     22  C   UNL     1       1.570   2.778  21.100  0.00  0.00    +0.000 C 
BRANCH  22  23
ATOM     23  O   UNL     1       2.640   2.637  22.029  0.00  0.00    +0.000 OA
ATOM     24  H   UNL     1       3.362   2.186  21.551  0.00  0.00    +0.000 HD
ENDBRANCH  22  23
ENDBRANCH  10  22
TORSDOF 6
ENDMDL
MODEL 2
REMARK VINA RESULT:      -7.8      0.295      1.044
REMARK  Name = 
REMARK  6 active torsions:
REMARK  status: ('A' for Active; 'I' for Inactive)
REMARK    1  A    between atoms: C_2  and  O_3
REMARK    2  A    between atoms: C_2  and  C_11
REMARK    3  A    between atoms: O_3  and  C_4
REMARK    4  A    between atoms: C_4  and  C_5
REMARK    5  A    between atoms: C_20  and  C_22
REMARK    6  A    between atoms: C_22  and  O_23
REMARK                            x       y       z     vdW  Elec       q    Type
REMARK                         _______ _______ _______ _____ _____    ______ ____
ROOT
ATOM      1  C   UNL     1       4.388   6.220  17.029  0.00  0.00    +0.000 C 
ATOM      2  C   UNL     1       3.527   7.297  17.770  0.00  0.00    +0.000 C 
ATOM      3  C   UNL     1       2.670   6.559  18.820  0.00  0.00    +0.000 C 
ATOM      4  C   UNL     1       2.684   5.147  18.295  0.00  0.00    +0.000 C 
ATOM      5  C   UNL     1       4.133   4.988  17.877  0.00  0.00    +0.000 C 
ATOM      6  C   UNL     1       4.103   3.562  17.366  0.00  0.00    +0.000 C 
ATOM      7  C   UNL     1       3.235   2.925  18.458  0.00  0.00    +0.000 C 
ATOM      8  O   UNL     1       3.196   1.732  18.714  0.00  0.00    +0.000 OA
ATOM      9  N   UNL     1       2.484   3.965  19.072  0.00  0.00    +0.000 N 
ATOM     10  C   UNL     1       1.603   3.900  20.141  0.00  0.00    +0.000 C 
ATOM     11  O   UNL     1       0.981   4.882  20.549  0.00  0.00    +0.000 OA
ENDROOT
BRANCH   1  13
ATOM     12  O   UNL     1       6.408   7.249  17.882  0.00  0.00    +0.000 OA
ATOM     13  C   UNL     1       5.843   6.661  16.964  0.00  0.00    +0.000 C 
BRANCH  13  14
ATOM     14  O   UNL     1       6.398   6.402  15.754  0.00  0.00    +0.000 OA
BRANCH  14  15
ATOM     15  C   UNL     1       7.039   5.116  15.612  0.00  0.00    +0.000 C 
BRANCH  15  16
ATOM     16  C   UNL     1       6.791   4.588  14.221  0.00  0.00    +0.000 A 
ATOM     17  C   UNL     1       7.647   4.930  13.165  0.00  0.00    +0.000 A 
ATOM     18  C   UNL     1       7.399   4.468  11.871  0.00  0.00    +0.000 A 
ATOM     19  C   UNL     1       6.298   3.653  11.620  0.00  0.00    +0.000 A 
ATOM     20  C   UNL     1       5.454   3.282  12.664  0.00  0.00    +0.000 A 
ATOM     21  C   UNL     1       5.700   3.746  13.960  0.00  0.00    +0.000 A 
ENDBRANCH  15  16
ENDBRANCH  14  15
ENDBRANCH  13  14
ENDBRANCH   1  13
BRANCH  10  22
ATOM     22  C   UNL     1       1.479   2.547  20.853  0.00  0.00    +0.000 C 
BRANCH  22  23
ATOM     23  O   UNL     1       1.797   2.635  22.238  0.00  0.00    +0.000 OA
ATOM     24  H   UNL     1       1.072   3.138  22.655  0.00  0.00    +0.000 HD
ENDBRANCH  22  23
ENDBRANCH  10  22
TORSDOF 6
ENDMDL
MODEL 3
REMARK VINA RESULT:      -7.7      3.093      5.162
REMARK  Name = 
REMARK  6 active torsions:
REMARK  status: ('A' for Active; 'I' for Inactive)
REMARK    1  A    between atoms: C_2  and  O_3
REMARK    2  A    between atoms: C_2  and  C_11
REMARK    3  A    between atoms: O_3  and  C_4
REMARK    4  A    between atoms: C_4  and  C_5
REMARK    5  A    between atoms: C_20  and  C_22
REMARK    6  A    between atoms: C_22  and  O_23
REMARK                            x       y       z     vdW  Elec       q    Type
REMARK                         _______ _______ _______ _____ _____    ______ ____
ROOT
ATOM      1  C   UNL     1       3.134   5.305  18.747  0.00  0.00    +0.000 C 
ATOM      2  C   UNL     1       2.491   4.930  20.124  0.00  0.00    +0.000 C 
ATOM      3  C   UNL     1       1.657   6.143  20.589  0.00  0.00    +0.000 C 
ATOM      4  C   UNL     1       2.260   7.261  19.779  0.00  0.00    +0.000 C 
ATOM      5  C   UNL     1       2.424   6.605  18.422  0.00  0.00    +0.000 C 
ATOM      6  C   UNL     1       3.020   7.760  17.643  0.00  0.00    +0.000 C 
ATOM      7  C   UNL     1       2.141   8.899  18.175  0.00  0.00    +0.000 C 
ATOM      8  O   UNL     1       1.971   9.971  17.617  0.00  0.00    +0.000 OA
ATOM      9  N   UNL     1       1.606   8.482  19.424  0.00  0.00    +0.000 N 
ATOM     10  C   UNL     1       0.715   9.136  20.262  0.00  0.00    +0.000 C 
ATOM     11  O   UNL     1       0.363   8.673  21.349  0.00  0.00    +0.000 OA
ENDROOT
BRANCH   1  13
ATOM     12  O   UNL     1       1.802   3.859  17.333  0.00  0.00    +0.000 OA
ATOM     13  C   UNL     1       2.913   4.187  17.739  0.00  0.00    +0.000 C 
BRANCH  13  14
ATOM     14  O   UNL     1       4.070   3.556  17.420  0.00  0.00    +0.000 OA
BRANCH  14  15
ATOM     15  C   UNL     1       4.867   4.175  16.388  0.00  0.00    +0.000 C 
BRANCH  15  16
ATOM     16  C   UNL     1       5.894   5.077  17.026  0.00  0.00    +0.000 A 
ATOM     17  C   UNL     1       6.735   4.595  18.038  0.00  0.00    +0.000 A 
ATOM     18  C   UNL     1       7.663   5.439  18.653  0.00  0.00    +0.000 A 
ATOM     19  C   UNL     1       7.766   6.770  18.255  0.00  0.00    +0.000 A 
ATOM     20  C   UNL     1       6.957   7.255  17.231  0.00  0.00    +0.000 A 
ATOM     21  C   UNL     1       6.026   6.412  16.617  0.00  0.00    +0.000 A 
ENDBRANCH  15  16
ENDBRANCH  14  15
ENDBRANCH  13  14
ENDBRANCH   1  13
BRANCH  10  22
ATOM     22  C   UNL     1       0.123  10.454  19.748  0.00  0.00    +0.000 C 
BRANCH  22  23
ATOM     23  O   UNL     1      -0.920  10.243  18.802  0.00  0.00    +0.000 OA
ATOM     24  H   UNL     1      -0.598   9.558  18.186  0.00  0.00    +0.000 HD
ENDBRANCH  22  23
ENDBRANCH  10  22
TORSDOF 6
ENDMDL
MODEL 4
REMARK VINA RESULT:      -7.6      1.271      1.416
REMARK  Name = 
REMARK  6 active torsions:
REMARK  status: ('A' for Active; 'I' for Inactive)
REMARK    1  A    between atoms: C_2  and  O_3
REMARK    2  A    between atoms: C_2  and  C_11
REMARK    3  A    between atoms: O_3  and  C_4
REMARK    4  A    between atoms: C_4  and  C_5
REMARK    5  A    between atoms: C_20  and  C_22
REMARK    6  A    between atoms: C_22  and  O_23
REMARK                            x       y       z     vdW  Elec       q    Type
REMARK                         _______ _______ _______ _____ _____    ______ ____
ROOT
ATOM      1  C   UNL     1       5.676   4.853  17.435  0.00  0.00    +0.000 C 
ATOM      2  C   UNL     1       5.431   6.214  18.169  0.00  0.00    +0.000 C 
ATOM      3  C   UNL     1       4.275   5.998  19.169  0.00  0.00    +0.000 C 
ATOM      4  C   UNL     1       3.610   4.767  18.611  0.00  0.00    +0.000 C 
ATOM      5  C   UNL     1       4.806   3.910  18.244  0.00  0.00    +0.000 C 
ATOM      6  C   UNL     1       4.095   2.688  17.699  0.00  0.00    +0.000 C 
ATOM      7  C   UNL     1       2.978   2.564  18.743  0.00  0.00    +0.000 C 
ATOM      8  O   UNL     1       2.341   1.548  18.970  0.00  0.00    +0.000 OA
ATOM      9  N   UNL     1       2.816   3.838  19.353  0.00  0.00    +0.000 N 
ATOM     10  C   UNL     1       1.973   4.218  20.387  0.00  0.00    +0.000 C 
ATOM     11  O   UNL     1       1.904   5.379  20.794  0.00  0.00    +0.000 OA
ENDROOT
BRANCH   1  13
ATOM     12  O   UNL     1       7.830   4.433  18.459  0.00  0.00    +0.000 OA
ATOM     13  C   UNL     1       7.159   4.513  17.434  0.00  0.00    +0.000 C 
BRANCH  13  14
ATOM     14  O   UNL     1       7.652   4.397  16.177  0.00  0.00    +0.000 OA
BRANCH  14  15
ATOM     15  C   UNL     1       7.157   5.349  15.210  0.00  0.00    +0.000 C 
BRANCH  15  16
ATOM     16  C   UNL     1       6.650   4.610  13.998  0.00  0.00    +0.000 A 
ATOM     17  C   UNL     1       5.360   4.060  13.985  0.00  0.00    +0.000 A 
ATOM     18  C   UNL     1       4.903   3.346  12.876  0.00  0.00    +0.000 A 
ATOM     19  C   UNL     1       5.726   3.181  11.764  0.00  0.00    +0.000 A 
ATOM     20  C   UNL     1       6.999   3.746  11.751  0.00  0.00    +0.000 A 
ATOM     21  C   UNL     1       7.459   4.459  12.862  0.00  0.00    +0.000 A 
ENDBRANCH  15  16
ENDBRANCH  14  15
ENDBRANCH  13  14
ENDBRANCH   1  13
BRANCH  10  22
ATOM     22  C   UNL     1       1.163   3.104  21.062  0.00  0.00    +0.000 C 
BRANCH  22  23
ATOM     23  O   UNL     1       1.926   2.394  22.031  0.00  0.00    +0.000 OA
ATOM     24  H   UNL     1       2.536   1.817  21.532  0.00  0.00    +0.000 HD
ENDBRANCH  22  23
ENDBRANCH  10  22
TORSDOF 6
ENDMDL
MODEL 5
REMARK VINA RESULT:      -7.6      3.123      5.295
REMARK  Name = 
REMARK  6 active torsions:
REMARK  status: ('A' for Active; 'I' for Inactive)
REMARK    1  A    between atoms: C_2  and  O_3
REMARK    2  A    between atoms: C_2  and  C_11
REMARK    3  A    between atoms: O_3  and  C_4
REMARK    4  A    between atoms: C_4  and  C_5
REMARK    5  A    between atoms: C_20  and  C_22
REMARK    6  A    between atoms: C_22  and  O_23
REMARK                            x       y       z     vdW  Elec       q    Type
REMARK                         _______ _______ _______ _____ _____    ______ ____
ROOT
ATOM      1  C   UNL     1       3.115   5.416  18.789  0.00  0.00    +0.000 C 
ATOM      2  C   UNL     1       2.471   5.061  20.172  0.00  0.00    +0.000 C 
ATOM      3  C   UNL     1       1.638   6.282  20.618  0.00  0.00    +0.000 C 
ATOM      4  C   UNL     1       2.241   7.387  19.792  0.00  0.00    +0.000 C 
ATOM      5  C   UNL     1       2.405   6.711  18.445  0.00  0.00    +0.000 C 
ATOM      6  C   UNL     1       3.002   7.854  17.649  0.00  0.00    +0.000 C 
ATOM      7  C   UNL     1       2.123   9.001  18.163  0.00  0.00    +0.000 C 
ATOM      8  O   UNL     1       1.954  10.064  17.589  0.00  0.00    +0.000 OA
ATOM      9  N   UNL     1       1.588   8.602  19.419  0.00  0.00    +0.000 N 
ATOM     10  C   UNL     1       0.697   9.270  20.247  0.00  0.00    +0.000 C 
ATOM     11  O   UNL     1       0.344   8.823  21.340  0.00  0.00    +0.000 OA
ENDROOT
BRANCH   1  13
ATOM     12  O   UNL     1       1.785   3.967  17.376  0.00  0.00    +0.000 OA
ATOM     13  C   UNL     1       2.894   4.282  17.799  0.00  0.00    +0.000 C 
BRANCH  13  14
ATOM     14  O   UNL     1       4.045   3.624  17.516  0.00  0.00    +0.000 OA
BRANCH  14  15
ATOM     15  C   UNL     1       4.874   4.208  16.488  0.00  0.00    +0.000 C 
BRANCH  15  16
ATOM     16  C   UNL     1       5.886   5.126  17.126  0.00  0.00    +0.000 A 
ATOM     17  C   UNL     1       6.021   6.452  16.691  0.00  0.00    +0.000 A 
ATOM     18  C   UNL     1       6.981   7.292  17.259  0.00  0.00    +0.000 A 
ATOM     19  C   UNL     1       7.810   6.819  18.274  0.00  0.00    +0.000 A 
ATOM     20  C   UNL     1       7.668   5.512  18.736  0.00  0.00    +0.000 A 
ATOM     21  C   UNL     1       6.709   4.670  18.166  0.00  0.00    +0.000 A 
ENDBRANCH  15  16
ENDBRANCH  14  15
ENDBRANCH  13  14
ENDBRANCH   1  13
BRANCH  10  22
ATOM     22  C   UNL     1       0.106  10.580  19.712  0.00  0.00    +0.000 C 
BRANCH  22  23
ATOM     23  O   UNL     1       0.947  11.698  19.975  0.00  0.00    +0.000 OA
ATOM     24  H   UNL     1       1.478  11.464  20.760  0.00  0.00    +0.000 HD
ENDBRANCH  22  23
ENDBRANCH  10  22
TORSDOF 6
ENDMDL
MODEL 6
REMARK VINA RESULT:      -7.5      0.927      1.183
REMARK  Name = 
REMARK  6 active torsions:
REMARK  status: ('A' for Active; 'I' for Inactive)
REMARK    1  A    between atoms: C_2  and  O_3
REMARK    2  A    between atoms: C_2  and  C_11
REMARK    3  A    between atoms: O_3  and  C_4
REMARK    4  A    between atoms: C_4  and  C_5
REMARK    5  A    between atoms: C_20  and  C_22
REMARK    6  A    between atoms: C_22  and  O_23
REMARK                            x       y       z     vdW  Elec       q    Type
REMARK                         _______ _______ _______ _____ _____    ______ ____
ROOT
ATOM      1  C   UNL     1       4.594   5.581  16.653  0.00  0.00    +0.000 C 
ATOM      2  C   UNL     1       4.129   6.899  17.359  0.00  0.00    +0.000 C 
ATOM      3  C   UNL     1       3.299   6.491  18.596  0.00  0.00    +0.000 C 
ATOM      4  C   UNL     1       2.909   5.077  18.253  0.00  0.00    +0.000 C 
ATOM      5  C   UNL     1       4.200   4.532  17.674  0.00  0.00    +0.000 C 
ATOM      6  C   UNL     1       3.765   3.116  17.355  0.00  0.00    +0.000 C 
ATOM      7  C   UNL     1       2.956   2.812  18.622  0.00  0.00    +0.000 C 
ATOM      8  O   UNL     1       2.686   1.693  19.028  0.00  0.00    +0.000 OA
ATOM      9  N   UNL     1       2.567   4.055  19.192  0.00  0.00    +0.000 N 
ATOM     10  C   UNL     1       1.873   4.305  20.366  0.00  0.00    +0.000 C 
ATOM     11  O   UNL     1       1.563   5.443  20.725  0.00  0.00    +0.000 OA
ENDROOT
BRANCH   1  13
ATOM     12  O   UNL     1       6.791   6.600  16.653  0.00  0.00    +0.000 OA
ATOM     13  C   UNL     1       6.083   5.646  16.345  0.00  0.00    +0.000 C 
BRANCH  13  14
ATOM     14  O   UNL     1       6.499   4.574  15.626  0.00  0.00    +0.000 OA
BRANCH  14  15
ATOM     15  C   UNL     1       7.140   4.866  14.365  0.00  0.00    +0.000 C 
BRANCH  15  16
ATOM     16  C   UNL     1       6.491   4.048  13.277  0.00  0.00    +0.000 A 
ATOM     17  C   UNL     1       5.096   4.013  13.147  0.00  0.00    +0.000 A 
ATOM     18  C   UNL     1       4.493   3.229  12.160  0.00  0.00    +0.000 A 
ATOM     19  C   UNL     1       5.279   2.480  11.287  0.00  0.00    +0.000 A 
ATOM     20  C   UNL     1       6.667   2.527  11.387  0.00  0.00    +0.000 A 
ATOM     21  C   UNL     1       7.272   3.309  12.375  0.00  0.00    +0.000 A 
ENDBRANCH  15  16
ENDBRANCH  14  15
ENDBRANCH  13  14
ENDBRANCH   1  13
BRANCH  10  22
ATOM     22  C   UNL     1       1.555   3.094  21.252  0.00  0.00    +0.000 C 
BRANCH  22  23
ATOM     23  O   UNL     1       2.678   2.681  22.024  0.00  0.00    +0.000 OA
ATOM     24  H   UNL     1       2.605   3.141  22.883  0.00  0.00    +0.000 HD
ENDBRANCH  22  23
ENDBRANCH  10  22
TORSDOF 6
ENDMDL
MODEL 7
REMARK VINA RESULT:      -7.4      1.255      1.909
REMARK  Name = 
REMARK  6 active torsions:
REMARK  status: ('A' for Active; 'I' for Inactive)
REMARK    1  A    between atoms: C_2  and  O_3
REMARK    2  A    between atoms: C_2  and  C_11
REMARK    3  A    between atoms: O_3  and  C_4
REMARK    4  A    between atoms: C_4  and  C_5
REMARK    5  A    between atoms: C_20  and  C_22
REMARK    6  A    between atoms: C_22  and  O_23
REMARK                            x       y       z     vdW  Elec       q    Type
REMARK                         _______ _______ _______ _____ _____    ______ ____
ROOT
ATOM      1  C   UNL     1       5.288   5.182  16.278  0.00  0.00    +0.000 C 
ATOM      2  C   UNL     1       4.905   6.653  16.653  0.00  0.00    +0.000 C 
ATOM      3  C   UNL     1       3.930   6.586  17.848  0.00  0.00    +0.000 C 
ATOM      4  C   UNL     1       3.422   5.171  17.754  0.00  0.00    +0.000 C 
ATOM      5  C   UNL     1       4.694   4.407  17.439  0.00  0.00    +0.000 C 
ATOM      6  C   UNL     1       4.141   2.998  17.362  0.00  0.00    +0.000 C 
ATOM      7  C   UNL     1       3.194   3.036  18.568  0.00  0.00    +0.000 C 
ATOM      8  O   UNL     1       2.771   2.055  19.157  0.00  0.00    +0.000 OA
ATOM      9  N   UNL     1       2.892   4.400  18.834  0.00  0.00    +0.000 N 
ATOM     10  C   UNL     1       2.127   4.949  19.853  0.00  0.00    +0.000 C 
ATOM     11  O   UNL     1       1.910   6.159  19.942  0.00  0.00    +0.000 OA
ENDROOT
BRANCH   1  13
ATOM     12  O   UNL     1       7.596   5.640  16.849  0.00  0.00    +0.000 OA
ATOM     13  C   UNL     1       6.796   5.052  16.127  0.00  0.00    +0.000 C 
BRANCH  13  14
ATOM     14  O   UNL     1       7.135   4.286  15.062  0.00  0.00    +0.000 OA
BRANCH  14  15
ATOM     15  C   UNL     1       6.976   4.898  13.763  0.00  0.00    +0.000 C 
BRANCH  15  16
ATOM     16  C   UNL     1       6.367   3.898  12.813  0.00  0.00    +0.000 A 
ATOM     17  C   UNL     1       7.177   2.986  12.121  0.00  0.00    +0.000 A 
ATOM     18  C   UNL     1       6.617   2.082  11.216  0.00  0.00    +0.000 A 
ATOM     19  C   UNL     1       5.240   2.074  10.999  0.00  0.00    +0.000 A 
ATOM     20  C   UNL     1       4.420   2.955  11.699  0.00  0.00    +0.000 A 
ATOM     21  C   UNL     1       4.980   3.862  12.604  0.00  0.00    +0.000 A 
ENDBRANCH  15  16
ENDBRANCH  14  15
ENDBRANCH  13  14
ENDBRANCH   1  13
BRANCH  10  22
ATOM     22  C   UNL     1       1.604   3.981  20.921  0.00  0.00    +0.000 C 
BRANCH  22  23
ATOM     23  O   UNL     1       0.434   3.290  20.497  0.00  0.00    +0.000 OA
ATOM     24  H   UNL     1       0.512   3.185  19.529  0.00  0.00    +0.000 HD
ENDBRANCH  22  23
ENDBRANCH  10  22
TORSDOF 6
ENDMDL
MODEL 8
REMARK VINA RESULT:      -7.2      1.368      2.180
REMARK  Name = 
REMARK  6 active torsions:
REMARK  status: ('A' for Active; 'I' for Inactive)
REMARK    1  A    between atoms: C_2  and  O_3
REMARK    2  A    between atoms: C_2  and  C_11
REMARK    3  A    between atoms: O_3  and  C_4
REMARK    4  A    between atoms: C_4  and  C_5
REMARK    5  A    between atoms: C_20  and  C_22
REMARK    6  A    between atoms: C_22  and  O_23
REMARK                            x       y       z     vdW  Elec       q    Type
REMARK                         _______ _______ _______ _____ _____    ______ ____
ROOT
ATOM      1  C   UNL     1       5.912   6.465  18.218  0.00  0.00    +0.000 C 
ATOM      2  C   UNL     1       6.706   5.432  19.086  0.00  0.00    +0.000 C 
ATOM      3  C   UNL     1       5.756   4.252  19.383  0.00  0.00    +0.000 C 
ATOM      4  C   UNL     1       4.406   4.875  19.146  0.00  0.00    +0.000 C 
ATOM      5  C   UNL     1       4.655   5.683  17.887  0.00  0.00    +0.000 C 
ATOM      6  C   UNL     1       3.278   6.281  17.682  0.00  0.00    +0.000 C 
ATOM      7  C   UNL     1       2.422   5.050  18.004  0.00  0.00    +0.000 C 
ATOM      8  O   UNL     1       1.264   4.891  17.651  0.00  0.00    +0.000 OA
ATOM      9  N   UNL     1       3.211   4.172  18.797  0.00  0.00    +0.000 N 
ATOM     10  C   UNL     1       2.902   2.913  19.288  0.00  0.00    +0.000 C 
ATOM     11  O   UNL     1       3.673   2.273  20.006  0.00  0.00    +0.000 OA
ENDROOT
BRANCH   1  13
ATOM     12  O   UNL     1       7.583   7.776  17.055  0.00  0.00    +0.000 OA
ATOM     13  C   UNL     1       6.739   6.887  17.012  0.00  0.00    +0.000 C 
BRANCH  13  14
ATOM     14  O   UNL     1       6.370   6.225  15.888  0.00  0.00    +0.000 OA
BRANCH  14  15
ATOM     15  C   UNL     1       7.235   5.146  15.472  0.00  0.00    +0.000 C 
BRANCH  15  16
ATOM     16  C   UNL     1       6.707   4.549  14.193  0.00  0.00    +0.000 A 
ATOM     17  C   UNL     1       5.407   4.028  14.133  0.00  0.00    +0.000 A 
ATOM     18  C   UNL     1       4.928   3.444  12.958  0.00  0.00    +0.000 A 
ATOM     19  C   UNL     1       5.741   3.382  11.828  0.00  0.00    +0.000 A 
ATOM     20  C   UNL     1       7.024   3.921  11.864  0.00  0.00    +0.000 A 
ATOM     21  C   UNL     1       7.506   4.504  13.041  0.00  0.00    +0.000 A 
ENDBRANCH  15  16
ENDBRANCH  14  15
ENDBRANCH  13  14
ENDBRANCH   1  13
BRANCH  10  22
ATOM     22  C   UNL     1       1.565   2.307  18.843  0.00  0.00    +0.000 C 
BRANCH  22  23
ATOM     23  O   UNL     1       0.476   2.762  19.639  0.00  0.00    +0.000 OA
ATOM     24  H   UNL     1       0.783   3.573  20.087  0.00  0.00    +0.000 HD
ENDBRANCH  22  23
ENDBRANCH  10  22
TORSDOF 6
ENDMDL
MODEL 9
REMARK VINA RESULT:      -7.2      2.709      4.955
REMARK  Name = 
REMARK  6 active torsions:
REMARK  status: ('A' for Active; 'I' for Inactive)
REMARK    1  A    between atoms: C_2  and  O_3
REMARK    2  A    between atoms: C_2  and  C_11
REMARK    3  A    between atoms: O_3  and  C_4
REMARK    4  A    between atoms: C_4  and  C_5
REMARK    5  A    between atoms: C_20  and  C_22
REMARK    6  A    between atoms: C_22  and  O_23
REMARK                            x       y       z     vdW  Elec       q    Type
REMARK                         _______ _______ _______ _____ _____    ______ ____
ROOT
ATOM      1  C   UNL     1       2.717   5.050  19.080  0.00  0.00    +0.000 C 
ATOM      2  C   UNL     1       2.018   4.948  20.477  0.00  0.00    +0.000 C 
ATOM      3  C   UNL     1       1.380   6.322  20.774  0.00  0.00    +0.000 C 
ATOM      4  C   UNL     1       2.151   7.228  19.849  0.00  0.00    +0.000 C 
ATOM      5  C   UNL     1       2.218   6.393  18.585  0.00  0.00    +0.000 C 
ATOM      6  C   UNL     1       2.989   7.340  17.687  0.00  0.00    +0.000 C 
ATOM      7  C   UNL     1       2.293   8.656  18.058  0.00  0.00    +0.000 C 
ATOM      8  O   UNL     1       2.294   9.665  17.371  0.00  0.00    +0.000 OA
ATOM      9  N   UNL     1       1.695   8.481  19.336  0.00  0.00    +0.000 N 
ATOM     10  C   UNL     1       0.912   9.361  20.068  0.00  0.00    +0.000 C 
ATOM     11  O   UNL     1       0.489   9.093  21.194  0.00  0.00    +0.000 OA
ENDROOT
BRANCH   1  13
ATOM     12  O   UNL     1       1.185   3.665  17.814  0.00  0.00    +0.000 OA
ATOM     13  C   UNL     1       2.331   3.863  18.209  0.00  0.00    +0.000 C 
BRANCH  13  14
ATOM     14  O   UNL     1       3.375   3.025  18.001  0.00  0.00    +0.000 OA
BRANCH  14  15
ATOM     15  C   UNL     1       4.653   3.464  18.511  0.00  0.00    +0.000 C 
BRANCH  15  16
ATOM     16  C   UNL     1       5.423   4.144  17.406  0.00  0.00    +0.000 A 
ATOM     17  C   UNL     1       5.225   3.775  16.068  0.00  0.00    +0.000 A 
ATOM     18  C   UNL     1       5.961   4.381  15.048  0.00  0.00    +0.000 A 
ATOM     19  C   UNL     1       6.897   5.367  15.352  0.00  0.00    +0.000 A 
ATOM     20  C   UNL     1       7.085   5.762  16.674  0.00  0.00    +0.000 A 
ATOM     21  C   UNL     1       6.350   5.156  17.697  0.00  0.00    +0.000 A 
ENDBRANCH  15  16
ENDBRANCH  14  15
ENDBRANCH  13  14
ENDBRANCH   1  13
BRANCH  10  22
ATOM     22  C   UNL     1       0.533  10.681  19.386  0.00  0.00    +0.000 C 
BRANCH  22  23
ATOM     23  O   UNL     1      -0.536  10.521  18.460  0.00  0.00    +0.000 OA
ATOM     24  H   UNL     1      -0.256   9.826  17.833  0.00  0.00    +0.000 HD
ENDBRANCH  22  23
ENDBRANCH  10  22
TORSDOF 6
ENDMDL
