MODEL 1
REMARK VINA RESULT:      -7.8      0.000      0.000
REMARK  Name = 
REMARK  14 active torsions:
REMARK  status: ('A' for Active; 'I' for Inactive)
REMARK    1  A    between atoms: C_1  and  O_2
REMARK    2  A    between atoms: O_2  and  C_3
REMARK    3  A    between atoms: C_7  and  C_8
REMARK    4  A    between atoms: C_8  and  N_9
REMARK    5  A    between atoms: N_9  and  C_10
REMARK    6  A    between atoms: C_13  and  C_14
REMARK    7  A    between atoms: N_19  and  C_20
REMARK    8  A    between atoms: C_20  and  C_21
REMARK    9  A    between atoms: N_23  and  C_24
REMARK   10  A    between atoms: C_27  and  C_28
REMARK   11  A    between atoms: C_28  and  C_29
REMARK   12  A    between atoms: C_28  and  C_30
REMARK   13  A    between atoms: C_35  and  O_36
REMARK   14  A    between atoms: O_36  and  C_37
REMARK                            x       y       z     vdW  Elec       q    Type
REMARK                         _______ _______ _______ _____ _____    ______ ____
ROOT
ATOM      1  C   UNL     1      -3.839  11.561  17.500  0.00  0.00    +0.000 A 
ATOM      2  C   UNL     1      -3.781  11.968  18.838  0.00  0.00    +0.000 A 
ATOM      3  C   UNL     1      -2.554  12.042  19.513  0.00  0.00    +0.000 A 
ATOM      4  C   UNL     1      -2.504  12.424  20.924  0.00  0.00    +0.000 A 
ATOM      5  C   UNL     1      -1.365  12.294  21.632  0.00  0.00    +0.000 A 
ATOM      6  C   UNL     1      -0.157  11.746  20.966  0.00  0.00    +0.000 A 
ATOM      7  O   UNL     1       0.813  11.392  21.639  0.00  0.00    +0.000 OA
ATOM      8  N   UNL     1      -0.153  11.675  19.580  0.00  0.00    +0.000 N 
ATOM      9  C   UNL     1      -1.366  11.739  18.833  0.00  0.00    +0.000 A 
ATOM     10  C   UNL     1      -1.422  11.450  17.463  0.00  0.00    +0.000 A 
ATOM     11  C   UNL     1      -2.653  11.320  16.796  0.00  0.00    +0.000 A 
ENDROOT
BRANCH   1  13
ATOM     12  C   UNL     1      -6.015  12.486  17.374  0.00  0.00    +0.000 C 
ATOM     13  O   UNL     1      -5.112  11.451  16.996  0.00  0.00    +0.000 OA
ENDBRANCH   1  13
BRANCH  11  14
ATOM     14  O   UNL     1      -2.720  11.041  15.458  0.00  0.00    +0.000 OA
ATOM     15  C   UNL     1      -2.943   9.673  15.120  0.00  0.00    +0.000 C 
ENDBRANCH  11  14
BRANCH   5  16
ATOM     16  C   UNL     1      -1.250  12.570  23.104  0.00  0.00    +0.000 C 
BRANCH  16  17
ATOM     17  N   UNL     1      -2.002  13.772  23.451  0.00  0.00    +0.000 N 
ATOM     18  H   UNL     1      -1.500  14.426  24.049  0.00  0.00    +0.000 HD
BRANCH  17  19
ATOM     19  C   UNL     1      -3.353  13.683  23.798  0.00  0.00    +0.000 A 
ATOM     20  C   UNL     1      -3.942  12.552  24.376  0.00  0.00    +0.000 A 
ATOM     21  C   UNL     1      -5.332  12.449  24.533  0.00  0.00    +0.000 A 
ATOM     22  C   UNL     1      -6.174  13.470  24.087  0.00  0.00    +0.000 A 
ATOM     23  C   UNL     1      -7.665  13.313  24.118  0.00  0.00    +0.000 C 
ATOM     24  C   UNL     1      -5.598  14.628  23.557  0.00  0.00    +0.000 A 
ATOM     25  C   UNL     1      -4.206  14.728  23.418  0.00  0.00    +0.000 A 
ENDBRANCH  17  19
ENDBRANCH  16  17
ENDBRANCH   5  16
BRANCH   8  26
ATOM     26  C   UNL     1       1.122  11.411  18.911  0.00  0.00    +0.000 C 
BRANCH  26  27
ATOM     27  C   UNL     1       1.395   9.940  18.621  0.00  0.00    +0.000 C 
ATOM     28  O   UNL     1       1.427   9.545  17.456  0.00  0.00    +0.000 OA
ATOM     29  N   UNL     1       1.631   9.151  19.740  0.00  0.00    +0.000 N 
ATOM     30  H   UNL     1       1.252   9.501  20.615  0.00  0.00    +0.000 HD
BRANCH  29  31
ATOM     31  C   UNL     1       1.831   7.766  19.614  0.00  0.00    +0.000 A 
ATOM     32  C   UNL     1       1.513   6.900  20.660  0.00  0.00    +0.000 A 
ATOM     33  C   UNL     1       1.852   5.551  20.584  0.00  0.00    +0.000 A 
ATOM     34  C   UNL     1       2.536   5.051  19.469  0.00  0.00    +0.000 A 
ATOM     35  C   UNL     1       2.798   5.918  18.392  0.00  0.00    +0.000 A 
ATOM     36  C   UNL     1       2.415   7.265  18.451  0.00  0.00    +0.000 A 
BRANCH  34  37
ATOM     37  C   UNL     1       3.009   3.609  19.482  0.00  0.00    +0.000 C 
ATOM     38  C   UNL     1       4.528   3.498  19.364  0.00  0.00    +0.000 C 
ATOM     39  C   UNL     1       2.497   2.860  20.717  0.00  0.00    +0.000 C 
ENDBRANCH  34  37
ENDBRANCH  29  31
ENDBRANCH  26  27
ENDBRANCH   8  26
TORSDOF 9
ENDMDL
MODEL 2
REMARK VINA RESULT:      -7.8      1.556      2.305
REMARK  Name = 
REMARK  14 active torsions:
REMARK  status: ('A' for Active; 'I' for Inactive)
REMARK    1  A    between atoms: C_1  and  O_2
REMARK    2  A    between atoms: O_2  and  C_3
REMARK    3  A    between atoms: C_7  and  C_8
REMARK    4  A    between atoms: C_8  and  N_9
REMARK    5  A    between atoms: N_9  and  C_10
REMARK    6  A    between atoms: C_13  and  C_14
REMARK    7  A    between atoms: N_19  and  C_20
REMARK    8  A    between atoms: C_20  and  C_21
REMARK    9  A    between atoms: N_23  and  C_24
REMARK   10  A    between atoms: C_27  and  C_28
REMARK   11  A    between atoms: C_28  and  C_29
REMARK   12  A    between atoms: C_28  and  C_30
REMARK   13  A    between atoms: C_35  and  O_36
REMARK   14  A    between atoms: O_36  and  C_37
REMARK                            x       y       z     vdW  Elec       q    Type
REMARK                         _______ _______ _______ _____ _____    ______ ____
ROOT
ATOM      1  C   UNL     1      -4.759  11.752  18.078  0.00  0.00    +0.000 A 
ATOM      2  C   UNL     1      -4.507  12.242  19.365  0.00  0.00    +0.000 A 
ATOM      3  C   UNL     1      -3.197  12.332  19.855  0.00  0.00    +0.000 A 
ATOM      4  C   UNL     1      -2.943  12.802  21.217  0.00  0.00    +0.000 A 
ATOM      5  C   UNL     1      -1.718  12.693  21.766  0.00  0.00    +0.000 A 
ATOM      6  C   UNL     1      -0.622  12.079  20.975  0.00  0.00    +0.000 A 
ATOM      7  O   UNL     1       0.429  11.748  21.528  0.00  0.00    +0.000 OA
ATOM      8  N   UNL     1      -0.815  11.919  19.610  0.00  0.00    +0.000 N 
ATOM      9  C   UNL     1      -2.120  11.962  19.037  0.00  0.00    +0.000 A 
ATOM     10  C   UNL     1      -2.372  11.588  17.710  0.00  0.00    +0.000 A 
ATOM     11  C   UNL     1      -3.687  11.442  17.233  0.00  0.00    +0.000 A 
ENDROOT
BRANCH   1  13
ATOM     12  C   UNL     1      -6.893  10.958  18.726  0.00  0.00    +0.000 C 
ATOM     13  O   UNL     1      -6.091  11.638  17.765  0.00  0.00    +0.000 OA
ENDBRANCH   1  13
BRANCH  11  14
ATOM     14  O   UNL     1      -3.944  11.079  15.939  0.00  0.00    +0.000 OA
ATOM     15  C   UNL     1      -2.850  10.508  15.224  0.00  0.00    +0.000 C 
ENDBRANCH  11  14
BRANCH   5  16
ATOM     16  C   UNL     1      -1.393  13.059  23.186  0.00  0.00    +0.000 C 
BRANCH  16  17
ATOM     17  N   UNL     1      -1.008  14.465  23.267  0.00  0.00    +0.000 N 
ATOM     18  H   UNL     1      -0.105  14.631  23.708  0.00  0.00    +0.000 HD
BRANCH  17  19
ATOM     19  C   UNL     1      -1.949  15.434  23.630  0.00  0.00    +0.000 A 
ATOM     20  C   UNL     1      -1.772  16.810  23.440  0.00  0.00    +0.000 A 
ATOM     21  C   UNL     1      -2.662  17.745  23.988  0.00  0.00    +0.000 A 
ATOM     22  C   UNL     1      -3.741  17.325  24.768  0.00  0.00    +0.000 A 
ATOM     23  C   UNL     1      -4.615  18.316  25.478  0.00  0.00    +0.000 C 
ATOM     24  C   UNL     1      -3.961  15.954  24.923  0.00  0.00    +0.000 A 
ATOM     25  C   UNL     1      -3.074  15.025  24.357  0.00  0.00    +0.000 A 
ENDBRANCH  17  19
ENDBRANCH  16  17
ENDBRANCH   5  16
BRANCH   8  26
ATOM     26  C   UNL     1       0.350  11.586  18.788  0.00  0.00    +0.000 C 
BRANCH  26  27
ATOM     27  C   UNL     1       0.633  10.094  18.663  0.00  0.00    +0.000 C 
ATOM     28  O   UNL     1       0.115   9.451  17.750  0.00  0.00    +0.000 OA
ATOM     29  N   UNL     1       1.516   9.579  19.602  0.00  0.00    +0.000 N 
ATOM     30  H   UNL     1       1.598  10.105  20.467  0.00  0.00    +0.000 HD
BRANCH  29  31
ATOM     31  C   UNL     1       1.810   8.206  19.636  0.00  0.00    +0.000 A 
ATOM     32  C   UNL     1       2.420   7.578  18.550  0.00  0.00    +0.000 A 
ATOM     33  C   UNL     1       2.570   6.194  18.531  0.00  0.00    +0.000 A 
ATOM     34  C   UNL     1       2.093   5.411  19.589  0.00  0.00    +0.000 A 
ATOM     35  C   UNL     1       1.536   6.057  20.708  0.00  0.00    +0.000 A 
ATOM     36  C   UNL     1       1.426   7.454  20.745  0.00  0.00    +0.000 A 
BRANCH  34  37
ATOM     37  C   UNL     1       2.152   3.899  19.472  0.00  0.00    +0.000 C 
ATOM     38  C   UNL     1       1.368   3.203  20.584  0.00  0.00    +0.000 C 
ATOM     39  C   UNL     1       1.688   3.424  18.091  0.00  0.00    +0.000 C 
ENDBRANCH  34  37
ENDBRANCH  29  31
ENDBRANCH  26  27
ENDBRANCH   8  26
TORSDOF 9
ENDMDL
MODEL 3
REMARK VINA RESULT:      -7.8      5.945     10.599
REMARK  Name = 
REMARK  14 active torsions:
REMARK  status: ('A' for Active; 'I' for Inactive)
REMARK    1  A    between atoms: C_1  and  O_2
REMARK    2  A    between atoms: O_2  and  C_3
REMARK    3  A    between atoms: C_7  and  C_8
REMARK    4  A    between atoms: C_8  and  N_9
REMARK    5  A    between atoms: N_9  and  C_10
REMARK    6  A    between atoms: C_13  and  C_14
REMARK    7  A    between atoms: N_19  and  C_20
REMARK    8  A    between atoms: C_20  and  C_21
REMARK    9  A    between atoms: N_23  and  C_24
REMARK   10  A    between atoms: C_27  and  C_28
REMARK   11  A    between atoms: C_28  and  C_29
REMARK   12  A    between atoms: C_28  and  C_30
REMARK   13  A    between atoms: C_35  and  O_36
REMARK   14  A    between atoms: O_36  and  C_37
REMARK                            x       y       z     vdW  Elec       q    Type
REMARK                         _______ _______ _______ _____ _____    ______ ____
ROOT
ATOM      1  C   UNL     1       6.250   4.132  13.803  0.00  0.00    +0.000 A 
ATOM      2  C   UNL     1       5.220   4.050  14.747  0.00  0.00    +0.000 A 
ATOM      3  C   UNL     1       5.388   4.565  16.040  0.00  0.00    +0.000 A 
ATOM      4  C   UNL     1       4.324   4.435  17.036  0.00  0.00    +0.000 A 
ATOM      5  C   UNL     1       4.553   4.734  18.330  0.00  0.00    +0.000 A 
ATOM      6  C   UNL     1       5.905   5.189  18.740  0.00  0.00    +0.000 A 
ATOM      7  O   UNL     1       6.206   5.233  19.935  0.00  0.00    +0.000 OA
ATOM      8  N   UNL     1       6.790   5.580  17.745  0.00  0.00    +0.000 N 
ATOM      9  C   UNL     1       6.588   5.203  16.385  0.00  0.00    +0.000 A 
ATOM     10  C   UNL     1       7.567   5.388  15.400  0.00  0.00    +0.000 A 
ATOM     11  C   UNL     1       7.425   4.824  14.119  0.00  0.00    +0.000 A 
ENDROOT
BRANCH   1  13
ATOM     12  C   UNL     1       4.609   3.509  12.215  0.00  0.00    +0.000 C 
ATOM     13  O   UNL     1       5.977   3.510  12.610  0.00  0.00    +0.000 OA
ENDBRANCH   1  13
BRANCH  11  14
ATOM     14  O   UNL     1       8.374   5.001  13.148  0.00  0.00    +0.000 OA
ATOM     15  C   UNL     1       8.072   5.980  12.156  0.00  0.00    +0.000 C 
ENDBRANCH  11  14
BRANCH   5  16
ATOM     16  C   UNL     1       3.551   4.538  19.431  0.00  0.00    +0.000 C 
BRANCH  16  17
ATOM     17  N   UNL     1       2.287   5.181  19.081  0.00  0.00    +0.000 N 
ATOM     18  H   UNL     1       1.862   4.836  18.223  0.00  0.00    +0.000 HD
BRANCH  17  19
ATOM     19  C   UNL     1       2.140   6.565  19.213  0.00  0.00    +0.000 A 
ATOM     20  C   UNL     1       1.749   7.204  20.396  0.00  0.00    +0.000 A 
ATOM     21  C   UNL     1       1.438   8.571  20.422  0.00  0.00    +0.000 A 
ATOM     22  C   UNL     1       1.484   9.331  19.252  0.00  0.00    +0.000 A 
ATOM     23  C   UNL     1       1.018  10.757  19.236  0.00  0.00    +0.000 C 
ATOM     24  C   UNL     1       1.923   8.721  18.075  0.00  0.00    +0.000 A 
ATOM     25  C   UNL     1       2.247   7.356  18.062  0.00  0.00    +0.000 A 
ENDBRANCH  17  19
ENDBRANCH  16  17
ENDBRANCH   5  16
BRANCH   8  26
ATOM     26  C   UNL     1       8.004   6.291  18.150  0.00  0.00    +0.000 C 
BRANCH  26  27
ATOM     27  C   UNL     1       7.893   7.811  18.113  0.00  0.00    +0.000 C 
ATOM     28  O   UNL     1       6.997   8.339  17.454  0.00  0.00    +0.000 OA
ATOM     29  N   UNL     1       8.825   8.490  18.886  0.00  0.00    +0.000 N 
ATOM     30  H   UNL     1       9.681   7.984  19.093  0.00  0.00    +0.000 HD
BRANCH  29  31
ATOM     31  C   UNL     1       8.871   9.894  18.888  0.00  0.00    +0.000 A 
ATOM     32  C   UNL     1       8.649  10.617  17.716  0.00  0.00    +0.000 A 
ATOM     33  C   UNL     1       8.845  11.996  17.693  0.00  0.00    +0.000 A 
ATOM     34  C   UNL     1       9.287  12.672  18.837  0.00  0.00    +0.000 A 
ATOM     35  C   UNL     1       9.448  11.944  20.031  0.00  0.00    +0.000 A 
ATOM     36  C   UNL     1       9.207  10.564  20.063  0.00  0.00    +0.000 A 
BRANCH  34  37
ATOM     37  C   UNL     1       9.619  14.149  18.738  0.00  0.00    +0.000 C 
ATOM     38  C   UNL     1      10.805  14.414  17.811  0.00  0.00    +0.000 C 
ATOM     39  C   UNL     1       8.397  14.973  18.318  0.00  0.00    +0.000 C 
ENDBRANCH  34  37
ENDBRANCH  29  31
ENDBRANCH  26  27
ENDBRANCH   8  26
TORSDOF 9
ENDMDL
MODEL 4
REMARK VINA RESULT:      -7.7      5.770     10.321
REMARK  Name = 
REMARK  14 active torsions:
REMARK  status: ('A' for Active; 'I' for Inactive)
REMARK    1  A    between atoms: C_1  and  O_2
REMARK    2  A    between atoms: O_2  and  C_3
REMARK    3  A    between atoms: C_7  and  C_8
REMARK    4  A    between atoms: C_8  and  N_9
REMARK    5  A    between atoms: N_9  and  C_10
REMARK    6  A    between atoms: C_13  and  C_14
REMARK    7  A    between atoms: N_19  and  C_20
REMARK    8  A    between atoms: C_20  and  C_21
REMARK    9  A    between atoms: N_23  and  C_24
REMARK   10  A    between atoms: C_27  and  C_28
REMARK   11  A    between atoms: C_28  and  C_29
REMARK   12  A    between atoms: C_28  and  C_30
REMARK   13  A    between atoms: C_35  and  O_36
REMARK   14  A    between atoms: O_36  and  C_37
REMARK                            x       y       z     vdW  Elec       q    Type
REMARK                         _______ _______ _______ _____ _____    ______ ____
ROOT
ATOM      1  C   UNL     1       5.784   3.994  13.807  0.00  0.00    +0.000 A 
ATOM      2  C   UNL     1       4.772   4.064  14.771  0.00  0.00    +0.000 A 
ATOM      3  C   UNL     1       5.019   4.626  16.032  0.00  0.00    +0.000 A 
ATOM      4  C   UNL     1       3.971   4.655  17.051  0.00  0.00    +0.000 A 
ATOM      5  C   UNL     1       4.257   4.997  18.323  0.00  0.00    +0.000 A 
ATOM      6  C   UNL     1       5.657   5.336  18.685  0.00  0.00    +0.000 A 
ATOM      7  O   UNL     1       5.988   5.412  19.869  0.00  0.00    +0.000 OA
ATOM      8  N   UNL     1       6.553   5.584  17.655  0.00  0.00    +0.000 N 
ATOM      9  C   UNL     1       6.284   5.159  16.321  0.00  0.00    +0.000 A 
ATOM     10  C   UNL     1       7.254   5.194  15.310  0.00  0.00    +0.000 A 
ATOM     11  C   UNL     1       7.029   4.581  14.064  0.00  0.00    +0.000 A 
ENDROOT
BRANCH   1  13
ATOM     12  C   UNL     1       4.706   4.120  11.703  0.00  0.00    +0.000 C 
ATOM     13  O   UNL     1       5.424   3.341  12.654  0.00  0.00    +0.000 OA
ENDBRANCH   1  13
BRANCH  11  14
ATOM     14  O   UNL     1       7.968   4.612  13.069  0.00  0.00    +0.000 OA
ATOM     15  C   UNL     1       8.549   5.887  12.803  0.00  0.00    +0.000 C 
ENDBRANCH  11  14
BRANCH   5  16
ATOM     16  C   UNL     1       3.266   4.960  19.451  0.00  0.00    +0.000 C 
BRANCH  16  17
ATOM     17  N   UNL     1       3.234   6.249  20.134  0.00  0.00    +0.000 N 
ATOM     18  H   UNL     1       3.244   6.188  21.151  0.00  0.00    +0.000 HD
BRANCH  17  19
ATOM     19  C   UNL     1       2.386   7.266  19.684  0.00  0.00    +0.000 A 
ATOM     20  C   UNL     1       2.360   7.740  18.368  0.00  0.00    +0.000 A 
ATOM     21  C   UNL     1       1.625   8.882  18.015  0.00  0.00    +0.000 A 
ATOM     22  C   UNL     1       0.917   9.597  18.983  0.00  0.00    +0.000 A 
ATOM     23  C   UNL     1       0.246  10.896  18.649  0.00  0.00    +0.000 C 
ATOM     24  C   UNL     1       0.890   9.106  20.290  0.00  0.00    +0.000 A 
ATOM     25  C   UNL     1       1.616   7.954  20.631  0.00  0.00    +0.000 A 
ENDBRANCH  17  19
ENDBRANCH  16  17
ENDBRANCH   5  16
BRANCH   8  26
ATOM     26  C   UNL     1       7.840   6.191  17.999  0.00  0.00    +0.000 C 
BRANCH  26  27
ATOM     27  C   UNL     1       7.855   7.714  17.960  0.00  0.00    +0.000 C 
ATOM     28  O   UNL     1       7.067   8.312  17.228  0.00  0.00    +0.000 OA
ATOM     29  N   UNL     1       8.767   8.318  18.816  0.00  0.00    +0.000 N 
ATOM     30  H   UNL     1       9.558   7.745  19.094  0.00  0.00    +0.000 HD
BRANCH  29  31
ATOM     31  C   UNL     1       8.926   9.714  18.828  0.00  0.00    +0.000 A 
ATOM     32  C   UNL     1       9.289  10.382  19.997  0.00  0.00    +0.000 A 
ATOM     33  C   UNL     1       9.298  11.774  20.038  0.00  0.00    +0.000 A 
ATOM     34  C   UNL     1       8.923  12.522  18.915  0.00  0.00    +0.000 A 
ATOM     35  C   UNL     1       8.619  11.841  17.722  0.00  0.00    +0.000 A 
ATOM     36  C   UNL     1       8.654  10.441  17.670  0.00  0.00    +0.000 A 
BRANCH  34  37
ATOM     37  C   UNL     1       8.814  14.031  19.038  0.00  0.00    +0.000 C 
ATOM     38  C   UNL     1      10.143  14.730  18.762  0.00  0.00    +0.000 C 
ATOM     39  C   UNL     1       7.702  14.588  18.142  0.00  0.00    +0.000 C 
ENDBRANCH  34  37
ENDBRANCH  29  31
ENDBRANCH  26  27
ENDBRANCH   8  26
TORSDOF 9
ENDMDL
MODEL 5
REMARK VINA RESULT:      -7.5      1.885      7.185
REMARK  Name = 
REMARK  14 active torsions:
REMARK  status: ('A' for Active; 'I' for Inactive)
REMARK    1  A    between atoms: C_1  and  O_2
REMARK    2  A    between atoms: O_2  and  C_3
REMARK    3  A    between atoms: C_7  and  C_8
REMARK    4  A    between atoms: C_8  and  N_9
REMARK    5  A    between atoms: N_9  and  C_10
REMARK    6  A    between atoms: C_13  and  C_14
REMARK    7  A    between atoms: N_19  and  C_20
REMARK    8  A    between atoms: C_20  and  C_21
REMARK    9  A    between atoms: N_23  and  C_24
REMARK   10  A    between atoms: C_27  and  C_28
REMARK   11  A    between atoms: C_28  and  C_29
REMARK   12  A    between atoms: C_28  and  C_30
REMARK   13  A    between atoms: C_35  and  O_36
REMARK   14  A    between atoms: O_36  and  C_37
REMARK                            x       y       z     vdW  Elec       q    Type
REMARK                         _______ _______ _______ _____ _____    ______ ____
ROOT
ATOM      1  C   UNL     1       2.659   6.268  19.726  0.00  0.00    +0.000 A 
ATOM      2  C   UNL     1       1.916   6.731  20.818  0.00  0.00    +0.000 A 
ATOM      3  C   UNL     1       1.295   7.987  20.783  0.00  0.00    +0.000 A 
ATOM      4  C   UNL     1       0.558   8.485  21.945  0.00  0.00    +0.000 A 
ATOM      5  C   UNL     1       0.141   9.765  21.998  0.00  0.00    +0.000 A 
ATOM      6  C   UNL     1       0.447  10.675  20.866  0.00  0.00    +0.000 A 
ATOM      7  O   UNL     1       0.296  11.891  20.992  0.00  0.00    +0.000 OA
ATOM      8  N   UNL     1       0.877  10.108  19.673  0.00  0.00    +0.000 N 
ATOM      9  C   UNL     1       1.386   8.777  19.628  0.00  0.00    +0.000 A 
ATOM     10  C   UNL     1       2.029   8.256  18.497  0.00  0.00    +0.000 A 
ATOM     11  C   UNL     1       2.701   7.022  18.547  0.00  0.00    +0.000 A 
ENDROOT
BRANCH   1  13
ATOM     12  C   UNL     1       2.504   3.907  19.637  0.00  0.00    +0.000 C 
ATOM     13  O   UNL     1       3.282   5.062  19.935  0.00  0.00    +0.000 OA
ENDBRANCH   1  13
BRANCH  11  14
ATOM     14  O   UNL     1       3.329   6.502  17.449  0.00  0.00    +0.000 OA
ATOM     15  C   UNL     1       4.692   6.886  17.273  0.00  0.00    +0.000 C 
ENDBRANCH  11  14
BRANCH   5  16
ATOM     16  C   UNL     1      -0.535  10.384  23.189  0.00  0.00    +0.000 C 
BRANCH  16  17
ATOM     17  N   UNL     1      -1.772  11.042  22.778  0.00  0.00    +0.000 N 
ATOM     18  H   UNL     1      -1.886  11.134  21.770  0.00  0.00    +0.000 HD
BRANCH  17  19
ATOM     19  C   UNL     1      -2.227  12.176  23.458  0.00  0.00    +0.000 A 
ATOM     20  C   UNL     1      -3.522  12.319  23.967  0.00  0.00    +0.000 A 
ATOM     21  C   UNL     1      -3.979  13.544  24.475  0.00  0.00    +0.000 A 
ATOM     22  C   UNL     1      -3.155  14.670  24.458  0.00  0.00    +0.000 A 
ATOM     23  C   UNL     1      -3.676  16.017  24.864  0.00  0.00    +0.000 C 
ATOM     24  C   UNL     1      -1.842  14.531  24.003  0.00  0.00    +0.000 A 
ATOM     25  C   UNL     1      -1.389  13.297  23.511  0.00  0.00    +0.000 A 
ENDBRANCH  17  19
ENDBRANCH  16  17
ENDBRANCH   5  16
BRANCH   8  26
ATOM     26  C   UNL     1       0.904  10.958  18.482  0.00  0.00    +0.000 C 
BRANCH  26  27
ATOM     27  C   UNL     1      -0.418  11.645  18.161  0.00  0.00    +0.000 C 
ATOM     28  O   UNL     1      -0.418  12.809  17.761  0.00  0.00    +0.000 OA
ATOM     29  N   UNL     1      -1.548  10.853  18.317  0.00  0.00    +0.000 N 
ATOM     30  H   UNL     1      -1.452  10.066  18.952  0.00  0.00    +0.000 HD
BRANCH  29  31
ATOM     31  C   UNL     1      -2.833  11.386  18.116  0.00  0.00    +0.000 A 
ATOM     32  C   UNL     1      -3.503  12.043  19.148  0.00  0.00    +0.000 A 
ATOM     33  C   UNL     1      -4.830  12.434  18.987  0.00  0.00    +0.000 A 
ATOM     34  C   UNL     1      -5.516  12.155  17.799  0.00  0.00    +0.000 A 
ATOM     35  C   UNL     1      -4.814  11.548  16.741  0.00  0.00    +0.000 A 
ATOM     36  C   UNL     1      -3.465  11.195  16.889  0.00  0.00    +0.000 A 
BRANCH  34  37
ATOM     37  C   UNL     1      -6.997  12.474  17.710  0.00  0.00    +0.000 C 
ATOM     38  C   UNL     1      -7.654  12.550  19.088  0.00  0.00    +0.000 C 
ATOM     39  C   UNL     1      -7.249  13.755  16.909  0.00  0.00    +0.000 C 
ENDBRANCH  34  37
ENDBRANCH  29  31
ENDBRANCH  26  27
ENDBRANCH   8  26
TORSDOF 9
ENDMDL
MODEL 6
REMARK VINA RESULT:      -7.5      5.892     10.473
REMARK  Name = 
REMARK  14 active torsions:
REMARK  status: ('A' for Active; 'I' for Inactive)
REMARK    1  A    between atoms: C_1  and  O_2
REMARK    2  A    between atoms: O_2  and  C_3
REMARK    3  A    between atoms: C_7  and  C_8
REMARK    4  A    between atoms: C_8  and  N_9
REMARK    5  A    between atoms: N_9  and  C_10
REMARK    6  A    between atoms: C_13  and  C_14
REMARK    7  A    between atoms: N_19  and  C_20
REMARK    8  A    between atoms: C_20  and  C_21
REMARK    9  A    between atoms: N_23  and  C_24
REMARK   10  A    between atoms: C_27  and  C_28
REMARK   11  A    between atoms: C_28  and  C_29
REMARK   12  A    between atoms: C_28  and  C_30
REMARK   13  A    between atoms: C_35  and  O_36
REMARK   14  A    between atoms: O_36  and  C_37
REMARK                            x       y       z     vdW  Elec       q    Type
REMARK                         _______ _______ _______ _____ _____    ______ ____
ROOT
ATOM      1  C   UNL     1       6.218   4.066  13.764  0.00  0.00    +0.000 A 
ATOM      2  C   UNL     1       5.165   4.037  14.685  0.00  0.00    +0.000 A 
ATOM      3  C   UNL     1       5.329   4.552  15.979  0.00  0.00    +0.000 A 
ATOM      4  C   UNL     1       4.239   4.478  16.952  0.00  0.00    +0.000 A 
ATOM      5  C   UNL     1       4.453   4.774  18.249  0.00  0.00    +0.000 A 
ATOM      6  C   UNL     1       5.815   5.170  18.686  0.00  0.00    +0.000 A 
ATOM      7  O   UNL     1       6.092   5.209  19.887  0.00  0.00    +0.000 OA
ATOM      8  N   UNL     1       6.739   5.514  17.709  0.00  0.00    +0.000 N 
ATOM      9  C   UNL     1       6.549   5.137  16.347  0.00  0.00    +0.000 A 
ATOM     10  C   UNL     1       7.557   5.271  15.382  0.00  0.00    +0.000 A 
ATOM     11  C   UNL     1       7.417   4.705  14.102  0.00  0.00    +0.000 A 
ENDROOT
BRANCH   1  13
ATOM     12  C   UNL     1       4.593   3.543  12.124  0.00  0.00    +0.000 C 
ATOM     13  O   UNL     1       5.943   3.449  12.569  0.00  0.00    +0.000 OA
ENDBRANCH   1  13
BRANCH  11  14
ATOM     14  O   UNL     1       8.393   4.832  13.151  0.00  0.00    +0.000 OA
ATOM     15  C   UNL     1       8.587   6.146  12.630  0.00  0.00    +0.000 C 
ENDBRANCH  11  14
BRANCH   5  16
ATOM     16  C   UNL     1       3.420   4.632  19.330  0.00  0.00    +0.000 C 
BRANCH  16  17
ATOM     17  N   UNL     1       2.187   5.310  18.939  0.00  0.00    +0.000 N 
ATOM     18  H   UNL     1       1.811   5.016  18.039  0.00  0.00    +0.000 HD
BRANCH  17  19
ATOM     19  C   UNL     1       2.048   6.688  19.134  0.00  0.00    +0.000 A 
ATOM     20  C   UNL     1       1.695   7.276  20.354  0.00  0.00    +0.000 A 
ATOM     21  C   UNL     1       1.389   8.641  20.448  0.00  0.00    +0.000 A 
ATOM     22  C   UNL     1       1.402   9.451  19.311  0.00  0.00    +0.000 A 
ATOM     23  C   UNL     1       0.939  10.877  19.370  0.00  0.00    +0.000 C 
ATOM     24  C   UNL     1       1.803   8.891  18.096  0.00  0.00    +0.000 A 
ATOM     25  C   UNL     1       2.122   7.527  18.015  0.00  0.00    +0.000 A 
ENDBRANCH  17  19
ENDBRANCH  16  17
ENDBRANCH   5  16
BRANCH   8  26
ATOM     26  C   UNL     1       7.975   6.171  18.136  0.00  0.00    +0.000 C 
BRANCH  26  27
ATOM     27  C   UNL     1       7.947   7.693  18.054  0.00  0.00    +0.000 C 
ATOM     28  O   UNL     1       7.151   8.246  17.296  0.00  0.00    +0.000 OA
ATOM     29  N   UNL     1       8.829   8.346  18.905  0.00  0.00    +0.000 N 
ATOM     30  H   UNL     1       9.633   7.805  19.209  0.00  0.00    +0.000 HD
BRANCH  29  31
ATOM     31  C   UNL     1       8.947   9.746  18.880  0.00  0.00    +0.000 A 
ATOM     32  C   UNL     1       9.361  10.448  20.012  0.00  0.00    +0.000 A 
ATOM     33  C   UNL     1       9.332  11.840  20.025  0.00  0.00    +0.000 A 
ATOM     34  C   UNL     1       8.866  12.554  18.914  0.00  0.00    +0.000 A 
ATOM     35  C   UNL     1       8.510  11.840  17.755  0.00  0.00    +0.000 A 
ATOM     36  C   UNL     1       8.583  10.440  17.728  0.00  0.00    +0.000 A 
BRANCH  34  37
ATOM     37  C   UNL     1       8.720  14.061  19.014  0.00  0.00    +0.000 C 
ATOM     38  C   UNL     1       7.867  14.635  17.884  0.00  0.00    +0.000 C 
ATOM     39  C   UNL     1       8.177  14.483  20.383  0.00  0.00    +0.000 C 
ENDBRANCH  34  37
ENDBRANCH  29  31
ENDBRANCH  26  27
ENDBRANCH   8  26
TORSDOF 9
ENDMDL
MODEL 7
REMARK VINA RESULT:      -7.4      1.544      1.921
REMARK  Name = 
REMARK  14 active torsions:
REMARK  status: ('A' for Active; 'I' for Inactive)
REMARK    1  A    between atoms: C_1  and  O_2
REMARK    2  A    between atoms: O_2  and  C_3
REMARK    3  A    between atoms: C_7  and  C_8
REMARK    4  A    between atoms: C_8  and  N_9
REMARK    5  A    between atoms: N_9  and  C_10
REMARK    6  A    between atoms: C_13  and  C_14
REMARK    7  A    between atoms: N_19  and  C_20
REMARK    8  A    between atoms: C_20  and  C_21
REMARK    9  A    between atoms: N_23  and  C_24
REMARK   10  A    between atoms: C_27  and  C_28
REMARK   11  A    between atoms: C_28  and  C_29
REMARK   12  A    between atoms: C_28  and  C_30
REMARK   13  A    between atoms: C_35  and  O_36
REMARK   14  A    between atoms: O_36  and  C_37
REMARK                            x       y       z     vdW  Elec       q    Type
REMARK                         _______ _______ _______ _____ _____    ______ ____
ROOT
ATOM      1  C   UNL     1      -3.876  11.148  17.819  0.00  0.00    +0.000 A 
ATOM      2  C   UNL     1      -3.638  12.063  18.851  0.00  0.00    +0.000 A 
ATOM      3  C   UNL     1      -2.361  12.192  19.415  0.00  0.00    +0.000 A 
ATOM      4  C   UNL     1      -2.128  13.117  20.524  0.00  0.00    +0.000 A 
ATOM      5  C   UNL     1      -0.967  13.095  21.206  0.00  0.00    +0.000 A 
ATOM      6  C   UNL     1       0.077  12.110  20.827  0.00  0.00    +0.000 A 
ATOM      7  O   UNL     1       1.034  11.905  21.576  0.00  0.00    +0.000 OA
ATOM      8  N   UNL     1      -0.051  11.462  19.606  0.00  0.00    +0.000 N 
ATOM      9  C   UNL     1      -1.299  11.423  18.918  0.00  0.00    +0.000 A 
ATOM     10  C   UNL     1      -1.519  10.599  17.806  0.00  0.00    +0.000 A 
ATOM     11  C   UNL     1      -2.809  10.424  17.274  0.00  0.00    +0.000 A 
ENDROOT
BRANCH   1  13
ATOM     12  C   UNL     1      -5.922  12.288  17.469  0.00  0.00    +0.000 C 
ATOM     13  O   UNL     1      -5.190  11.068  17.425  0.00  0.00    +0.000 OA
ENDBRANCH   1  13
BRANCH  11  14
ATOM     14  O   UNL     1      -3.035   9.624  16.187  0.00  0.00    +0.000 OA
ATOM     15  C   UNL     1      -3.016  10.278  14.919  0.00  0.00    +0.000 C 
ENDBRANCH  11  14
BRANCH   5  16
ATOM     16  C   UNL     1      -0.681  13.939  22.415  0.00  0.00    +0.000 C 
BRANCH  16  17
ATOM     17  N   UNL     1      -1.145  15.306  22.195  0.00  0.00    +0.000 N 
ATOM     18  H   UNL     1      -0.434  16.021  22.337  0.00  0.00    +0.000 HD
BRANCH  17  19
ATOM     19  C   UNL     1      -2.394  15.713  22.674  0.00  0.00    +0.000 A 
ATOM     20  C   UNL     1      -2.898  15.377  23.936  0.00  0.00    +0.000 A 
ATOM     21  C   UNL     1      -4.225  15.656  24.293  0.00  0.00    +0.000 A 
ATOM     22  C   UNL     1      -5.094  16.255  23.379  0.00  0.00    +0.000 A 
ATOM     23  C   UNL     1      -6.550  16.428  23.695  0.00  0.00    +0.000 C 
ATOM     24  C   UNL     1      -4.592  16.645  22.135  0.00  0.00    +0.000 A 
ATOM     25  C   UNL     1      -3.258  16.376  21.793  0.00  0.00    +0.000 A 
ENDBRANCH  17  19
ENDBRANCH  16  17
ENDBRANCH   5  16
BRANCH   8  26
ATOM     26  C   UNL     1       1.103  10.716  19.103  0.00  0.00    +0.000 C 
BRANCH  26  27
ATOM     27  C   UNL     1       1.124   9.241  19.487  0.00  0.00    +0.000 C 
ATOM     28  O   UNL     1       0.347   8.826  20.345  0.00  0.00    +0.000 OA
ATOM     29  N   UNL     1       2.026   8.460  18.778  0.00  0.00    +0.000 N 
ATOM     30  H   UNL     1       2.812   8.954  18.367  0.00  0.00    +0.000 HD
BRANCH  29  31
ATOM     31  C   UNL     1       2.190   7.097  19.081  0.00  0.00    +0.000 A 
ATOM     32  C   UNL     1       2.316   6.149  18.066  0.00  0.00    +0.000 A 
ATOM     33  C   UNL     1       2.327   4.790  18.370  0.00  0.00    +0.000 A 
ATOM     34  C   UNL     1       2.189   4.356  19.695  0.00  0.00    +0.000 A 
ATOM     35  C   UNL     1       2.124   5.319  20.718  0.00  0.00    +0.000 A 
ATOM     36  C   UNL     1       2.159   6.687  20.413  0.00  0.00    +0.000 A 
BRANCH  34  37
ATOM     37  C   UNL     1       2.068   2.869  19.973  0.00  0.00    +0.000 C 
ATOM     38  C   UNL     1       1.520   2.586  21.371  0.00  0.00    +0.000 C 
ATOM     39  C   UNL     1       1.231   2.162  18.901  0.00  0.00    +0.000 C 
ENDBRANCH  34  37
ENDBRANCH  29  31
ENDBRANCH  26  27
ENDBRANCH   8  26
TORSDOF 9
ENDMDL
MODEL 8
REMARK VINA RESULT:      -7.4      3.742      8.395
REMARK  Name = 
REMARK  14 active torsions:
REMARK  status: ('A' for Active; 'I' for Inactive)
REMARK    1  A    between atoms: C_1  and  O_2
REMARK    2  A    between atoms: O_2  and  C_3
REMARK    3  A    between atoms: C_7  and  C_8
REMARK    4  A    between atoms: C_8  and  N_9
REMARK    5  A    between atoms: N_9  and  C_10
REMARK    6  A    between atoms: C_13  and  C_14
REMARK    7  A    between atoms: N_19  and  C_20
REMARK    8  A    between atoms: C_20  and  C_21
REMARK    9  A    between atoms: N_23  and  C_24
REMARK   10  A    between atoms: C_27  and  C_28
REMARK   11  A    between atoms: C_28  and  C_29
REMARK   12  A    between atoms: C_28  and  C_30
REMARK   13  A    between atoms: C_35  and  O_36
REMARK   14  A    between atoms: O_36  and  C_37
REMARK                            x       y       z     vdW  Elec       q    Type
REMARK                         _______ _______ _______ _____ _____    ______ ____
ROOT
ATOM      1  C   UNL     1      -1.849  14.181  23.210  0.00  0.00    +0.000 A 
ATOM      2  C   UNL     1      -1.499  12.834  23.360  0.00  0.00    +0.000 A 
ATOM      3  C   UNL     1      -0.861  12.138  22.324  0.00  0.00    +0.000 A 
ATOM      4  C   UNL     1      -0.539  10.719  22.469  0.00  0.00    +0.000 A 
ATOM      5  C   UNL     1      -0.123   9.995  21.412  0.00  0.00    +0.000 A 
ATOM      6  C   UNL     1      -0.002  10.653  20.087  0.00  0.00    +0.000 A 
ATOM      7  O   UNL     1       0.139   9.973  19.069  0.00  0.00    +0.000 OA
ATOM      8  N   UNL     1      -0.026  12.041  20.044  0.00  0.00    +0.000 N 
ATOM      9  C   UNL     1      -0.535  12.805  21.135  0.00  0.00    +0.000 A 
ATOM     10  C   UNL     1      -0.779  14.182  21.039  0.00  0.00    +0.000 A 
ATOM     11  C   UNL     1      -1.469  14.870  22.052  0.00  0.00    +0.000 A 
ENDROOT
BRANCH   1  13
ATOM     12  C   UNL     1      -1.752  15.248  25.321  0.00  0.00    +0.000 C 
ATOM     13  O   UNL     1      -2.546  14.707  24.270  0.00  0.00    +0.000 OA
ENDBRANCH   1  13
BRANCH  11  14
ATOM     14  O   UNL     1      -1.711  16.215  21.971  0.00  0.00    +0.000 OA
ATOM     15  C   UNL     1      -2.474  16.642  20.843  0.00  0.00    +0.000 C 
ENDBRANCH  11  14
BRANCH   5  16
ATOM     16  C   UNL     1       0.136   8.516  21.450  0.00  0.00    +0.000 C 
BRANCH  16  17
ATOM     17  N   UNL     1       1.546   8.246  21.184  0.00  0.00    +0.000 N 
ATOM     18  H   UNL     1       2.116   9.078  21.044  0.00  0.00    +0.000 HD
BRANCH  17  19
ATOM     19  C   UNL     1       1.914   7.213  20.317  0.00  0.00    +0.000 A 
ATOM     20  C   UNL     1       2.375   7.411  19.010  0.00  0.00    +0.000 A 
ATOM     21  C   UNL     1       2.554   6.338  18.125  0.00  0.00    +0.000 A 
ATOM     22  C   UNL     1       2.247   5.035  18.519  0.00  0.00    +0.000 A 
ATOM     23  C   UNL     1       2.296   3.898  17.542  0.00  0.00    +0.000 C 
ATOM     24  C   UNL     1       1.837   4.814  19.836  0.00  0.00    +0.000 A 
ATOM     25  C   UNL     1       1.675   5.892  20.719  0.00  0.00    +0.000 A 
ENDBRANCH  17  19
ENDBRANCH  16  17
ENDBRANCH   5  16
BRANCH   8  26
ATOM     26  C   UNL     1       0.375  12.694  18.797  0.00  0.00    +0.000 C 
BRANCH  26  27
ATOM     27  C   UNL     1       1.865  12.994  18.688  0.00  0.00    +0.000 C 
ATOM     28  O   UNL     1       2.627  12.136  18.245  0.00  0.00    +0.000 OA
ATOM     29  N   UNL     1       2.240  14.274  19.075  0.00  0.00    +0.000 N 
ATOM     30  H   UNL     1       1.608  14.745  19.716  0.00  0.00    +0.000 HD
BRANCH  29  31
ATOM     31  C   UNL     1       3.592  14.655  19.084  0.00  0.00    +0.000 A 
ATOM     32  C   UNL     1       4.305  14.785  17.892  0.00  0.00    +0.000 A 
ATOM     33  C   UNL     1       5.679  15.016  17.917  0.00  0.00    +0.000 A 
ATOM     34  C   UNL     1       6.366  15.098  19.134  0.00  0.00    +0.000 A 
ATOM     35  C   UNL     1       5.629  15.028  20.331  0.00  0.00    +0.000 A 
ATOM     36  C   UNL     1       4.240  14.841  20.304  0.00  0.00    +0.000 A 
BRANCH  34  37
ATOM     37  C   UNL     1       7.879  15.214  19.120  0.00  0.00    +0.000 C 
ATOM     38  C   UNL     1       8.489  14.989  20.502  0.00  0.00    +0.000 C 
ATOM     39  C   UNL     1       8.504  14.274  18.083  0.00  0.00    +0.000 C 
ENDBRANCH  34  37
ENDBRANCH  29  31
ENDBRANCH  26  27
ENDBRANCH   8  26
TORSDOF 9
ENDMDL
MODEL 9
REMARK VINA RESULT:      -7.2      3.517      8.501
REMARK  Name = 
REMARK  14 active torsions:
REMARK  status: ('A' for Active; 'I' for Inactive)
REMARK    1  A    between atoms: C_1  and  O_2
REMARK    2  A    between atoms: O_2  and  C_3
REMARK    3  A    between atoms: C_7  and  C_8
REMARK    4  A    between atoms: C_8  and  N_9
REMARK    5  A    between atoms: N_9  and  C_10
REMARK    6  A    between atoms: C_13  and  C_14
REMARK    7  A    between atoms: N_19  and  C_20
REMARK    8  A    between atoms: C_20  and  C_21
REMARK    9  A    between atoms: N_23  and  C_24
REMARK   10  A    between atoms: C_27  and  C_28
REMARK   11  A    between atoms: C_28  and  C_29
REMARK   12  A    between atoms: C_28  and  C_30
REMARK   13  A    between atoms: C_35  and  O_36
REMARK   14  A    between atoms: O_36  and  C_37
REMARK                            x       y       z     vdW  Elec       q    Type
REMARK                         _______ _______ _______ _____ _____    ______ ____
ROOT
ATOM      1  C   UNL     1      -2.615  13.251  23.273  0.00  0.00    +0.000 A 
ATOM      2  C   UNL     1      -1.971  12.015  23.398  0.00  0.00    +0.000 A 
ATOM      3  C   UNL     1      -1.234  11.479  22.333  0.00  0.00    +0.000 A 
ATOM      4  C   UNL     1      -0.601  10.166  22.454  0.00  0.00    +0.000 A 
ATOM      5  C   UNL     1      -0.074   9.554  21.375  0.00  0.00    +0.000 A 
ATOM      6  C   UNL     1      -0.152  10.224  20.053  0.00  0.00    +0.000 A 
ATOM      7  O   UNL     1       0.098   9.592  19.024  0.00  0.00    +0.000 OA
ATOM      8  N   UNL     1      -0.484  11.571  20.024  0.00  0.00    +0.000 N 
ATOM      9  C   UNL     1      -1.108  12.203  21.139  0.00  0.00    +0.000 A 
ATOM     10  C   UNL     1      -1.654  13.492  21.065  0.00  0.00    +0.000 A 
ATOM     11  C   UNL     1      -2.441  14.009  22.109  0.00  0.00    +0.000 A 
ENDROOT
BRANCH   1  13
ATOM     12  C   UNL     1      -4.693  13.081  24.396  0.00  0.00    +0.000 C 
ATOM     13  O   UNL     1      -3.371  13.609  24.363  0.00  0.00    +0.000 OA
ENDBRANCH   1  13
BRANCH  11  14
ATOM     14  O   UNL     1      -2.977  15.267  22.049  0.00  0.00    +0.000 OA
ATOM     15  C   UNL     1      -2.117  16.329  22.458  0.00  0.00    +0.000 C 
ENDBRANCH  11  14
BRANCH   5  16
ATOM     16  C   UNL     1       0.507   8.169  21.390  0.00  0.00    +0.000 C 
BRANCH  16  17
ATOM     17  N   UNL     1       1.803   8.160  20.718  0.00  0.00    +0.000 N 
ATOM     18  H   UNL     1       2.053   9.041  20.273  0.00  0.00    +0.000 HD
BRANCH  17  19
ATOM     19  C   UNL     1       2.190   7.061  19.945  0.00  0.00    +0.000 A 
ATOM     20  C   UNL     1       2.731   7.157  18.658  0.00  0.00    +0.000 A 
ATOM     21  C   UNL     1       2.929   6.022  17.859  0.00  0.00    +0.000 A 
ATOM     22  C   UNL     1       2.560   4.757  18.321  0.00  0.00    +0.000 A 
ATOM     23  C   UNL     1       2.631   3.555  17.427  0.00  0.00    +0.000 C 
ATOM     24  C   UNL     1       2.068   4.637  19.623  0.00  0.00    +0.000 A 
ATOM     25  C   UNL     1       1.888   5.778  20.421  0.00  0.00    +0.000 A 
ENDBRANCH  17  19
ENDBRANCH  16  17
ENDBRANCH   5  16
BRANCH   8  26
ATOM     26  C   UNL     1      -0.284  12.299  18.769  0.00  0.00    +0.000 C 
BRANCH  26  27
ATOM     27  C   UNL     1       0.763  13.403  18.835  0.00  0.00    +0.000 C 
ATOM     28  O   UNL     1       0.424  14.574  18.665  0.00  0.00    +0.000 OA
ATOM     29  N   UNL     1       2.052  12.978  19.131  0.00  0.00    +0.000 N 
ATOM     30  H   UNL     1       2.258  12.008  18.915  0.00  0.00    +0.000 HD
BRANCH  29  31
ATOM     31  C   UNL     1       3.121  13.889  19.156  0.00  0.00    +0.000 A 
ATOM     32  C   UNL     1       3.785  14.246  17.982  0.00  0.00    +0.000 A 
ATOM     33  C   UNL     1       4.935  15.030  18.034  0.00  0.00    +0.000 A 
ATOM     34  C   UNL     1       5.453  15.452  19.265  0.00  0.00    +0.000 A 
ATOM     35  C   UNL     1       4.743  15.141  20.439  0.00  0.00    +0.000 A 
ATOM     36  C   UNL     1       3.561  14.390  20.381  0.00  0.00    +0.000 A 
BRANCH  34  37
ATOM     37  C   UNL     1       6.780  16.188  19.291  0.00  0.00    +0.000 C 
ATOM     38  C   UNL     1       7.442  16.137  20.667  0.00  0.00    +0.000 C 
ATOM     39  C   UNL     1       7.730  15.674  18.203  0.00  0.00    +0.000 C 
ENDBRANCH  34  37
ENDBRANCH  29  31
ENDBRANCH  26  27
ENDBRANCH   8  26
TORSDOF 9
ENDMDL
