MODEL 1
REMARK VINA RESULT:      -8.1      0.000      0.000
REMARK  Name = 
REMARK  10 active torsions:
REMARK  status: ('A' for Active; 'I' for Inactive)
REMARK    1  A    between atoms: C_1  and  O_2
REMARK    2  A    between atoms: O_2  and  C_3
REMARK    3  A    between atoms: C_8  and  N_9
REMARK    4  A    between atoms: N_12  and  C_13
REMARK    5  A    between atoms: C_13  and  C_14
REMARK    6  A    between atoms: C_19  and  N_20
REMARK    7  A    between atoms: N_20  and  C_21
REMARK    8  A    between atoms: N_20  and  C_22
REMARK    9  A    between atoms: CA_24  and  C_25
REMARK   10  A    between atoms: C_25  and  O_26
REMARK                            x       y       z     vdW  Elec       q    Type
REMARK                         _______ _______ _______ _____ _____    ______ ____
ROOT
ATOM      1  N   UNL     1       3.193   6.278  18.677  0.00  0.00    +0.000 N 
ATOM      2  C   UNL     1       2.687   5.108  18.192  0.00  0.00    +0.000 C 
ATOM      3  O   UNL     1       1.518   4.853  17.922  0.00  0.00    +0.000 OA
ATOM      4  N   UNL     1       3.611   4.133  17.959  0.00  0.00    +0.000 N 
ATOM      5  H   UNL     1       4.181   6.430  18.587  0.00  0.00    +0.000 HD
ATOM      6  H   UNL     1       3.210   3.322  17.510  0.00  0.00    +0.000 HD
ENDROOT
BRANCH   1  12
ATOM      7  C   UNL     1      -0.073  10.568  19.670  0.00  0.00    +0.000 A 
ATOM      8  N   UNL     1      -0.104  11.144  18.466  0.00  0.00    +0.000 NA
ATOM      9  N   UNL     1       0.724  10.380  17.740  0.00  0.00    +0.000 N 
ATOM     10  C   UNL     1       1.267   9.331  18.435  0.00  0.00    +0.000 A 
ATOM     11  C   UNL     1       2.107   8.295  18.045  0.00  0.00    +0.000 A 
ATOM     12  C   UNL     1       2.421   7.379  19.044  0.00  0.00    +0.000 A 
ATOM     13  N   UNL     1       2.022   7.510  20.317  0.00  0.00    +0.000 NA
ATOM     14  CA  UNL     1       1.209   8.537  20.711  0.00  0.00    +0.000 A 
ATOM     15  C   UNL     1       0.793   9.462  19.740  0.00  0.00    +0.000 A 
ATOM     16  H   UNL     1       0.865  10.607  16.763  0.00  0.00    +0.000 HD
BRANCH   7  18
ATOM     17  C   UNL     1      -0.771  12.462  20.799  0.00  0.00    +0.000 C 
ATOM     18  O   UNL     1      -0.837  11.044  20.676  0.00  0.00    +0.000 OA
ENDBRANCH   7  18
BRANCH  14  19
ATOM     19  C   UNL     1       0.829   8.553  22.168  0.00  0.00    +0.000 C 
BRANCH  19  20
ATOM     20  O   UNL     1       1.146   9.817  22.761  0.00  0.00    +0.000 OA
ATOM     21  H   UNL     1       2.082   9.998  22.510  0.00  0.00    +0.000 HD
ENDBRANCH  19  20
ENDBRANCH  14  19
ENDBRANCH   1  12
BRANCH   4  22
ATOM     22  C   UNL     1       5.048   4.185  18.131  0.00  0.00    +0.000 C 
BRANCH  22  23
ATOM     23  C   UNL     1       5.816   4.464  16.861  0.00  0.00    +0.000 A 
ATOM     24  C   UNL     1       5.479   3.775  15.675  0.00  0.00    +0.000 A 
ATOM     25  C   UNL     1       6.143   4.030  14.488  0.00  0.00    +0.000 A 
ATOM     26  C   UNL     1       7.164   4.948  14.525  0.00  0.00    +0.000 A 
ATOM     27  N   UNL     1       7.518   5.630  15.636  0.00  0.00    +0.000 NA
ATOM     28  C   UNL     1       6.853   5.421  16.802  0.00  0.00    +0.000 A 
BRANCH  28  29
ATOM     29  N   UNL     1       7.118   6.302  17.860  0.00  0.00    +0.000 N 
ATOM     30  C   UNL     1       7.514   7.654  17.439  0.00  0.00    +0.000 C 
ATOM     31  C   UNL     1       7.907   5.820  18.995  0.00  0.00    +0.000 C 
ENDBRANCH  28  29
ENDBRANCH  22  23
ENDBRANCH   4  22
TORSDOF 7
ENDMDL
MODEL 2
REMARK VINA RESULT:      -7.5      1.303      2.062
REMARK  Name = 
REMARK  10 active torsions:
REMARK  status: ('A' for Active; 'I' for Inactive)
REMARK    1  A    between atoms: C_1  and  O_2
REMARK    2  A    between atoms: O_2  and  C_3
REMARK    3  A    between atoms: C_8  and  N_9
REMARK    4  A    between atoms: N_12  and  C_13
REMARK    5  A    between atoms: C_13  and  C_14
REMARK    6  A    between atoms: C_19  and  N_20
REMARK    7  A    between atoms: N_20  and  C_21
REMARK    8  A    between atoms: N_20  and  C_22
REMARK    9  A    between atoms: CA_24  and  C_25
REMARK   10  A    between atoms: C_25  and  O_26
REMARK                            x       y       z     vdW  Elec       q    Type
REMARK                         _______ _______ _______ _____ _____    ______ ____
ROOT
ATOM      1  N   UNL     1       3.189   6.117  18.780  0.00  0.00    +0.000 N 
ATOM      2  C   UNL     1       2.684   4.990  18.203  0.00  0.00    +0.000 C 
ATOM      3  O   UNL     1       1.516   4.758  17.910  0.00  0.00    +0.000 OA
ATOM      4  N   UNL     1       3.608   4.035  17.898  0.00  0.00    +0.000 N 
ATOM      5  H   UNL     1       4.178   6.275  18.705  0.00  0.00    +0.000 HD
ATOM      6  H   UNL     1       3.208   3.261  17.386  0.00  0.00    +0.000 HD
ENDROOT
BRANCH   1  12
ATOM      7  C   UNL     1       0.382  10.278  20.987  0.00  0.00    +0.000 A 
ATOM      8  N   UNL     1       0.168   9.811  22.220  0.00  0.00    +0.000 NA
ATOM      9  N   UNL     1       0.704   8.583  22.178  0.00  0.00    +0.000 N 
ATOM     10  C   UNL     1       1.265   8.259  20.971  0.00  0.00    +0.000 A 
ATOM     11  C   UNL     1       1.959   7.136  20.540  0.00  0.00    +0.000 A 
ATOM     12  C   UNL     1       2.417   7.188  19.228  0.00  0.00    +0.000 A 
ATOM     13  N   UNL     1       2.149   8.202  18.393  0.00  0.00    +0.000 NA
ATOM     14  CA  UNL     1       1.452   9.304  18.805  0.00  0.00    +0.000 A 
ATOM     15  C   UNL     1       1.019   9.353  20.140  0.00  0.00    +0.000 A 
ATOM     16  H   UNL     1       0.681   8.013  23.016  0.00  0.00    +0.000 HD
BRANCH   7  18
ATOM     17  C   UNL     1      -0.502  12.268  21.765  0.00  0.00    +0.000 C 
ATOM     18  O   UNL     1       0.012  11.533  20.658  0.00  0.00    +0.000 OA
ENDBRANCH   7  18
BRANCH  14  19
ATOM     19  C   UNL     1       1.236  10.373  17.766  0.00  0.00    +0.000 C 
BRANCH  19  20
ATOM     20  O   UNL     1       1.888  11.590  18.146  0.00  0.00    +0.000 OA
ATOM     21  H   UNL     1       2.164  11.458  19.084  0.00  0.00    +0.000 HD
ENDBRANCH  19  20
ENDBRANCH  14  19
ENDBRANCH   1  12
BRANCH   4  22
ATOM     22  C   UNL     1       5.045   4.071  18.080  0.00  0.00    +0.000 C 
BRANCH  22  23
ATOM     23  C   UNL     1       5.821   4.392  16.824  0.00  0.00    +0.000 A 
ATOM     24  C   UNL     1       5.511   3.720  15.621  0.00  0.00    +0.000 A 
ATOM     25  C   UNL     1       6.183   4.012  14.447  0.00  0.00    +0.000 A 
ATOM     26  C   UNL     1       7.184   4.949  14.514  0.00  0.00    +0.000 A 
ATOM     27  N   UNL     1       7.512   5.616  15.643  0.00  0.00    +0.000 NA
ATOM     28  C   UNL     1       6.838   5.370  16.796  0.00  0.00    +0.000 A 
BRANCH  28  29
ATOM     29  N   UNL     1       7.073   6.235  17.875  0.00  0.00    +0.000 N 
ATOM     30  C   UNL     1       7.445   7.603  17.485  0.00  0.00    +0.000 C 
ATOM     31  C   UNL     1       7.861   5.747  19.008  0.00  0.00    +0.000 C 
ENDBRANCH  28  29
ENDBRANCH  22  23
ENDBRANCH   4  22
TORSDOF 7
ENDMDL
MODEL 3
REMARK VINA RESULT:      -7.5      2.931      8.476
REMARK  Name = 
REMARK  10 active torsions:
REMARK  status: ('A' for Active; 'I' for Inactive)
REMARK    1  A    between atoms: C_1  and  O_2
REMARK    2  A    between atoms: O_2  and  C_3
REMARK    3  A    between atoms: C_8  and  N_9
REMARK    4  A    between atoms: N_12  and  C_13
REMARK    5  A    between atoms: C_13  and  C_14
REMARK    6  A    between atoms: C_19  and  N_20
REMARK    7  A    between atoms: N_20  and  C_21
REMARK    8  A    between atoms: N_20  and  C_22
REMARK    9  A    between atoms: CA_24  and  C_25
REMARK   10  A    between atoms: C_25  and  O_26
REMARK                            x       y       z     vdW  Elec       q    Type
REMARK                         _______ _______ _______ _____ _____    ______ ____
ROOT
ATOM      1  N   UNL     1       1.934   8.080  19.151  0.00  0.00    +0.000 N 
ATOM      2  C   UNL     1       2.156   8.783  18.003  0.00  0.00    +0.000 C 
ATOM      3  O   UNL     1       2.748   8.406  16.998  0.00  0.00    +0.000 OA
ATOM      4  N   UNL     1       1.621  10.037  17.983  0.00  0.00    +0.000 N 
ATOM      5  H   UNL     1       1.210   8.408  19.765  0.00  0.00    +0.000 HD
ATOM      6  H   UNL     1       1.723  10.484  17.082  0.00  0.00    +0.000 HD
ENDROOT
BRANCH   1  12
ATOM      7  C   UNL     1       3.464   2.934  20.261  0.00  0.00    +0.000 A 
ATOM      8  N   UNL     1       2.663   2.650  21.291  0.00  0.00    +0.000 NA
ATOM      9  N   UNL     1       2.004   3.800  21.491  0.00  0.00    +0.000 N 
ATOM     10  C   UNL     1       2.344   4.798  20.616  0.00  0.00    +0.000 A 
ATOM     11  C   UNL     1       1.864   6.090  20.449  0.00  0.00    +0.000 A 
ATOM     12  C   UNL     1       2.443   6.809  19.407  0.00  0.00    +0.000 A 
ATOM     13  N   UNL     1       3.451   6.339  18.658  0.00  0.00    +0.000 NA
ATOM     14  CA  UNL     1       3.940   5.073  18.829  0.00  0.00    +0.000 A 
ATOM     15  C   UNL     1       3.355   4.264  19.816  0.00  0.00    +0.000 A 
ATOM     16  H   UNL     1       1.310   3.842  22.228  0.00  0.00    +0.000 HD
BRANCH   7  18
ATOM     17  C   UNL     1       3.689   1.337  18.603  0.00  0.00    +0.000 C 
ATOM     18  O   UNL     1       4.264   1.984  19.735  0.00  0.00    +0.000 OA
ENDBRANCH   7  18
BRANCH  14  19
ATOM     19  C   UNL     1       5.063   4.672  17.909  0.00  0.00    +0.000 C 
BRANCH  19  20
ATOM     20  O   UNL     1       6.123   4.050  18.643  0.00  0.00    +0.000 OA
ATOM     21  H   UNL     1       6.818   3.842  17.975  0.00  0.00    +0.000 HD
ENDBRANCH  19  20
ENDBRANCH  14  19
ENDBRANCH   1  12
BRANCH   4  22
ATOM     22  C   UNL     1       0.833  10.705  18.998  0.00  0.00    +0.000 C 
BRANCH  22  23
ATOM     23  C   UNL     1      -0.630  10.852  18.651  0.00  0.00    +0.000 A 
ATOM     24  C   UNL     1      -1.205  10.004  17.678  0.00  0.00    +0.000 A 
ATOM     25  C   UNL     1      -2.549  10.094  17.360  0.00  0.00    +0.000 A 
ATOM     26  C   UNL     1      -3.282  11.063  17.999  0.00  0.00    +0.000 A 
ATOM     27  N   UNL     1      -2.772  11.892  18.936  0.00  0.00    +0.000 NA
ATOM     28  C   UNL     1      -1.465  11.795  19.289  0.00  0.00    +0.000 A 
BRANCH  28  29
ATOM     29  N   UNL     1      -1.044  12.529  20.408  0.00  0.00    +0.000 N 
ATOM     30  C   UNL     1      -1.466  11.962  21.698  0.00  0.00    +0.000 C 
ATOM     31  C   UNL     1      -1.162  13.987  20.377  0.00  0.00    +0.000 C 
ENDBRANCH  28  29
ENDBRANCH  22  23
ENDBRANCH   4  22
TORSDOF 7
ENDMDL
MODEL 4
REMARK VINA RESULT:      -7.3      1.832      2.708
REMARK  Name = 
REMARK  10 active torsions:
REMARK  status: ('A' for Active; 'I' for Inactive)
REMARK    1  A    between atoms: C_1  and  O_2
REMARK    2  A    between atoms: O_2  and  C_3
REMARK    3  A    between atoms: C_8  and  N_9
REMARK    4  A    between atoms: N_12  and  C_13
REMARK    5  A    between atoms: C_13  and  C_14
REMARK    6  A    between atoms: C_19  and  N_20
REMARK    7  A    between atoms: N_20  and  C_21
REMARK    8  A    between atoms: N_20  and  C_22
REMARK    9  A    between atoms: CA_24  and  C_25
REMARK   10  A    between atoms: C_25  and  O_26
REMARK                            x       y       z     vdW  Elec       q    Type
REMARK                         _______ _______ _______ _____ _____    ______ ____
ROOT
ATOM      1  N   UNL     1       2.382   8.053  18.817  0.00  0.00    +0.000 N 
ATOM      2  C   UNL     1       2.611   6.718  18.975  0.00  0.00    +0.000 C 
ATOM      3  O   UNL     1       2.052   5.948  19.748  0.00  0.00    +0.000 OA
ATOM      4  N   UNL     1       3.556   6.194  18.143  0.00  0.00    +0.000 N 
ATOM      5  H   UNL     1       2.709   8.485  17.972  0.00  0.00    +0.000 HD
ATOM      6  H   UNL     1       3.625   5.189  18.223  0.00  0.00    +0.000 HD
ENDROOT
BRANCH   1  12
ATOM      7  C   UNL     1      -0.707  10.983  22.273  0.00  0.00    +0.000 A 
ATOM      8  N   UNL     1      -0.428  10.380  23.432  0.00  0.00    +0.000 NA
ATOM      9  N   UNL     1       0.388   9.381  23.068  0.00  0.00    +0.000 N 
ATOM     10  C   UNL     1       0.649   9.336  21.723  0.00  0.00    +0.000 A 
ATOM     11  C   UNL     1       1.472   8.513  20.965  0.00  0.00    +0.000 A 
ATOM     12  C   UNL     1       1.507   8.800  19.604  0.00  0.00    +0.000 A 
ATOM     13  N   UNL     1       0.748   9.745  19.030  0.00  0.00    +0.000 NA
ATOM     14  CA  UNL     1      -0.076  10.548  19.770  0.00  0.00    +0.000 A 
ATOM     15  C   UNL     1      -0.110  10.362  21.161  0.00  0.00    +0.000 A 
ATOM     16  H   UNL     1       0.759   8.769  23.785  0.00  0.00    +0.000 HD
BRANCH   7  18
ATOM     17  C   UNL     1      -2.593  12.006  23.135  0.00  0.00    +0.000 C 
ATOM     18  O   UNL     1      -1.482  12.086  22.245  0.00  0.00    +0.000 OA
ENDBRANCH   7  18
BRANCH  14  19
ATOM     19  C   UNL     1      -0.860  11.575  18.996  0.00  0.00    +0.000 C 
BRANCH  19  20
ATOM     20  O   UNL     1      -2.250  11.514  19.334  0.00  0.00    +0.000 OA
ATOM     21  H   UNL     1      -2.418  12.302  19.902  0.00  0.00    +0.000 HD
ENDBRANCH  19  20
ENDBRANCH  14  19
ENDBRANCH   1  12
BRANCH   4  22
ATOM     22  C   UNL     1       4.321   6.856  17.106  0.00  0.00    +0.000 C 
BRANCH  22  23
ATOM     23  C   UNL     1       5.351   5.976  16.437  0.00  0.00    +0.000 A 
ATOM     24  C   UNL     1       5.036   5.336  15.218  0.00  0.00    +0.000 A 
ATOM     25  C   UNL     1       5.968   4.548  14.565  0.00  0.00    +0.000 A 
ATOM     26  C   UNL     1       7.188   4.386  15.173  0.00  0.00    +0.000 A 
ATOM     27  N   UNL     1       7.530   4.980  16.337  0.00  0.00    +0.000 NA
ATOM     28  C   UNL     1       6.643   5.788  16.973  0.00  0.00    +0.000 A 
BRANCH  28  29
ATOM     29  N   UNL     1       7.121   6.541  18.055  0.00  0.00    +0.000 N 
ATOM     30  C   UNL     1       7.791   7.793  17.673  0.00  0.00    +0.000 C 
ATOM     31  C   UNL     1       7.814   5.849  19.142  0.00  0.00    +0.000 C 
ENDBRANCH  28  29
ENDBRANCH  22  23
ENDBRANCH   4  22
TORSDOF 7
ENDMDL
MODEL 5
REMARK VINA RESULT:      -7.2      2.288      8.179
REMARK  Name = 
REMARK  10 active torsions:
REMARK  status: ('A' for Active; 'I' for Inactive)
REMARK    1  A    between atoms: C_1  and  O_2
REMARK    2  A    between atoms: O_2  and  C_3
REMARK    3  A    between atoms: C_8  and  N_9
REMARK    4  A    between atoms: N_12  and  C_13
REMARK    5  A    between atoms: C_13  and  C_14
REMARK    6  A    between atoms: C_19  and  N_20
REMARK    7  A    between atoms: N_20  and  C_21
REMARK    8  A    between atoms: N_20  and  C_22
REMARK    9  A    between atoms: CA_24  and  C_25
REMARK   10  A    between atoms: C_25  and  O_26
REMARK                            x       y       z     vdW  Elec       q    Type
REMARK                         _______ _______ _______ _____ _____    ______ ____
ROOT
ATOM      1  N   UNL     1       2.654   7.193  19.895  0.00  0.00    +0.000 N 
ATOM      2  C   UNL     1       1.616   6.681  20.616  0.00  0.00    +0.000 C 
ATOM      3  O   UNL     1       1.130   5.559  20.536  0.00  0.00    +0.000 OA
ATOM      4  N   UNL     1       1.093   7.525  21.551  0.00  0.00    +0.000 N 
ATOM      5  H   UNL     1       3.114   8.010  20.255  0.00  0.00    +0.000 HD
ATOM      6  H   UNL     1       0.395   7.076  22.127  0.00  0.00    +0.000 HD
ENDROOT
BRANCH   1  12
ATOM      7  C   UNL     1       5.473   4.969  15.751  0.00  0.00    +0.000 A 
ATOM      8  N   UNL     1       5.701   6.047  14.996  0.00  0.00    +0.000 NA
ATOM      9  N   UNL     1       5.060   7.023  15.654  0.00  0.00    +0.000 N 
ATOM     10  C   UNL     1       4.446   6.608  16.806  0.00  0.00    +0.000 A 
ATOM     11  C   UNL     1       3.744   7.300  17.785  0.00  0.00    +0.000 A 
ATOM     12  C   UNL     1       3.292   6.527  18.849  0.00  0.00    +0.000 A 
ATOM     13  N   UNL     1       3.439   5.196  18.909  0.00  0.00    +0.000 NA
ATOM     14  CA  UNL     1       4.115   4.506  17.940  0.00  0.00    +0.000 A 
ATOM     15  C   UNL     1       4.661   5.232  16.869  0.00  0.00    +0.000 A 
ATOM     16  H   UNL     1       5.094   7.965  15.282  0.00  0.00    +0.000 HD
BRANCH   7  18
ATOM     17  C   UNL     1       6.248   3.642  14.023  0.00  0.00    +0.000 C 
ATOM     18  O   UNL     1       6.012   3.777  15.422  0.00  0.00    +0.000 OA
ENDBRANCH   7  18
BRANCH  14  19
ATOM     19  C   UNL     1       4.215   3.017  18.142  0.00  0.00    +0.000 C 
BRANCH  19  20
ATOM     20  O   UNL     1       5.104   2.709  19.221  0.00  0.00    +0.000 OA
ATOM     21  H   UNL     1       5.591   3.546  19.407  0.00  0.00    +0.000 HD
ENDBRANCH  19  20
ENDBRANCH  14  19
ENDBRANCH   1  12
BRANCH   4  22
ATOM     22  C   UNL     1       1.508   8.870  21.893  0.00  0.00    +0.000 C 
BRANCH  22  23
ATOM     23  C   UNL     1       0.395   9.891  21.856  0.00  0.00    +0.000 A 
ATOM     24  C   UNL     1      -0.372  10.131  23.019  0.00  0.00    +0.000 A 
ATOM     25  C   UNL     1      -1.378  11.080  23.025  0.00  0.00    +0.000 A 
ATOM     26  C   UNL     1      -1.622  11.745  21.849  0.00  0.00    +0.000 A 
ATOM     27  N   UNL     1      -0.913  11.547  20.716  0.00  0.00    +0.000 NA
ATOM     28  C   UNL     1       0.104  10.647  20.700  0.00  0.00    +0.000 A 
BRANCH  28  29
ATOM     29  N   UNL     1       0.936  10.637  19.572  0.00  0.00    +0.000 N 
ATOM     30  C   UNL     1       1.538  11.940  19.251  0.00  0.00    +0.000 C 
ATOM     31  C   UNL     1       0.489   9.922  18.375  0.00  0.00    +0.000 C 
ENDBRANCH  28  29
ENDBRANCH  22  23
ENDBRANCH   4  22
TORSDOF 7
ENDMDL
MODEL 6
REMARK VINA RESULT:      -7.1      1.986      2.878
REMARK  Name = 
REMARK  10 active torsions:
REMARK  status: ('A' for Active; 'I' for Inactive)
REMARK    1  A    between atoms: C_1  and  O_2
REMARK    2  A    between atoms: O_2  and  C_3
REMARK    3  A    between atoms: C_8  and  N_9
REMARK    4  A    between atoms: N_12  and  C_13
REMARK    5  A    between atoms: C_13  and  C_14
REMARK    6  A    between atoms: C_19  and  N_20
REMARK    7  A    between atoms: N_20  and  C_21
REMARK    8  A    between atoms: N_20  and  C_22
REMARK    9  A    between atoms: CA_24  and  C_25
REMARK   10  A    between atoms: C_25  and  O_26
REMARK                            x       y       z     vdW  Elec       q    Type
REMARK                         _______ _______ _______ _____ _____    ______ ____
ROOT
ATOM      1  N   UNL     1       2.313   7.914  19.129  0.00  0.00    +0.000 N 
ATOM      2  C   UNL     1       2.721   8.221  17.864  0.00  0.00    +0.000 C 
ATOM      3  O   UNL     1       2.431   9.212  17.204  0.00  0.00    +0.000 OA
ATOM      4  N   UNL     1       3.575   7.320  17.301  0.00  0.00    +0.000 N 
ATOM      5  H   UNL     1       2.841   7.226  19.635  0.00  0.00    +0.000 HD
ATOM      6  H   UNL     1       3.929   7.632  16.408  0.00  0.00    +0.000 HD
ENDROOT
BRANCH   1  12
ATOM      7  C   UNL     1      -0.953  10.882  22.383  0.00  0.00    +0.000 A 
ATOM      8  N   UNL     1      -0.662  10.358  23.577  0.00  0.00    +0.000 NA
ATOM      9  N   UNL     1       0.203   9.379  23.277  0.00  0.00    +0.000 N 
ATOM     10  C   UNL     1       0.484   9.272  21.941  0.00  0.00    +0.000 A 
ATOM     11  C   UNL     1       1.354   8.448  21.238  0.00  0.00    +0.000 A 
ATOM     12  C   UNL     1       1.394   8.662  19.864  0.00  0.00    +0.000 A 
ATOM     13  N   UNL     1       0.600   9.538  19.230  0.00  0.00    +0.000 NA
ATOM     14  CA  UNL     1      -0.270  10.341  19.915  0.00  0.00    +0.000 A 
ATOM     15  C   UNL     1      -0.314  10.229  21.314  0.00  0.00    +0.000 A 
ATOM     16  H   UNL     1       0.592   8.826  24.032  0.00  0.00    +0.000 HD
BRANCH   7  18
ATOM     17  C   UNL     1      -1.097  13.190  22.417  0.00  0.00    +0.000 C 
ATOM     18  O   UNL     1      -1.778  11.945  22.286  0.00  0.00    +0.000 OA
ENDBRANCH   7  18
BRANCH  14  19
ATOM     19  C   UNL     1      -1.090  11.286  19.077  0.00  0.00    +0.000 C 
BRANCH  19  20
ATOM     20  O   UNL     1      -0.256  12.017  18.172  0.00  0.00    +0.000 OA
ATOM     21  H   UNL     1      -0.505  12.964  18.291  0.00  0.00    +0.000 HD
ENDBRANCH  19  20
ENDBRANCH  14  19
ENDBRANCH   1  12
BRANCH   4  22
ATOM     22  C   UNL     1       4.122   6.106  17.872  0.00  0.00    +0.000 C 
BRANCH  22  23
ATOM     23  C   UNL     1       5.151   5.420  17.004  0.00  0.00    +0.000 A 
ATOM     24  C   UNL     1       4.730   4.676  15.880  0.00  0.00    +0.000 A 
ATOM     25  C   UNL     1       5.650   4.061  15.048  0.00  0.00    +0.000 A 
ATOM     26  C   UNL     1       6.975   4.173  15.386  0.00  0.00    +0.000 A 
ATOM     27  N   UNL     1       7.420   4.876  16.451  0.00  0.00    +0.000 NA
ATOM     28  C   UNL     1       6.536   5.518  17.258  0.00  0.00    +0.000 A 
BRANCH  28  29
ATOM     29  N   UNL     1       7.060   6.400  18.214  0.00  0.00    +0.000 N 
ATOM     30  C   UNL     1       7.662   7.618  17.649  0.00  0.00    +0.000 C 
ATOM     31  C   UNL     1       7.848   5.852  19.318  0.00  0.00    +0.000 C 
ENDBRANCH  28  29
ENDBRANCH  22  23
ENDBRANCH   4  22
TORSDOF 7
ENDMDL
MODEL 7
REMARK VINA RESULT:      -7.1      1.895      2.771
REMARK  Name = 
REMARK  10 active torsions:
REMARK  status: ('A' for Active; 'I' for Inactive)
REMARK    1  A    between atoms: C_1  and  O_2
REMARK    2  A    between atoms: O_2  and  C_3
REMARK    3  A    between atoms: C_8  and  N_9
REMARK    4  A    between atoms: N_12  and  C_13
REMARK    5  A    between atoms: C_13  and  C_14
REMARK    6  A    between atoms: C_19  and  N_20
REMARK    7  A    between atoms: N_20  and  C_21
REMARK    8  A    between atoms: N_20  and  C_22
REMARK    9  A    between atoms: CA_24  and  C_25
REMARK   10  A    between atoms: C_25  and  O_26
REMARK                            x       y       z     vdW  Elec       q    Type
REMARK                         _______ _______ _______ _____ _____    ______ ____
ROOT
ATOM      1  N   UNL     1       2.434   7.152  20.224  0.00  0.00    +0.000 N 
ATOM      2  C   UNL     1       2.123   5.825  20.166  0.00  0.00    +0.000 C 
ATOM      3  O   UNL     1       1.023   5.306  20.320  0.00  0.00    +0.000 OA
ATOM      4  N   UNL     1       3.169   5.001  19.871  0.00  0.00    +0.000 N 
ATOM      5  H   UNL     1       3.300   7.446  19.810  0.00  0.00    +0.000 HD
ATOM      6  H   UNL     1       2.879   4.042  19.741  0.00  0.00    +0.000 HD
ENDROOT
BRANCH   1  12
ATOM      7  C   UNL     1      -0.876  11.128  22.038  0.00  0.00    +0.000 A 
ATOM      8  N   UNL     1      -1.044  10.755  23.309  0.00  0.00    +0.000 NA
ATOM      9  N   UNL     1      -0.363   9.603  23.382  0.00  0.00    +0.000 N 
ATOM     10  C   UNL     1       0.244   9.239  22.209  0.00  0.00    +0.000 A 
ATOM     11  C   UNL     1       1.073   8.173  21.884  0.00  0.00    +0.000 A 
ATOM     12  C   UNL     1       1.533   8.157  20.571  0.00  0.00    +0.000 A 
ATOM     13  N   UNL     1       1.153   9.049  19.646  0.00  0.00    +0.000 NA
ATOM     14  CA  UNL     1       0.324  10.092  19.955  0.00  0.00    +0.000 A 
ATOM     15  C   UNL     1      -0.125  10.212  21.280  0.00  0.00    +0.000 A 
ATOM     16  H   UNL     1      -0.325   9.115  24.269  0.00  0.00    +0.000 HD
BRANCH   7  18
ATOM     17  C   UNL     1      -1.358  13.325  22.574  0.00  0.00    +0.000 C 
ATOM     18  O   UNL     1      -1.393  12.292  21.593  0.00  0.00    +0.000 OA
ENDBRANCH   7  18
BRANCH  14  19
ATOM     19  C   UNL     1      -0.011  11.025  18.821  0.00  0.00    +0.000 C 
BRANCH  19  20
ATOM     20  O   UNL     1      -0.383  10.289  17.651  0.00  0.00    +0.000 OA
ATOM     21  H   UNL     1      -0.895   9.513  17.980  0.00  0.00    +0.000 HD
ENDBRANCH  19  20
ENDBRANCH  14  19
ENDBRANCH   1  12
BRANCH   4  22
ATOM     22  C   UNL     1       4.546   5.348  19.587  0.00  0.00    +0.000 C 
BRANCH  22  23
ATOM     23  C   UNL     1       5.020   4.936  18.213  0.00  0.00    +0.000 A 
ATOM     24  C   UNL     1       4.176   4.160  17.387  0.00  0.00    +0.000 A 
ATOM     25  C   UNL     1       4.568   3.792  16.112  0.00  0.00    +0.000 A 
ATOM     26  C   UNL     1       5.821   4.178  15.706  0.00  0.00    +0.000 A 
ATOM     27  N   UNL     1       6.659   4.920  16.463  0.00  0.00    +0.000 NA
ATOM     28  C   UNL     1       6.278   5.323  17.701  0.00  0.00    +0.000 A 
BRANCH  28  29
ATOM     29  N   UNL     1       7.092   6.261  18.352  0.00  0.00    +0.000 N 
ATOM     30  C   UNL     1       7.565   7.355  17.489  0.00  0.00    +0.000 C 
ATOM     31  C   UNL     1       8.134   5.778  19.259  0.00  0.00    +0.000 C 
ENDBRANCH  28  29
ENDBRANCH  22  23
ENDBRANCH   4  22
TORSDOF 7
ENDMDL
MODEL 8
REMARK VINA RESULT:      -7.1      2.715      8.534
REMARK  Name = 
REMARK  10 active torsions:
REMARK  status: ('A' for Active; 'I' for Inactive)
REMARK    1  A    between atoms: C_1  and  O_2
REMARK    2  A    between atoms: O_2  and  C_3
REMARK    3  A    between atoms: C_8  and  N_9
REMARK    4  A    between atoms: N_12  and  C_13
REMARK    5  A    between atoms: C_13  and  C_14
REMARK    6  A    between atoms: C_19  and  N_20
REMARK    7  A    between atoms: N_20  and  C_21
REMARK    8  A    between atoms: N_20  and  C_22
REMARK    9  A    between atoms: CA_24  and  C_25
REMARK   10  A    between atoms: C_25  and  O_26
REMARK                            x       y       z     vdW  Elec       q    Type
REMARK                         _______ _______ _______ _____ _____    ______ ____
ROOT
ATOM      1  N   UNL     1       1.745   8.182  19.727  0.00  0.00    +0.000 N 
ATOM      2  C   UNL     1       1.323   8.956  20.767  0.00  0.00    +0.000 C 
ATOM      3  O   UNL     1       1.378   8.697  21.964  0.00  0.00    +0.000 OA
ATOM      4  N   UNL     1       0.813  10.169  20.411  0.00  0.00    +0.000 N 
ATOM      5  H   UNL     1       1.891   8.631  18.841  0.00  0.00    +0.000 HD
ATOM      6  H   UNL     1       0.604  10.749  21.212  0.00  0.00    +0.000 HD
ENDROOT
BRANCH   1  12
ATOM      7  C   UNL     1       3.211   2.924  20.251  0.00  0.00    +0.000 A 
ATOM      8  N   UNL     1       2.269   2.483  21.090  0.00  0.00    +0.000 NA
ATOM      9  N   UNL     1       1.560   3.588  21.360  0.00  0.00    +0.000 N 
ATOM     10  C   UNL     1       2.006   4.710  20.713  0.00  0.00    +0.000 A 
ATOM     11  C   UNL     1       1.526   6.013  20.676  0.00  0.00    +0.000 A 
ATOM     12  C   UNL     1       2.240   6.885  19.860  0.00  0.00    +0.000 A 
ATOM     13  N   UNL     1       3.361   6.538  19.212  0.00  0.00    +0.000 NA
ATOM     14  CA  UNL     1       3.848   5.261  19.258  0.00  0.00    +0.000 A 
ATOM     15  C   UNL     1       3.139   4.307  20.006  0.00  0.00    +0.000 A 
ATOM     16  H   UNL     1       0.761   3.514  21.979  0.00  0.00    +0.000 HD
BRANCH   7  18
ATOM     17  C   UNL     1       3.662   1.502  18.485  0.00  0.00    +0.000 C 
ATOM     18  O   UNL     1       4.105   2.068  19.715  0.00  0.00    +0.000 OA
ENDBRANCH   7  18
BRANCH  14  19
ATOM     19  C   UNL     1       5.108   5.009  18.472  0.00  0.00    +0.000 C 
BRANCH  19  20
ATOM     20  O   UNL     1       6.182   4.633  19.340  0.00  0.00    +0.000 OA
ATOM     21  H   UNL     1       6.683   5.465  19.513  0.00  0.00    +0.000 HD
ENDBRANCH  19  20
ENDBRANCH  14  19
ENDBRANCH   1  12
BRANCH   4  22
ATOM     22  C   UNL     1       0.685  10.749  19.090  0.00  0.00    +0.000 C 
BRANCH  22  23
ATOM     23  C   UNL     1      -0.737  10.847  18.590  0.00  0.00    +0.000 A 
ATOM     24  C   UNL     1      -1.216   9.900  17.658  0.00  0.00    +0.000 A 
ATOM     25  C   UNL     1      -2.523   9.945  17.204  0.00  0.00    +0.000 A 
ATOM     26  C   UNL     1      -3.313  10.967  17.666  0.00  0.00    +0.000 A 
ATOM     27  N   UNL     1      -2.895  11.893  18.558  0.00  0.00    +0.000 NA
ATOM     28  C   UNL     1      -1.629  11.843  19.045  0.00  0.00    +0.000 A 
BRANCH  28  29
ATOM     29  N   UNL     1      -1.318  12.691  20.118  0.00  0.00    +0.000 N 
ATOM     30  C   UNL     1      -2.228  12.570  21.268  0.00  0.00    +0.000 C 
ATOM     31  C   UNL     1      -0.961  14.081  19.835  0.00  0.00    +0.000 C 
ENDBRANCH  28  29
ENDBRANCH  22  23
ENDBRANCH   4  22
TORSDOF 7
ENDMDL
MODEL 9
REMARK VINA RESULT:      -7.0      2.418      4.219
REMARK  Name = 
REMARK  10 active torsions:
REMARK  status: ('A' for Active; 'I' for Inactive)
REMARK    1  A    between atoms: C_1  and  O_2
REMARK    2  A    between atoms: O_2  and  C_3
REMARK    3  A    between atoms: C_8  and  N_9
REMARK    4  A    between atoms: N_12  and  C_13
REMARK    5  A    between atoms: C_13  and  C_14
REMARK    6  A    between atoms: C_19  and  N_20
REMARK    7  A    between atoms: N_20  and  C_21
REMARK    8  A    between atoms: N_20  and  C_22
REMARK    9  A    between atoms: CA_24  and  C_25
REMARK   10  A    between atoms: C_25  and  O_26
REMARK                            x       y       z     vdW  Elec       q    Type
REMARK                         _______ _______ _______ _____ _____    ______ ____
ROOT
ATOM      1  N   UNL     1       1.355   8.860  19.191  0.00  0.00    +0.000 N 
ATOM      2  C   UNL     1       2.120   9.160  18.103  0.00  0.00    +0.000 C 
ATOM      3  O   UNL     1       2.180  10.227  17.501  0.00  0.00    +0.000 OA
ATOM      4  N   UNL     1       2.928   8.151  17.670  0.00  0.00    +0.000 N 
ATOM      5  H   UNL     1       1.612   8.055  19.733  0.00  0.00    +0.000 HD
ATOM      6  H   UNL     1       3.547   8.444  16.927  0.00  0.00    +0.000 HD
ENDROOT
BRANCH   1  12
ATOM      7  C   UNL     1      -1.988  12.366  21.759  0.00  0.00    +0.000 A 
ATOM      8  N   UNL     1      -1.666  12.131  23.034  0.00  0.00    +0.000 NA
ATOM      9  N   UNL     1      -0.769  11.140  22.945  0.00  0.00    +0.000 N 
ATOM     10  C   UNL     1      -0.496  10.747  21.661  0.00  0.00    +0.000 A 
ATOM     11  C   UNL     1       0.396   9.817  21.144  0.00  0.00    +0.000 A 
ATOM     12  C   UNL     1       0.416   9.721  19.756  0.00  0.00    +0.000 A 
ATOM     13  N   UNL     1      -0.415  10.406  18.958  0.00  0.00    +0.000 NA
ATOM     14  CA  UNL     1      -1.308  11.312  19.462  0.00  0.00    +0.000 A 
ATOM     15  C   UNL     1      -1.334  11.513  20.851  0.00  0.00    +0.000 A 
ATOM     16  H   UNL     1      -0.352  10.782  23.797  0.00  0.00    +0.000 HD
BRANCH   7  18
ATOM     17  C   UNL     1      -4.215  12.956  21.565  0.00  0.00    +0.000 C 
ATOM     18  O   UNL     1      -2.852  13.352  21.442  0.00  0.00    +0.000 OA
ENDBRANCH   7  18
BRANCH  14  19
ATOM     19  C   UNL     1      -2.169  12.019  18.449  0.00  0.00    +0.000 C 
BRANCH  19  20
ATOM     20  O   UNL     1      -1.400  12.397  17.302  0.00  0.00    +0.000 OA
ATOM     21  H   UNL     1      -2.049  12.774  16.663  0.00  0.00    +0.000 HD
ENDBRANCH  19  20
ENDBRANCH  14  19
ENDBRANCH   1  12
BRANCH   4  22
ATOM     22  C   UNL     1       3.098   6.823  18.224  0.00  0.00    +0.000 C 
BRANCH  22  23
ATOM     23  C   UNL     1       3.956   5.906  17.384  0.00  0.00    +0.000 A 
ATOM     24  C   UNL     1       4.869   6.458  16.458  0.00  0.00    +0.000 A 
ATOM     25  C   UNL     1       5.690   5.645  15.696  0.00  0.00    +0.000 A 
ATOM     26  C   UNL     1       5.549   4.289  15.851  0.00  0.00    +0.000 A 
ATOM     27  N   UNL     1       4.689   3.720  16.724  0.00  0.00    +0.000 NA
ATOM     28  C   UNL     1       3.903   4.501  17.509  0.00  0.00    +0.000 A 
BRANCH  28  29
ATOM     29  N   UNL     1       3.191   3.868  18.538  0.00  0.00    +0.000 N 
ATOM     30  C   UNL     1       4.015   3.016  19.409  0.00  0.00    +0.000 C 
ATOM     31  C   UNL     1       1.897   3.259  18.228  0.00  0.00    +0.000 C 
ENDBRANCH  28  29
ENDBRANCH  22  23
ENDBRANCH   4  22
TORSDOF 7
ENDMDL
