MODEL 1
REMARK VINA RESULT:      -8.5      0.000      0.000
REMARK  Name = 
REMARK  13 active torsions:
REMARK  status: ('A' for Active; 'I' for Inactive)
REMARK    1  A    between atoms: C_1  and  C_2
REMARK    2  A    between atoms: C_4  and  O_5
REMARK    3  A    between atoms: C_8  and  N_9
REMARK    4  A    between atoms: N_9  and  C_10
REMARK    5  A    between atoms: C_10  and  C_11
REMARK    6  A    between atoms: C_14  and  C_15
REMARK    7  A    between atoms: N_17  and  CA_18
REMARK    8  A    between atoms: CA_18  and  CB_19
REMARK    9  A    between atoms: CA_18  and  C_24
REMARK   10  A    between atoms: CB_19  and  CG_20
REMARK   11  A    between atoms: CG_20  and  CD_21
REMARK   12  A    between atoms: CD_21  and  OE2_23
REMARK   13  A    between atoms: C_24  and  OXT_26
REMARK                            x       y       z     vdW  Elec       q    Type
REMARK                         _______ _______ _______ _____ _____    ______ ____
ROOT
ATOM      1  C   UNK A   0       1.043   9.316  19.003  0.00  0.00    +0.000 A 
ATOM      2  C   UNK A   0       1.770   8.980  17.862  0.00  0.00    +0.000 A 
ATOM      3  C   UNK A   0       2.600   7.860  17.895  0.00  0.00    +0.000 A 
ATOM      4  C   UNK A   0       2.706   7.118  19.073  0.00  0.00    +0.000 A 
ATOM      5  C   UNK A   0       1.999   7.562  20.182  0.00  0.00    +0.000 A 
ATOM      6  N   UNK A   0       1.181   8.646  20.176  0.00  0.00    +0.000 NA
ENDROOT
BRANCH   4   7
ATOM      7  C   UNK A   0       3.445   5.834  19.167  0.00  0.00    +0.000 C 
ATOM      8  O   UNK A   0       3.048   4.944  19.907  0.00  0.00    +0.000 OA
ATOM      9  N   GLU A   1       4.548   5.698  18.361  0.00  0.00    +0.000 N 
ATOM     10  H   GLU A   1       4.919   6.490  17.847  0.00  0.00    +0.000 HD
BRANCH   9  11
ATOM     11  CA  GLU A   1       5.294   4.444  18.256  0.00  0.00    +0.000 C 
BRANCH  11  12
ATOM     12  C   GLU A   1       6.711   4.756  18.756  0.00  0.00    +0.000 C 
ATOM     13  O   GLU A   1       6.931   5.393  19.777  0.00  0.00    +0.000 OA
BRANCH  12  14
ATOM     14  OXT GLU A   1       7.699   4.231  18.002  0.00  0.00    +0.000 OA
ATOM     15  HXT GLU A   1       8.416   3.787  18.505  0.00  0.00    +0.000 HD
ENDBRANCH  12  14
ENDBRANCH  11  12
BRANCH  11  16
ATOM     16  CB  GLU A   1       5.331   3.944  16.799  0.00  0.00    +0.000 C 
BRANCH  16  17
ATOM     17  CG  GLU A   1       5.441   5.048  15.754  0.00  0.00    +0.000 C 
BRANCH  17  18
ATOM     18  CD  GLU A   1       6.542   4.741  14.778  0.00  0.00    +0.000 C 
ATOM     19  OE1 GLU A   1       7.523   5.462  14.651  0.00  0.00    +0.000 OA
BRANCH  18  20
ATOM     20  OE2 GLU A   1       6.399   3.564  14.139  0.00  0.00    +0.000 OA
ATOM     21  HE2 GLU A   1       6.674   2.780  14.654  0.00  0.00    +0.000 HD
ENDBRANCH  18  20
ENDBRANCH  17  18
ENDBRANCH  16  17
ENDBRANCH  11  16
ENDBRANCH   9  11
ENDBRANCH   4   7
BRANCH   1  22
ATOM     22  C   UNK A   0      -0.004  10.412  18.941  0.00  0.00    +0.000 C 
BRANCH  22  23
ATOM     23  N   UNK A   0      -0.630  10.479  17.627  0.00  0.00    +0.000 N 
ATOM     24  H   UNK A   0      -0.057  10.992  16.955  0.00  0.00    +0.000 HD
BRANCH  23  31
ATOM     25  C   UNK A   0      -7.888  13.309  18.253  0.00  0.00    +0.000 C 
ATOM     26  C   UNK A   0      -6.494  12.782  18.387  0.00  0.00    +0.000 A 
ATOM     27  N   UNK A   0      -5.875  12.946  19.567  0.00  0.00    +0.000 NA
ATOM     28  C   UNK A   0      -4.625  12.479  19.617  0.00  0.00    +0.000 A 
ATOM     29  C   UNK A   0      -3.941  11.863  18.576  0.00  0.00    +0.000 A 
ATOM     30  C   UNK A   0      -2.609  11.394  18.637  0.00  0.00    +0.000 A 
ATOM     31  C   UNK A   0      -1.981  10.819  17.525  0.00  0.00    +0.000 A 
ATOM     32  C   UNK A   0      -2.727  10.746  16.347  0.00  0.00    +0.000 A 
ATOM     33  C   UNK A   0      -4.059  11.185  16.300  0.00  0.00    +0.000 A 
ATOM     34  C   UNK A   0      -4.684  11.755  17.403  0.00  0.00    +0.000 A 
ATOM     35  N   UNK A   0      -5.949  12.198  17.302  0.00  0.00    +0.000 NA
BRANCH  28  36
ATOM     36  O   UNK A   0      -4.026  12.683  20.821  0.00  0.00    +0.000 OA
ATOM     37  H   UNK A   0      -3.563  11.834  20.924  0.00  0.00    +0.000 HD
ENDBRANCH  28  36
ENDBRANCH  23  31
ENDBRANCH  22  23
ENDBRANCH   1  22
TORSDOF 12
ENDMDL
MODEL 2
REMARK VINA RESULT:      -8.2      1.369      1.958
REMARK  Name = 
REMARK  13 active torsions:
REMARK  status: ('A' for Active; 'I' for Inactive)
REMARK    1  A    between atoms: C_1  and  C_2
REMARK    2  A    between atoms: C_4  and  O_5
REMARK    3  A    between atoms: C_8  and  N_9
REMARK    4  A    between atoms: N_9  and  C_10
REMARK    5  A    between atoms: C_10  and  C_11
REMARK    6  A    between atoms: C_14  and  C_15
REMARK    7  A    between atoms: N_17  and  CA_18
REMARK    8  A    between atoms: CA_18  and  CB_19
REMARK    9  A    between atoms: CA_18  and  C_24
REMARK   10  A    between atoms: CB_19  and  CG_20
REMARK   11  A    between atoms: CG_20  and  CD_21
REMARK   12  A    between atoms: CD_21  and  OE2_23
REMARK   13  A    between atoms: C_24  and  OXT_26
REMARK                            x       y       z     vdW  Elec       q    Type
REMARK                         _______ _______ _______ _____ _____    ______ ____
ROOT
ATOM      1  C   UNK A   0       1.604   9.302  18.826  0.00  0.00    +0.000 A 
ATOM      2  C   UNK A   0       1.551   8.462  19.937  0.00  0.00    +0.000 A 
ATOM      3  C   UNK A   0       2.155   7.207  19.866  0.00  0.00    +0.000 A 
ATOM      4  C   UNK A   0       2.775   6.810  18.679  0.00  0.00    +0.000 A 
ATOM      5  C   UNK A   0       2.723   7.682  17.600  0.00  0.00    +0.000 A 
ATOM      6  N   UNK A   0       2.146   8.910  17.645  0.00  0.00    +0.000 NA
ENDROOT
BRANCH   4   7
ATOM      7  C   UNK A   0       3.568   5.562  18.549  0.00  0.00    +0.000 C 
ATOM      8  O   UNK A   0       3.074   4.482  18.842  0.00  0.00    +0.000 OA
ATOM      9  N   GLU A   1       4.841   5.691  18.051  0.00  0.00    +0.000 N 
ATOM     10  H   GLU A   1       5.262   6.606  17.927  0.00  0.00    +0.000 HD
BRANCH   9  11
ATOM     11  CA  GLU A   1       5.687   4.536  17.751  0.00  0.00    +0.000 C 
BRANCH  11  12
ATOM     12  C   GLU A   1       7.129   4.994  18.008  0.00  0.00    +0.000 C 
ATOM     13  O   GLU A   1       7.404   6.071  18.520  0.00  0.00    +0.000 OA
BRANCH  12  14
ATOM     14  OXT GLU A   1       8.072   4.093  17.665  0.00  0.00    +0.000 OA
ATOM     15  HXT GLU A   1       8.888   4.473  17.271  0.00  0.00    +0.000 HD
ENDBRANCH  12  14
ENDBRANCH  11  12
BRANCH  11  16
ATOM     16  CB  GLU A   1       5.513   4.091  16.286  0.00  0.00    +0.000 C 
BRANCH  16  17
ATOM     17  CG  GLU A   1       5.755   5.190  15.258  0.00  0.00    +0.000 C 
BRANCH  17  18
ATOM     18  CD  GLU A   1       6.740   4.732  14.220  0.00  0.00    +0.000 C 
ATOM     19  OE1 GLU A   1       7.728   5.390  13.921  0.00  0.00    +0.000 OA
BRANCH  18  20
ATOM     20  OE2 GLU A   1       6.492   3.502  13.731  0.00  0.00    +0.000 OA
ATOM     21  HE2 GLU A   1       7.278   2.928  13.641  0.00  0.00    +0.000 HD
ENDBRANCH  18  20
ENDBRANCH  17  18
ENDBRANCH  16  17
ENDBRANCH  11  16
ENDBRANCH   9  11
ENDBRANCH   4   7
BRANCH   1  22
ATOM     22  C   UNK A   0       1.122  10.736  18.935  0.00  0.00    +0.000 C 
BRANCH  22  23
ATOM     23  N   UNK A   0       0.098  11.032  17.942  0.00  0.00    +0.000 N 
ATOM     24  H   UNK A   0       0.460  11.602  17.175  0.00  0.00    +0.000 HD
BRANCH  23  31
ATOM     25  C   UNK A   0      -7.480  12.456  19.221  0.00  0.00    +0.000 C 
ATOM     26  C   UNK A   0      -6.097  12.157  18.732  0.00  0.00    +0.000 A 
ATOM     27  N   UNK A   0      -5.968  11.641  17.500  0.00  0.00    +0.000 NA
ATOM     28  C   UNK A   0      -4.713  11.372  17.131  0.00  0.00    +0.000 A 
ATOM     29  C   UNK A   0      -3.574  11.575  17.900  0.00  0.00    +0.000 A 
ATOM     30  C   UNK A   0      -2.253  11.263  17.504  0.00  0.00    +0.000 A 
ATOM     31  C   UNK A   0      -1.163  11.464  18.360  0.00  0.00    +0.000 A 
ATOM     32  C   UNK A   0      -1.443  11.971  19.631  0.00  0.00    +0.000 A 
ATOM     33  C   UNK A   0      -2.753  12.307  20.008  0.00  0.00    +0.000 A 
ATOM     34  C   UNK A   0      -3.836  12.109  19.159  0.00  0.00    +0.000 A 
ATOM     35  N   UNK A   0      -5.078  12.409  19.576  0.00  0.00    +0.000 NA
BRANCH  28  36
ATOM     36  O   UNK A   0      -4.627  10.831  15.886  0.00  0.00    +0.000 OA
ATOM     37  H   UNK A   0      -3.665  10.883  15.747  0.00  0.00    +0.000 HD
ENDBRANCH  28  36
ENDBRANCH  23  31
ENDBRANCH  22  23
ENDBRANCH   1  22
TORSDOF 12
ENDMDL
MODEL 3
REMARK VINA RESULT:      -8.0      1.846      2.824
REMARK  Name = 
REMARK  13 active torsions:
REMARK  status: ('A' for Active; 'I' for Inactive)
REMARK    1  A    between atoms: C_1  and  C_2
REMARK    2  A    between atoms: C_4  and  O_5
REMARK    3  A    between atoms: C_8  and  N_9
REMARK    4  A    between atoms: N_9  and  C_10
REMARK    5  A    between atoms: C_10  and  C_11
REMARK    6  A    between atoms: C_14  and  C_15
REMARK    7  A    between atoms: N_17  and  CA_18
REMARK    8  A    between atoms: CA_18  and  CB_19
REMARK    9  A    between atoms: CA_18  and  C_24
REMARK   10  A    between atoms: CB_19  and  CG_20
REMARK   11  A    between atoms: CG_20  and  CD_21
REMARK   12  A    between atoms: CD_21  and  OE2_23
REMARK   13  A    between atoms: C_24  and  OXT_26
REMARK                            x       y       z     vdW  Elec       q    Type
REMARK                         _______ _______ _______ _____ _____    ______ ____
ROOT
ATOM      1  C   UNK A   0       1.780   7.872  19.749  0.00  0.00    +0.000 A 
ATOM      2  C   UNK A   0       1.946   6.663  20.422  0.00  0.00    +0.000 A 
ATOM      3  C   UNK A   0       2.824   5.713  19.901  0.00  0.00    +0.000 A 
ATOM      4  C   UNK A   0       3.495   5.982  18.706  0.00  0.00    +0.000 A 
ATOM      5  C   UNK A   0       3.221   7.183  18.067  0.00  0.00    +0.000 A 
ATOM      6  N   UNK A   0       2.374   8.125  18.555  0.00  0.00    +0.000 NA
ENDROOT
BRANCH   4   7
ATOM      7  C   UNK A   0       4.554   5.104  18.148  0.00  0.00    +0.000 C 
ATOM      8  O   UNK A   0       5.088   4.256  18.850  0.00  0.00    +0.000 OA
ATOM      9  N   GLU A   1       4.856   5.271  16.819  0.00  0.00    +0.000 N 
ATOM     10  H   GLU A   1       4.482   6.055  16.294  0.00  0.00    +0.000 HD
BRANCH   9  11
ATOM     11  CA  GLU A   1       5.784   4.393  16.108  0.00  0.00    +0.000 C 
BRANCH  11  12
ATOM     12  C   GLU A   1       7.188   4.934  16.410  0.00  0.00    +0.000 C 
ATOM     13  O   GLU A   1       7.589   6.014  15.994  0.00  0.00    +0.000 OA
BRANCH  12  14
ATOM     14  OXT GLU A   1       7.932   4.145  17.211  0.00  0.00    +0.000 OA
ATOM     15  HXT GLU A   1       8.173   3.272  16.829  0.00  0.00    +0.000 HD
ENDBRANCH  12  14
ENDBRANCH  11  12
BRANCH  11  16
ATOM     16  CB  GLU A   1       5.511   4.412  14.592  0.00  0.00    +0.000 C 
BRANCH  16  17
ATOM     17  CG  GLU A   1       6.308   3.387  13.792  0.00  0.00    +0.000 C 
BRANCH  17  18
ATOM     18  CD  GLU A   1       6.205   3.673  12.321  0.00  0.00    +0.000 C 
ATOM     19  OE1 GLU A   1       7.150   4.099  11.669  0.00  0.00    +0.000 OA
BRANCH  18  20
ATOM     20  OE2 GLU A   1       5.024   3.326  11.774  0.00  0.00    +0.000 OA
ATOM     21  HE2 GLU A   1       5.017   2.456  11.327  0.00  0.00    +0.000 HD
ENDBRANCH  18  20
ENDBRANCH  17  18
ENDBRANCH  16  17
ENDBRANCH  11  16
ENDBRANCH   9  11
ENDBRANCH   4   7
BRANCH   1  22
ATOM     22  C   UNK A   0       0.979   8.992  20.385  0.00  0.00    +0.000 C 
BRANCH  22  23
ATOM     23  N   UNK A   0       0.884  10.148  19.504  0.00  0.00    +0.000 N 
ATOM     24  H   UNK A   0       1.606  10.843  19.703  0.00  0.00    +0.000 HD
BRANCH  23  31
ATOM     25  C   UNK A   0      -6.299  12.283  17.284  0.00  0.00    +0.000 C 
ATOM     26  C   UNK A   0      -4.897  11.794  17.469  0.00  0.00    +0.000 A 
ATOM     27  N   UNK A   0      -4.386  10.989  16.524  0.00  0.00    +0.000 NA
ATOM     28  C   UNK A   0      -3.141  10.566  16.758  0.00  0.00    +0.000 A 
ATOM     29  C   UNK A   0      -2.366  10.880  17.867  0.00  0.00    +0.000 A 
ATOM     30  C   UNK A   0      -1.057  10.405  18.112  0.00  0.00    +0.000 A 
ATOM     31  C   UNK A   0      -0.360  10.742  19.280  0.00  0.00    +0.000 A 
ATOM     32  C   UNK A   0      -1.025  11.556  20.199  0.00  0.00    +0.000 A 
ATOM     33  C   UNK A   0      -2.313  12.049  19.936  0.00  0.00    +0.000 A 
ATOM     34  C   UNK A   0      -3.006  11.717  18.778  0.00  0.00    +0.000 A 
ATOM     35  N   UNK A   0      -4.252  12.181  18.587  0.00  0.00    +0.000 NA
BRANCH  28  36
ATOM     36  O   UNK A   0      -2.669   9.736  15.789  0.00  0.00    +0.000 OA
ATOM     37  H   UNK A   0      -3.245   9.997  15.050  0.00  0.00    +0.000 HD
ENDBRANCH  28  36
ENDBRANCH  23  31
ENDBRANCH  22  23
ENDBRANCH   1  22
TORSDOF 12
ENDMDL
MODEL 4
REMARK VINA RESULT:      -8.0      1.691      2.498
REMARK  Name = 
REMARK  13 active torsions:
REMARK  status: ('A' for Active; 'I' for Inactive)
REMARK    1  A    between atoms: C_1  and  C_2
REMARK    2  A    between atoms: C_4  and  O_5
REMARK    3  A    between atoms: C_8  and  N_9
REMARK    4  A    between atoms: N_9  and  C_10
REMARK    5  A    between atoms: C_10  and  C_11
REMARK    6  A    between atoms: C_14  and  C_15
REMARK    7  A    between atoms: N_17  and  CA_18
REMARK    8  A    between atoms: CA_18  and  CB_19
REMARK    9  A    between atoms: CA_18  and  C_24
REMARK   10  A    between atoms: CB_19  and  CG_20
REMARK   11  A    between atoms: CG_20  and  CD_21
REMARK   12  A    between atoms: CD_21  and  OE2_23
REMARK   13  A    between atoms: C_24  and  OXT_26
REMARK                            x       y       z     vdW  Elec       q    Type
REMARK                         _______ _______ _______ _____ _____    ______ ____
ROOT
ATOM      1  C   UNK A   0       1.384   7.873  20.406  0.00  0.00    +0.000 A 
ATOM      2  C   UNK A   0       1.208   6.624  20.999  0.00  0.00    +0.000 A 
ATOM      3  C   UNK A   0       1.952   5.542  20.531  0.00  0.00    +0.000 A 
ATOM      4  C   UNK A   0       2.834   5.726  19.464  0.00  0.00    +0.000 A 
ATOM      5  C   UNK A   0       2.897   6.987  18.888  0.00  0.00    +0.000 A 
ATOM      6  N   UNK A   0       2.187   8.058  19.328  0.00  0.00    +0.000 NA
ENDROOT
BRANCH   4   7
ATOM      7  C   UNK A   0       3.772   4.678  18.989  0.00  0.00    +0.000 C 
ATOM      8  O   UNK A   0       3.522   3.495  19.171  0.00  0.00    +0.000 OA
ATOM      9  N   GLU A   1       4.888   5.111  18.314  0.00  0.00    +0.000 N 
ATOM     10  H   GLU A   1       5.127   6.096  18.281  0.00  0.00    +0.000 HD
BRANCH   9  11
ATOM     11  CA  GLU A   1       5.829   4.188  17.682  0.00  0.00    +0.000 C 
BRANCH  11  12
ATOM     12  C   GLU A   1       7.199   4.876  17.748  0.00  0.00    +0.000 C 
ATOM     13  O   GLU A   1       7.350   6.021  18.155  0.00  0.00    +0.000 OA
BRANCH  12  14
ATOM     14  OXT GLU A   1       8.234   4.101  17.364  0.00  0.00    +0.000 OA
ATOM     15  HXT GLU A   1       9.074   4.582  17.193  0.00  0.00    +0.000 HD
ENDBRANCH  12  14
ENDBRANCH  11  12
BRANCH  11  16
ATOM     16  CB  GLU A   1       5.432   3.911  16.219  0.00  0.00    +0.000 C 
BRANCH  16  17
ATOM     17  CG  GLU A   1       5.666   5.079  15.268  0.00  0.00    +0.000 C 
BRANCH  17  18
ATOM     18  CD  GLU A   1       6.683   4.713  14.224  0.00  0.00    +0.000 C 
ATOM     19  OE1 GLU A   1       7.692   5.379  14.031  0.00  0.00    +0.000 OA
BRANCH  18  20
ATOM     20  OE2 GLU A   1       6.435   3.545  13.600  0.00  0.00    +0.000 OA
ATOM     21  HE2 GLU A   1       5.598   3.518  13.095  0.00  0.00    +0.000 HD
ENDBRANCH  18  20
ENDBRANCH  17  18
ENDBRANCH  16  17
ENDBRANCH  11  16
ENDBRANCH   9  11
ENDBRANCH   4   7
BRANCH   1  22
ATOM     22  C   UNK A   0       0.730   9.100  21.012  0.00  0.00    +0.000 C 
BRANCH  22  23
ATOM     23  N   UNK A   0       0.733  10.222  20.082  0.00  0.00    +0.000 N 
ATOM     24  H   UNK A   0       1.449  10.912  20.317  0.00  0.00    +0.000 HD
BRANCH  23  31
ATOM     25  C   UNK A   0      -6.214  12.351  17.203  0.00  0.00    +0.000 C 
ATOM     26  C   UNK A   0      -4.842  11.846  17.523  0.00  0.00    +0.000 A 
ATOM     27  N   UNK A   0      -4.286  10.966  16.675  0.00  0.00    +0.000 NA
ATOM     28  C   UNK A   0      -3.074  10.532  17.028  0.00  0.00    +0.000 A 
ATOM     29  C   UNK A   0      -2.372  10.907  18.166  0.00  0.00    +0.000 A 
ATOM     30  C   UNK A   0      -1.096  10.422  18.538  0.00  0.00    +0.000 A 
ATOM     31  C   UNK A   0      -0.475  10.825  19.727  0.00  0.00    +0.000 A 
ATOM     32  C   UNK A   0      -1.181  11.716  20.538  0.00  0.00    +0.000 A 
ATOM     33  C   UNK A   0      -2.434  12.218  20.149  0.00  0.00    +0.000 A 
ATOM     34  C   UNK A   0      -3.051  11.820  18.969  0.00  0.00    +0.000 A 
ATOM     35  N   UNK A   0      -4.268  12.297  18.656  0.00  0.00    +0.000 NA
BRANCH  28  36
ATOM     36  O   UNK A   0      -2.556   9.626  16.156  0.00  0.00    +0.000 OA
ATOM     37  H   UNK A   0      -2.115  10.229  15.531  0.00  0.00    +0.000 HD
ENDBRANCH  28  36
ENDBRANCH  23  31
ENDBRANCH  22  23
ENDBRANCH   1  22
TORSDOF 12
ENDMDL
MODEL 5
REMARK VINA RESULT:      -8.0      2.464      3.672
REMARK  Name = 
REMARK  13 active torsions:
REMARK  status: ('A' for Active; 'I' for Inactive)
REMARK    1  A    between atoms: C_1  and  C_2
REMARK    2  A    between atoms: C_4  and  O_5
REMARK    3  A    between atoms: C_8  and  N_9
REMARK    4  A    between atoms: N_9  and  C_10
REMARK    5  A    between atoms: C_10  and  C_11
REMARK    6  A    between atoms: C_14  and  C_15
REMARK    7  A    between atoms: N_17  and  CA_18
REMARK    8  A    between atoms: CA_18  and  CB_19
REMARK    9  A    between atoms: CA_18  and  C_24
REMARK   10  A    between atoms: CB_19  and  CG_20
REMARK   11  A    between atoms: CG_20  and  CD_21
REMARK   12  A    between atoms: CD_21  and  OE2_23
REMARK   13  A    between atoms: C_24  and  OXT_26
REMARK                            x       y       z     vdW  Elec       q    Type
REMARK                         _______ _______ _______ _____ _____    ______ ____
ROOT
ATOM      1  C   UNK A   0       0.832   9.840  19.133  0.00  0.00    +0.000 A 
ATOM      2  C   UNK A   0       1.491   9.400  17.987  0.00  0.00    +0.000 A 
ATOM      3  C   UNK A   0       2.222   8.214  18.040  0.00  0.00    +0.000 A 
ATOM      4  C   UNK A   0       2.300   7.510  19.244  0.00  0.00    +0.000 A 
ATOM      5  C   UNK A   0       1.668   8.055  20.354  0.00  0.00    +0.000 A 
ATOM      6  N   UNK A   0       0.947   9.204  20.327  0.00  0.00    +0.000 NA
ENDROOT
BRANCH   4   7
ATOM      7  C   UNK A   0       2.928   6.170  19.369  0.00  0.00    +0.000 C 
ATOM      8  O   UNK A   0       2.533   5.378  20.214  0.00  0.00    +0.000 OA
ATOM      9  N   GLU A   1       3.923   5.870  18.471  0.00  0.00    +0.000 N 
ATOM     10  H   GLU A   1       4.306   6.584  17.860  0.00  0.00    +0.000 HD
BRANCH   9  11
ATOM     11  CA  GLU A   1       4.539   4.546  18.395  0.00  0.00    +0.000 C 
BRANCH  11  12
ATOM     12  C   GLU A   1       6.050   4.792  18.300  0.00  0.00    +0.000 C 
ATOM     13  O   GLU A   1       6.776   4.870  19.282  0.00  0.00    +0.000 OA
BRANCH  12  14
ATOM     14  OXT GLU A   1       6.526   4.869  17.040  0.00  0.00    +0.000 OA
ATOM     15  HXT GLU A   1       6.897   5.744  16.788  0.00  0.00    +0.000 HD
ENDBRANCH  12  14
ENDBRANCH  11  12
BRANCH  11  16
ATOM     16  CB  GLU A   1       4.036   3.773  17.161  0.00  0.00    +0.000 C 
BRANCH  16  17
ATOM     17  CG  GLU A   1       2.700   3.066  17.357  0.00  0.00    +0.000 C 
BRANCH  17  18
ATOM     18  CD  GLU A   1       2.781   2.096  18.502  0.00  0.00    +0.000 C 
ATOM     19  OE1 GLU A   1       3.547   1.141  18.496  0.00  0.00    +0.000 OA
BRANCH  18  20
ATOM     20  OE2 GLU A   1       2.019   2.429  19.561  0.00  0.00    +0.000 OA
ATOM     21  HE2 GLU A   1       1.298   1.801  19.764  0.00  0.00    +0.000 HD
ENDBRANCH  18  20
ENDBRANCH  17  18
ENDBRANCH  16  17
ENDBRANCH  11  16
ENDBRANCH   9  11
ENDBRANCH   4   7
BRANCH   1  22
ATOM     22  C   UNK A   0      -0.118  11.020  19.056  0.00  0.00    +0.000 C 
BRANCH  22  23
ATOM     23  N   UNK A   0       0.059  11.924  20.185  0.00  0.00    +0.000 N 
ATOM     24  H   UNK A   0       0.948  11.769  20.664  0.00  0.00    +0.000 HD
BRANCH  23  31
ATOM     25  C   UNK A   0      -6.694  13.029  23.961  0.00  0.00    +0.000 C 
ATOM     26  C   UNK A   0      -5.500  12.969  23.059  0.00  0.00    +0.000 A 
ATOM     27  N   UNK A   0      -5.649  13.398  21.796  0.00  0.00    +0.000 NA
ATOM     28  C   UNK A   0      -4.558  13.296  21.035  0.00  0.00    +0.000 A 
ATOM     29  C   UNK A   0      -3.326  12.793  21.436  0.00  0.00    +0.000 A 
ATOM     30  C   UNK A   0      -2.185  12.670  20.610  0.00  0.00    +0.000 A 
ATOM     31  C   UNK A   0      -0.990  12.114  21.087  0.00  0.00    +0.000 A 
ATOM     32  C   UNK A   0      -0.984  11.671  22.411  0.00  0.00    +0.000 A 
ATOM     33  C   UNK A   0      -2.111  11.824  23.235  0.00  0.00    +0.000 A 
ATOM     34  C   UNK A   0      -3.297  12.376  22.764  0.00  0.00    +0.000 A 
ATOM     35  N   UNK A   0      -4.362  12.467  23.577  0.00  0.00    +0.000 NA
BRANCH  28  36
ATOM     36  O   UNK A   0      -4.756  13.720  19.758  0.00  0.00    +0.000 OA
ATOM     37  H   UNK A   0      -5.613  13.298  19.573  0.00  0.00    +0.000 HD
ENDBRANCH  28  36
ENDBRANCH  23  31
ENDBRANCH  22  23
ENDBRANCH   1  22
TORSDOF 12
ENDMDL
MODEL 6
REMARK VINA RESULT:      -7.9      1.958      2.897
REMARK  Name = 
REMARK  13 active torsions:
REMARK  status: ('A' for Active; 'I' for Inactive)
REMARK    1  A    between atoms: C_1  and  C_2
REMARK    2  A    between atoms: C_4  and  O_5
REMARK    3  A    between atoms: C_8  and  N_9
REMARK    4  A    between atoms: N_9  and  C_10
REMARK    5  A    between atoms: C_10  and  C_11
REMARK    6  A    between atoms: C_14  and  C_15
REMARK    7  A    between atoms: N_17  and  CA_18
REMARK    8  A    between atoms: CA_18  and  CB_19
REMARK    9  A    between atoms: CA_18  and  C_24
REMARK   10  A    between atoms: CB_19  and  CG_20
REMARK   11  A    between atoms: CG_20  and  CD_21
REMARK   12  A    between atoms: CD_21  and  OE2_23
REMARK   13  A    between atoms: C_24  and  OXT_26
REMARK                            x       y       z     vdW  Elec       q    Type
REMARK                         _______ _______ _______ _____ _____    ______ ____
ROOT
ATOM      1  C   UNK A   0       1.369   9.470  19.032  0.00  0.00    +0.000 A 
ATOM      2  C   UNK A   0       1.252   8.735  20.210  0.00  0.00    +0.000 A 
ATOM      3  C   UNK A   0       1.883   7.495  20.300  0.00  0.00    +0.000 A 
ATOM      4  C   UNK A   0       2.594   7.006  19.201  0.00  0.00    +0.000 A 
ATOM      5  C   UNK A   0       2.603   7.773  18.044  0.00  0.00    +0.000 A 
ATOM      6  N   UNK A   0       2.001   8.984  17.933  0.00  0.00    +0.000 NA
ENDROOT
BRANCH   4   7
ATOM      7  C   UNK A   0       3.418   5.772  19.244  0.00  0.00    +0.000 C 
ATOM      8  O   UNK A   0       3.263   4.955  20.142  0.00  0.00    +0.000 OA
ATOM      9  N   GLU A   1       4.311   5.591  18.216  0.00  0.00    +0.000 N 
ATOM     10  H   GLU A   1       4.500   6.336  17.553  0.00  0.00    +0.000 HD
BRANCH   9  11
ATOM     11  CA  GLU A   1       5.094   4.366  18.063  0.00  0.00    +0.000 C 
BRANCH  11  12
ATOM     12  C   GLU A   1       6.487   4.685  18.621  0.00  0.00    +0.000 C 
ATOM     13  O   GLU A   1       7.521   4.427  18.019  0.00  0.00    +0.000 OA
BRANCH  12  14
ATOM     14  OXT GLU A   1       6.481   5.317  19.813  0.00  0.00    +0.000 OA
ATOM     15  HXT GLU A   1       5.972   6.157  19.836  0.00  0.00    +0.000 HD
ENDBRANCH  12  14
ENDBRANCH  11  12
BRANCH  11  16
ATOM     16  CB  GLU A   1       5.185   3.952  16.581  0.00  0.00    +0.000 C 
BRANCH  16  17
ATOM     17  CG  GLU A   1       5.346   5.115  15.608  0.00  0.00    +0.000 C 
BRANCH  17  18
ATOM     18  CD  GLU A   1       6.570   4.923  14.757  0.00  0.00    +0.000 C 
ATOM     19  OE1 GLU A   1       6.533   4.342  13.680  0.00  0.00    +0.000 OA
BRANCH  18  20
ATOM     20  OE2 GLU A   1       7.673   5.530  15.235  0.00  0.00    +0.000 OA
ATOM     21  HE2 GLU A   1       7.907   5.295  16.155  0.00  0.00    +0.000 HD
ENDBRANCH  18  20
ENDBRANCH  17  18
ENDBRANCH  16  17
ENDBRANCH  11  16
ENDBRANCH   9  11
ENDBRANCH   4   7
BRANCH   1  22
ATOM     22  C   UNK A   0       0.852  10.895  18.972  0.00  0.00    +0.000 C 
BRANCH  22  23
ATOM     23  N   UNK A   0       0.875  11.528  20.284  0.00  0.00    +0.000 N 
ATOM     24  H   UNK A   0       1.526  11.065  20.921  0.00  0.00    +0.000 HD
BRANCH  23  31
ATOM     25  C   UNK A   0      -6.501  12.902  22.470  0.00  0.00    +0.000 C 
ATOM     26  C   UNK A   0      -5.164  12.720  21.822  0.00  0.00    +0.000 A 
ATOM     27  N   UNK A   0      -5.112  12.741  20.481  0.00  0.00    +0.000 NA
ATOM     28  C   UNK A   0      -3.897  12.547  19.962  0.00  0.00    +0.000 A 
ATOM     29  C   UNK A   0      -2.728  12.329  20.679  0.00  0.00    +0.000 A 
ATOM     30  C   UNK A   0      -1.451  12.102  20.114  0.00  0.00    +0.000 A 
ATOM     31  C   UNK A   0      -0.329  11.851  20.914  0.00  0.00    +0.000 A 
ATOM     32  C   UNK A   0      -0.531  11.817  22.295  0.00  0.00    +0.000 A 
ATOM     33  C   UNK A   0      -1.795  12.073  22.851  0.00  0.00    +0.000 A 
ATOM     34  C   UNK A   0      -2.910  12.324  22.060  0.00  0.00    +0.000 A 
ATOM     35  N   UNK A   0      -4.108  12.525  22.635  0.00  0.00    +0.000 NA
BRANCH  28  36
ATOM     36  O   UNK A   0      -3.890  12.554  18.602  0.00  0.00    +0.000 OA
ATOM     37  H   UNK A   0      -2.946  12.383  18.438  0.00  0.00    +0.000 HD
ENDBRANCH  28  36
ENDBRANCH  23  31
ENDBRANCH  22  23
ENDBRANCH   1  22
TORSDOF 12
ENDMDL
MODEL 7
REMARK VINA RESULT:      -7.9      1.656      2.357
REMARK  Name = 
REMARK  13 active torsions:
REMARK  status: ('A' for Active; 'I' for Inactive)
REMARK    1  A    between atoms: C_1  and  C_2
REMARK    2  A    between atoms: C_4  and  O_5
REMARK    3  A    between atoms: C_8  and  N_9
REMARK    4  A    between atoms: N_9  and  C_10
REMARK    5  A    between atoms: C_10  and  C_11
REMARK    6  A    between atoms: C_14  and  C_15
REMARK    7  A    between atoms: N_17  and  CA_18
REMARK    8  A    between atoms: CA_18  and  CB_19
REMARK    9  A    between atoms: CA_18  and  C_24
REMARK   10  A    between atoms: CB_19  and  CG_20
REMARK   11  A    between atoms: CG_20  and  CD_21
REMARK   12  A    between atoms: CD_21  and  OE2_23
REMARK   13  A    between atoms: C_24  and  OXT_26
REMARK                            x       y       z     vdW  Elec       q    Type
REMARK                         _______ _______ _______ _____ _____    ______ ____
ROOT
ATOM      1  C   UNK A   0       1.442   9.302  19.540  0.00  0.00    +0.000 A 
ATOM      2  C   UNK A   0       1.812   9.135  18.207  0.00  0.00    +0.000 A 
ATOM      3  C   UNK A   0       2.193   7.868  17.765  0.00  0.00    +0.000 A 
ATOM      4  C   UNK A   0       2.221   6.805  18.670  0.00  0.00    +0.000 A 
ATOM      5  C   UNK A   0       1.901   7.075  19.994  0.00  0.00    +0.000 A 
ATOM      6  N   UNK A   0       1.523   8.297  20.448  0.00  0.00    +0.000 NA
ENDROOT
BRANCH   4   7
ATOM      7  C   UNK A   0       2.470   5.397  18.270  0.00  0.00    +0.000 C 
ATOM      8  O   UNK A   0       1.592   4.554  18.396  0.00  0.00    +0.000 OA
ATOM      9  N   GLU A   1       3.700   5.119  17.726  0.00  0.00    +0.000 N 
ATOM     10  H   GLU A   1       4.444   5.809  17.742  0.00  0.00    +0.000 HD
BRANCH   9  11
ATOM     11  CA  GLU A   1       4.035   3.808  17.173  0.00  0.00    +0.000 C 
BRANCH  11  12
ATOM     12  C   GLU A   1       4.393   2.925  18.376  0.00  0.00    +0.000 C 
ATOM     13  O   GLU A   1       3.774   1.909  18.664  0.00  0.00    +0.000 OA
BRANCH  12  14
ATOM     14  OXT GLU A   1       5.478   3.333  19.067  0.00  0.00    +0.000 OA
ATOM     15  HXT GLU A   1       6.340   3.158  18.630  0.00  0.00    +0.000 HD
ENDBRANCH  12  14
ENDBRANCH  11  12
BRANCH  11  16
ATOM     16  CB  GLU A   1       5.226   3.908  16.201  0.00  0.00    +0.000 C 
BRANCH  16  17
ATOM     17  CG  GLU A   1       5.748   5.324  15.982  0.00  0.00    +0.000 C 
BRANCH  17  18
ATOM     18  CD  GLU A   1       7.157   5.449  16.489  0.00  0.00    +0.000 C 
ATOM     19  OE1 GLU A   1       7.833   4.473  16.788  0.00  0.00    +0.000 OA
BRANCH  18  20
ATOM     20  OE2 GLU A   1       7.633   6.709  16.487  0.00  0.00    +0.000 OA
ATOM     21  HE2 GLU A   1       8.087   6.976  15.664  0.00  0.00    +0.000 HD
ENDBRANCH  18  20
ENDBRANCH  17  18
ENDBRANCH  16  17
ENDBRANCH  11  16
ENDBRANCH   9  11
ENDBRANCH   4   7
BRANCH   1  22
ATOM     22  C   UNK A   0       0.848  10.619  20.003  0.00  0.00    +0.000 C 
BRANCH  22  23
ATOM     23  N   UNK A   0       0.157  11.305  18.919  0.00  0.00    +0.000 N 
ATOM     24  H   UNK A   0       0.733  12.038  18.501  0.00  0.00    +0.000 HD
BRANCH  23  31
ATOM     25  C   UNK A   0      -7.553  12.582  18.821  0.00  0.00    +0.000 C 
ATOM     26  C   UNK A   0      -6.101  12.302  18.590  0.00  0.00    +0.000 A 
ATOM     27  N   UNK A   0      -5.751  11.747  17.418  0.00  0.00    +0.000 NA
ATOM     28  C   UNK A   0      -4.447  11.497  17.281  0.00  0.00    +0.000 A 
ATOM     29  C   UNK A   0      -3.462  11.754  18.226  0.00  0.00    +0.000 A 
ATOM     30  C   UNK A   0      -2.087  11.462  18.075  0.00  0.00    +0.000 A 
ATOM     31  C   UNK A   0      -1.165  11.720  19.098  0.00  0.00    +0.000 A 
ATOM     32  C   UNK A   0      -1.669  12.263  20.281  0.00  0.00    +0.000 A 
ATOM     33  C   UNK A   0      -3.031  12.578  20.414  0.00  0.00    +0.000 A 
ATOM     34  C   UNK A   0      -3.947  12.325  19.400  0.00  0.00    +0.000 A 
ATOM     35  N   UNK A   0      -5.247  12.608  19.586  0.00  0.00    +0.000 NA
BRANCH  28  36
ATOM     36  O   UNK A   0      -4.137  10.916  16.091  0.00  0.00    +0.000 OA
ATOM     37  H   UNK A   0      -4.794  11.349  15.518  0.00  0.00    +0.000 HD
ENDBRANCH  28  36
ENDBRANCH  23  31
ENDBRANCH  22  23
ENDBRANCH   1  22
TORSDOF 12
ENDMDL
MODEL 8
REMARK VINA RESULT:      -7.9      2.341      3.288
REMARK  Name = 
REMARK  13 active torsions:
REMARK  status: ('A' for Active; 'I' for Inactive)
REMARK    1  A    between atoms: C_1  and  C_2
REMARK    2  A    between atoms: C_4  and  O_5
REMARK    3  A    between atoms: C_8  and  N_9
REMARK    4  A    between atoms: N_9  and  C_10
REMARK    5  A    between atoms: C_10  and  C_11
REMARK    6  A    between atoms: C_14  and  C_15
REMARK    7  A    between atoms: N_17  and  CA_18
REMARK    8  A    between atoms: CA_18  and  CB_19
REMARK    9  A    between atoms: CA_18  and  C_24
REMARK   10  A    between atoms: CB_19  and  CG_20
REMARK   11  A    between atoms: CG_20  and  CD_21
REMARK   12  A    between atoms: CD_21  and  OE2_23
REMARK   13  A    between atoms: C_24  and  OXT_26
REMARK                            x       y       z     vdW  Elec       q    Type
REMARK                         _______ _______ _______ _____ _____    ______ ____
ROOT
ATOM      1  C   UNK A   0       1.122   9.323  19.078  0.00  0.00    +0.000 A 
ATOM      2  C   UNK A   0       1.803   9.205  17.868  0.00  0.00    +0.000 A 
ATOM      3  C   UNK A   0       2.670   8.129  17.682  0.00  0.00    +0.000 A 
ATOM      4  C   UNK A   0       2.857   7.212  18.718  0.00  0.00    +0.000 A 
ATOM      5  C   UNK A   0       2.191   7.442  19.913  0.00  0.00    +0.000 A 
ATOM      6  N   UNK A   0       1.339   8.479  20.119  0.00  0.00    +0.000 NA
ENDROOT
BRANCH   4   7
ATOM      7  C   UNK A   0       3.641   5.960  18.569  0.00  0.00    +0.000 C 
ATOM      8  O   UNK A   0       4.537   5.694  19.359  0.00  0.00    +0.000 OA
ATOM      9  N   GLU A   1       3.278   5.124  17.542  0.00  0.00    +0.000 N 
ATOM     10  H   GLU A   1       2.613   5.423  16.837  0.00  0.00    +0.000 HD
BRANCH   9  11
ATOM     11  CA  GLU A   1       3.877   3.803  17.357  0.00  0.00    +0.000 C 
BRANCH  11  12
ATOM     12  C   GLU A   1       3.724   3.080  18.702  0.00  0.00    +0.000 C 
ATOM     13  O   GLU A   1       2.638   2.759  19.165  0.00  0.00    +0.000 OA
BRANCH  12  14
ATOM     14  OXT GLU A   1       4.889   2.785  19.315  0.00  0.00    +0.000 OA
ATOM     15  HXT GLU A   1       5.693   3.138  18.874  0.00  0.00    +0.000 HD
ENDBRANCH  12  14
ENDBRANCH  11  12
BRANCH  11  16
ATOM     16  CB  GLU A   1       5.364   3.920  16.972  0.00  0.00    +0.000 C 
BRANCH  16  17
ATOM     17  CG  GLU A   1       5.624   4.682  15.676  0.00  0.00    +0.000 C 
BRANCH  17  18
ATOM     18  CD  GLU A   1       7.100   4.845  15.449  0.00  0.00    +0.000 C 
ATOM     19  OE1 GLU A   1       7.553   5.349  14.429  0.00  0.00    +0.000 OA
BRANCH  18  20
ATOM     20  OE2 GLU A   1       7.863   4.484  16.499  0.00  0.00    +0.000 OA
ATOM     21  HE2 GLU A   1       7.558   4.821  17.364  0.00  0.00    +0.000 HD
ENDBRANCH  18  20
ENDBRANCH  17  18
ENDBRANCH  16  17
ENDBRANCH  11  16
ENDBRANCH   9  11
ENDBRANCH   4   7
BRANCH   1  22
ATOM     22  C   UNK A   0       0.038  10.372  19.240  0.00  0.00    +0.000 C 
BRANCH  22  23
ATOM     23  N   UNK A   0       0.306  11.247  20.374  0.00  0.00    +0.000 N 
ATOM     24  H   UNK A   0       1.134  10.955  20.896  0.00  0.00    +0.000 HD
BRANCH  23  31
ATOM     25  C   UNK A   0      -6.401  13.283  23.831  0.00  0.00    +0.000 C 
ATOM     26  C   UNK A   0      -5.201  13.032  22.973  0.00  0.00    +0.000 A 
ATOM     27  N   UNK A   0      -5.291  13.333  21.668  0.00  0.00    +0.000 NA
ATOM     28  C   UNK A   0      -4.198  13.063  20.951  0.00  0.00    +0.000 A 
ATOM     29  C   UNK A   0      -3.019  12.511  21.435  0.00  0.00    +0.000 A 
ATOM     30  C   UNK A   0      -1.877  12.210  20.658  0.00  0.00    +0.000 A 
ATOM     31  C   UNK A   0      -0.741  11.615  21.222  0.00  0.00    +0.000 A 
ATOM     32  C   UNK A   0      -0.794  11.318  22.585  0.00  0.00    +0.000 A 
ATOM     33  C   UNK A   0      -1.920  11.648  23.358  0.00  0.00    +0.000 A 
ATOM     34  C   UNK A   0      -3.047  12.238  22.800  0.00  0.00    +0.000 A 
ATOM     35  N   UNK A   0      -4.117  12.500  23.571  0.00  0.00    +0.000 NA
BRANCH  28  36
ATOM     36  O   UNK A   0      -4.338  13.362  19.631  0.00  0.00    +0.000 OA
ATOM     37  H   UNK A   0      -3.648  12.788  19.255  0.00  0.00    +0.000 HD
ENDBRANCH  28  36
ENDBRANCH  23  31
ENDBRANCH  22  23
ENDBRANCH   1  22
TORSDOF 12
ENDMDL
MODEL 9
REMARK VINA RESULT:      -7.9      2.165      3.096
REMARK  Name = 
REMARK  13 active torsions:
REMARK  status: ('A' for Active; 'I' for Inactive)
REMARK    1  A    between atoms: C_1  and  C_2
REMARK    2  A    between atoms: C_4  and  O_5
REMARK    3  A    between atoms: C_8  and  N_9
REMARK    4  A    between atoms: N_9  and  C_10
REMARK    5  A    between atoms: C_10  and  C_11
REMARK    6  A    between atoms: C_14  and  C_15
REMARK    7  A    between atoms: N_17  and  CA_18
REMARK    8  A    between atoms: CA_18  and  CB_19
REMARK    9  A    between atoms: CA_18  and  C_24
REMARK   10  A    between atoms: CB_19  and  CG_20
REMARK   11  A    between atoms: CG_20  and  CD_21
REMARK   12  A    between atoms: CD_21  and  OE2_23
REMARK   13  A    between atoms: C_24  and  OXT_26
REMARK                            x       y       z     vdW  Elec       q    Type
REMARK                         _______ _______ _______ _____ _____    ______ ____
ROOT
ATOM      1  C   UNK A   0       1.105   9.906  19.331  0.00  0.00    +0.000 A 
ATOM      2  C   UNK A   0       1.276   8.954  20.335  0.00  0.00    +0.000 A 
ATOM      3  C   UNK A   0       1.864   7.732  20.015  0.00  0.00    +0.000 A 
ATOM      4  C   UNK A   0       2.244   7.477  18.695  0.00  0.00    +0.000 A 
ATOM      5  C   UNK A   0       1.976   8.455  17.746  0.00  0.00    +0.000 A 
ATOM      6  N   UNK A   0       1.409   9.654  18.032  0.00  0.00    +0.000 NA
ENDROOT
BRANCH   4   7
ATOM      7  C   UNK A   0       3.006   6.272  18.281  0.00  0.00    +0.000 C 
ATOM      8  O   UNK A   0       2.418   5.262  17.921  0.00  0.00    +0.000 OA
ATOM      9  N   GLU A   1       4.375   6.377  18.288  0.00  0.00    +0.000 N 
ATOM     10  H   GLU A   1       4.834   7.183  18.700  0.00  0.00    +0.000 HD
BRANCH   9  11
ATOM     11  CA  GLU A   1       5.246   5.316  17.785  0.00  0.00    +0.000 C 
BRANCH  11  12
ATOM     12  C   GLU A   1       5.862   4.655  19.025  0.00  0.00    +0.000 C 
ATOM     13  O   GLU A   1       6.626   5.241  19.781  0.00  0.00    +0.000 OA
BRANCH  12  14
ATOM     14  OXT GLU A   1       5.456   3.387  19.244  0.00  0.00    +0.000 OA
ATOM     15  HXT GLU A   1       4.565   3.299  19.648  0.00  0.00    +0.000 HD
ENDBRANCH  12  14
ENDBRANCH  11  12
BRANCH  11  16
ATOM     16  CB  GLU A   1       6.348   5.891  16.875  0.00  0.00    +0.000 C 
BRANCH  16  17
ATOM     17  CG  GLU A   1       7.238   4.842  16.217  0.00  0.00    +0.000 C 
BRANCH  17  18
ATOM     18  CD  GLU A   1       6.980   4.786  14.738  0.00  0.00    +0.000 C 
ATOM     19  OE1 GLU A   1       6.036   4.169  14.262  0.00  0.00    +0.000 OA
BRANCH  18  20
ATOM     20  OE2 GLU A   1       7.812   5.549  14.004  0.00  0.00    +0.000 OA
ATOM     21  HE2 GLU A   1       7.389   6.025  13.263  0.00  0.00    +0.000 HD
ENDBRANCH  18  20
ENDBRANCH  17  18
ENDBRANCH  16  17
ENDBRANCH  11  16
ENDBRANCH   9  11
ENDBRANCH   4   7
BRANCH   1  22
ATOM     22  C   UNK A   0       0.642  11.307  19.684  0.00  0.00    +0.000 C 
BRANCH  22  23
ATOM     23  N   UNK A   0       0.458  11.464  21.121  0.00  0.00    +0.000 N 
ATOM     24  H   UNK A   0       0.868  10.689  21.646  0.00  0.00    +0.000 HD
BRANCH  23  31
ATOM     25  C   UNK A   0      -7.053  13.131  22.493  0.00  0.00    +0.000 C 
ATOM     26  C   UNK A   0      -5.659  12.904  21.997  0.00  0.00    +0.000 A 
ATOM     27  N   UNK A   0      -5.449  12.966  20.673  0.00  0.00    +0.000 NA
ATOM     28  C   UNK A   0      -4.192  12.728  20.291  0.00  0.00    +0.000 A 
ATOM     29  C   UNK A   0      -3.126  12.429  21.129  0.00  0.00    +0.000 A 
ATOM     30  C   UNK A   0      -1.804  12.158  20.707  0.00  0.00    +0.000 A 
ATOM     31  C   UNK A   0      -0.795  11.826  21.620  0.00  0.00    +0.000 A 
ATOM     32  C   UNK A   0      -1.159  11.758  22.966  0.00  0.00    +0.000 A 
ATOM     33  C   UNK A   0      -2.466  12.058  23.382  0.00  0.00    +0.000 A 
ATOM     34  C   UNK A   0      -3.468  12.389  22.478  0.00  0.00    +0.000 A 
ATOM     35  N   UNK A   0      -4.714  12.631  22.919  0.00  0.00    +0.000 NA
BRANCH  28  36
ATOM     36  O   UNK A   0      -4.026  12.778  18.941  0.00  0.00    +0.000 OA
ATOM     37  H   UNK A   0      -4.878  13.173  18.683  0.00  0.00    +0.000 HD
ENDBRANCH  28  36
ENDBRANCH  23  31
ENDBRANCH  22  23
ENDBRANCH   1  22
TORSDOF 12
ENDMDL
