MODEL 1
REMARK VINA RESULT:      -5.8      0.000      0.000
REMARK  Name = 
REMARK  7 active torsions:
REMARK  status: ('A' for Active; 'I' for Inactive)
REMARK    1  A    between atoms: C_1  and  C_2
REMARK    2  A    between atoms: C_2  and  C_3
REMARK    3  A    between atoms: C_3  and  C_4
REMARK    4  A    between atoms: C_4  and  C_5
REMARK    5  A    between atoms: C_6  and  O_7
REMARK    6  A    between atoms: C_11  and  C_12
REMARK    7  A    between atoms: N_13  and  C_14
REMARK                            x       y       z     vdW  Elec       q    Type
REMARK                         _______ _______ _______ _____ _____    ______ ____
ROOT
ATOM      1  C   UNL     1       5.738   5.131  16.497  0.00  0.00    +0.000 A 
ATOM      2  C   UNL     1       6.814   5.827  16.955  0.00  0.00    +0.000 A 
ATOM      3  C   UNL     1       7.070   5.872  18.430  0.00  0.00    +0.000 A 
ATOM      4  O   UNL     1       8.009   6.489  18.922  0.00  0.00    +0.000 OA
ATOM      5  C   UNL     1       6.152   5.129  19.301  0.00  0.00    +0.000 A 
ATOM      6  C   UNL     1       5.088   4.501  18.774  0.00  0.00    +0.000 A 
ATOM      7  C   UNL     1       4.186   3.751  19.728  0.00  0.00    +0.000 C 
ATOM      8  N   UNL     1       4.808   4.516  17.388  0.00  0.00    +0.000 N 
ATOM      9  C   UNL     1       3.579   3.870  16.888  0.00  0.00    +0.000 C 
ENDROOT
BRANCH   2  10
ATOM     10  O   UNL     1       7.718   6.512  16.162  0.00  0.00    +0.000 OA
ATOM     11  H   UNL     1       7.771   6.094  15.292  0.00  0.00    +0.000 HD
ENDBRANCH   2  10
BRANCH   1  12
ATOM     12  C   UNL     1       5.525   5.003  14.983  0.00  0.00    +0.000 C 
BRANCH  12  13
ATOM     13  C   UNL     1       6.220   3.782  14.357  0.00  0.00    +0.000 C 
BRANCH  13  15
ATOM     14  C   UNL     1       5.627   3.035  12.027  0.00  0.00    +0.000 C 
ATOM     15  C   UNL     1       6.473   3.984  12.862  0.00  0.00    +0.000 C 
ENDBRANCH  13  15
ENDBRANCH  12  13
ENDBRANCH   1  12
TORSDOF 4
ENDMDL
MODEL 2
REMARK VINA RESULT:      -5.7      2.423      3.418
REMARK  Name = 
REMARK  7 active torsions:
REMARK  status: ('A' for Active; 'I' for Inactive)
REMARK    1  A    between atoms: C_1  and  C_2
REMARK    2  A    between atoms: C_2  and  C_3
REMARK    3  A    between atoms: C_3  and  C_4
REMARK    4  A    between atoms: C_4  and  C_5
REMARK    5  A    between atoms: C_6  and  O_7
REMARK    6  A    between atoms: C_11  and  C_12
REMARK    7  A    between atoms: N_13  and  C_14
REMARK                            x       y       z     vdW  Elec       q    Type
REMARK                         _______ _______ _______ _____ _____    ______ ____
ROOT
ATOM      1  C   UNL     1       4.447   5.169  18.575  0.00  0.00    +0.000 A 
ATOM      2  C   UNL     1       5.125   4.044  18.931  0.00  0.00    +0.000 A 
ATOM      3  C   UNL     1       4.464   3.062  19.848  0.00  0.00    +0.000 A 
ATOM      4  O   UNL     1       5.015   2.033  20.227  0.00  0.00    +0.000 OA
ATOM      5  C   UNL     1       3.096   3.358  20.288  0.00  0.00    +0.000 A 
ATOM      6  C   UNL     1       2.510   4.512  19.925  0.00  0.00    +0.000 A 
ATOM      7  C   UNL     1       1.098   4.751  20.409  0.00  0.00    +0.000 C 
ATOM      8  N   UNL     1       3.160   5.471  19.115  0.00  0.00    +0.000 N 
ATOM      9  C   UNL     1       2.486   6.750  18.820  0.00  0.00    +0.000 C 
ENDROOT
BRANCH   2  10
ATOM     10  O   UNL     1       6.402   3.716  18.511  0.00  0.00    +0.000 OA
ATOM     11  H   UNL     1       6.806   3.104  19.139  0.00  0.00    +0.000 HD
ENDBRANCH   2  10
BRANCH   1  12
ATOM     12  C   UNL     1       5.081   6.131  17.563  0.00  0.00    +0.000 C 
BRANCH  12  13
ATOM     13  C   UNL     1       4.997   5.646  16.105  0.00  0.00    +0.000 C 
BRANCH  13  15
ATOM     14  C   UNL     1       6.323   4.292  14.446  0.00  0.00    +0.000 C 
ATOM     15  C   UNL     1       6.385   5.360  15.528  0.00  0.00    +0.000 C 
ENDBRANCH  13  15
ENDBRANCH  12  13
ENDBRANCH   1  12
TORSDOF 4
ENDMDL
MODEL 3
REMARK VINA RESULT:      -5.6      2.537      3.888
REMARK  Name = 
REMARK  7 active torsions:
REMARK  status: ('A' for Active; 'I' for Inactive)
REMARK    1  A    between atoms: C_1  and  C_2
REMARK    2  A    between atoms: C_2  and  C_3
REMARK    3  A    between atoms: C_3  and  C_4
REMARK    4  A    between atoms: C_4  and  C_5
REMARK    5  A    between atoms: C_6  and  O_7
REMARK    6  A    between atoms: C_11  and  C_12
REMARK    7  A    between atoms: N_13  and  C_14
REMARK                            x       y       z     vdW  Elec       q    Type
REMARK                         _______ _______ _______ _____ _____    ______ ____
ROOT
ATOM      1  C   UNL     1       3.859   4.255  18.220  0.00  0.00    +0.000 A 
ATOM      2  C   UNL     1       4.780   3.606  18.984  0.00  0.00    +0.000 A 
ATOM      3  C   UNL     1       4.331   2.464  19.841  0.00  0.00    +0.000 A 
ATOM      4  O   UNL     1       5.097   1.839  20.568  0.00  0.00    +0.000 OA
ATOM      5  C   UNL     1       2.915   2.086  19.782  0.00  0.00    +0.000 A 
ATOM      6  C   UNL     1       2.060   2.804  19.035  0.00  0.00    +0.000 A 
ATOM      7  C   UNL     1       0.616   2.357  19.016  0.00  0.00    +0.000 C 
ATOM      8  N   UNL     1       2.471   3.926  18.278  0.00  0.00    +0.000 N 
ATOM      9  C   UNL     1       1.464   4.714  17.541  0.00  0.00    +0.000 C 
ENDROOT
BRANCH   2  10
ATOM     10  O   UNL     1       6.128   3.914  19.040  0.00  0.00    +0.000 OA
ATOM     11  H   UNL     1       6.301   4.491  19.796  0.00  0.00    +0.000 HD
ENDBRANCH   2  10
BRANCH   1  12
ATOM     12  C   UNL     1       4.328   5.364  17.270  0.00  0.00    +0.000 C 
BRANCH  12  13
ATOM     13  C   UNL     1       5.033   4.843  16.005  0.00  0.00    +0.000 C 
BRANCH  13  15
ATOM     14  C   UNL     1       6.707   6.475  16.941  0.00  0.00    +0.000 C 
ATOM     15  C   UNL     1       6.400   5.503  15.811  0.00  0.00    +0.000 C 
ENDBRANCH  13  15
ENDBRANCH  12  13
ENDBRANCH   1  12
TORSDOF 4
ENDMDL
MODEL 4
REMARK VINA RESULT:      -5.6      1.011      1.040
REMARK  Name = 
REMARK  7 active torsions:
REMARK  status: ('A' for Active; 'I' for Inactive)
REMARK    1  A    between atoms: C_1  and  C_2
REMARK    2  A    between atoms: C_2  and  C_3
REMARK    3  A    between atoms: C_3  and  C_4
REMARK    4  A    between atoms: C_4  and  C_5
REMARK    5  A    between atoms: C_6  and  O_7
REMARK    6  A    between atoms: C_11  and  C_12
REMARK    7  A    between atoms: N_13  and  C_14
REMARK                            x       y       z     vdW  Elec       q    Type
REMARK                         _______ _______ _______ _____ _____    ______ ____
ROOT
ATOM      1  C   UNL     1       5.597   4.165  16.836  0.00  0.00    +0.000 A 
ATOM      2  C   UNL     1       6.803   4.624  17.270  0.00  0.00    +0.000 A 
ATOM      3  C   UNL     1       6.889   5.259  18.623  0.00  0.00    +0.000 A 
ATOM      4  O   UNL     1       7.935   5.711  19.079  0.00  0.00    +0.000 OA
ATOM      5  C   UNL     1       5.661   5.322  19.423  0.00  0.00    +0.000 A 
ATOM      6  C   UNL     1       4.501   4.885  18.906  0.00  0.00    +0.000 A 
ATOM      7  C   UNL     1       3.274   4.974  19.786  0.00  0.00    +0.000 C 
ATOM      8  N   UNL     1       4.406   4.347  17.601  0.00  0.00    +0.000 N 
ATOM      9  C   UNL     1       3.086   3.957  17.070  0.00  0.00    +0.000 C 
ENDROOT
BRANCH   2  10
ATOM     10  O   UNL     1       7.987   4.553  16.557  0.00  0.00    +0.000 OA
ATOM     11  H   UNL     1       7.803   4.298  15.643  0.00  0.00    +0.000 HD
ENDBRANCH   2  10
BRANCH   1  12
ATOM     12  C   UNL     1       5.521   3.429  15.492  0.00  0.00    +0.000 C 
BRANCH  12  13
ATOM     13  C   UNL     1       5.537   4.362  14.270  0.00  0.00    +0.000 C 
BRANCH  13  15
ATOM     14  C   UNL     1       5.424   3.168  12.056  0.00  0.00    +0.000 C 
ATOM     15  C   UNL     1       6.341   3.762  13.115  0.00  0.00    +0.000 C 
ENDBRANCH  13  15
ENDBRANCH  12  13
ENDBRANCH   1  12
TORSDOF 4
ENDMDL
MODEL 5
REMARK VINA RESULT:      -5.6      2.702      3.450
REMARK  Name = 
REMARK  7 active torsions:
REMARK  status: ('A' for Active; 'I' for Inactive)
REMARK    1  A    between atoms: C_1  and  C_2
REMARK    2  A    between atoms: C_2  and  C_3
REMARK    3  A    between atoms: C_3  and  C_4
REMARK    4  A    between atoms: C_4  and  C_5
REMARK    5  A    between atoms: C_6  and  O_7
REMARK    6  A    between atoms: C_11  and  C_12
REMARK    7  A    between atoms: N_13  and  C_14
REMARK                            x       y       z     vdW  Elec       q    Type
REMARK                         _______ _______ _______ _____ _____    ______ ____
ROOT
ATOM      1  C   UNL     1       5.081   4.867  17.941  0.00  0.00    +0.000 A 
ATOM      2  C   UNL     1       4.622   4.019  18.902  0.00  0.00    +0.000 A 
ATOM      3  C   UNL     1       3.390   4.393  19.665  0.00  0.00    +0.000 A 
ATOM      4  O   UNL     1       2.922   3.691  20.557  0.00  0.00    +0.000 OA
ATOM      5  C   UNL     1       2.724   5.651  19.307  0.00  0.00    +0.000 A 
ATOM      6  C   UNL     1       3.265   6.453  18.375  0.00  0.00    +0.000 A 
ATOM      7  C   UNL     1       2.525   7.731  18.051  0.00  0.00    +0.000 C 
ATOM      8  N   UNL     1       4.466   6.133  17.701  0.00  0.00    +0.000 N 
ATOM      9  C   UNL     1       5.043   7.097  16.745  0.00  0.00    +0.000 C 
ENDROOT
BRANCH   2  10
ATOM     10  O   UNL     1       5.204   2.811  19.244  0.00  0.00    +0.000 OA
ATOM     11  H   UNL     1       4.737   2.424  19.996  0.00  0.00    +0.000 HD
ENDBRANCH   2  10
BRANCH   1  12
ATOM     12  C   UNL     1       6.287   4.445  17.091  0.00  0.00    +0.000 C 
BRANCH  12  13
ATOM     13  C   UNL     1       5.908   3.728  15.785  0.00  0.00    +0.000 C 
BRANCH  13  15
ATOM     14  C   UNL     1       6.097   3.747  13.274  0.00  0.00    +0.000 C 
ATOM     15  C   UNL     1       6.575   4.380  14.572  0.00  0.00    +0.000 C 
ENDBRANCH  13  15
ENDBRANCH  12  13
ENDBRANCH   1  12
TORSDOF 4
ENDMDL
MODEL 6
REMARK VINA RESULT:      -5.6      1.113      1.307
REMARK  Name = 
REMARK  7 active torsions:
REMARK  status: ('A' for Active; 'I' for Inactive)
REMARK    1  A    between atoms: C_1  and  C_2
REMARK    2  A    between atoms: C_2  and  C_3
REMARK    3  A    between atoms: C_3  and  C_4
REMARK    4  A    between atoms: C_4  and  C_5
REMARK    5  A    between atoms: C_6  and  O_7
REMARK    6  A    between atoms: C_11  and  C_12
REMARK    7  A    between atoms: N_13  and  C_14
REMARK                            x       y       z     vdW  Elec       q    Type
REMARK                         _______ _______ _______ _____ _____    ______ ____
ROOT
ATOM      1  C   UNL     1       5.952   4.547  15.961  0.00  0.00    +0.000 A 
ATOM      2  C   UNL     1       6.908   5.515  15.932  0.00  0.00    +0.000 A 
ATOM      3  C   UNL     1       7.024   6.449  17.096  0.00  0.00    +0.000 A 
ATOM      4  O   UNL     1       7.850   7.357  17.139  0.00  0.00    +0.000 OA
ATOM      5  C   UNL     1       6.111   6.245  18.225  0.00  0.00    +0.000 A 
ATOM      6  C   UNL     1       5.166   5.293  18.159  0.00  0.00    +0.000 A 
ATOM      7  C   UNL     1       4.261   5.132  19.360  0.00  0.00    +0.000 C 
ATOM      8  N   UNL     1       5.011   4.454  17.031  0.00  0.00    +0.000 N 
ATOM      9  C   UNL     1       3.902   3.481  16.995  0.00  0.00    +0.000 C 
ENDROOT
BRANCH   2  10
ATOM     10  O   UNL     1       7.807   5.717  14.900  0.00  0.00    +0.000 OA
ATOM     11  H   UNL     1       8.188   6.603  14.967  0.00  0.00    +0.000 HD
ENDBRANCH   2  10
BRANCH   1  12
ATOM     12  C   UNL     1       5.889   3.529  14.816  0.00  0.00    +0.000 C 
BRANCH  12  13
ATOM     13  C   UNL     1       5.288   4.090  13.516  0.00  0.00    +0.000 C 
BRANCH  13  15
ATOM     14  C   UNL     1       4.373   3.168  11.358  0.00  0.00    +0.000 C 
ATOM     15  C   UNL     1       5.543   3.157  12.330  0.00  0.00    +0.000 C 
ENDBRANCH  13  15
ENDBRANCH  12  13
ENDBRANCH   1  12
TORSDOF 4
ENDMDL
MODEL 7
REMARK VINA RESULT:      -5.6      3.019      3.651
REMARK  Name = 
REMARK  7 active torsions:
REMARK  status: ('A' for Active; 'I' for Inactive)
REMARK    1  A    between atoms: C_1  and  C_2
REMARK    2  A    between atoms: C_2  and  C_3
REMARK    3  A    between atoms: C_3  and  C_4
REMARK    4  A    between atoms: C_4  and  C_5
REMARK    5  A    between atoms: C_6  and  O_7
REMARK    6  A    between atoms: C_11  and  C_12
REMARK    7  A    between atoms: N_13  and  C_14
REMARK                            x       y       z     vdW  Elec       q    Type
REMARK                         _______ _______ _______ _____ _____    ______ ____
ROOT
ATOM      1  C   UNL     1       4.535   4.403  17.134  0.00  0.00    +0.000 A 
ATOM      2  C   UNL     1       3.860   3.376  17.718  0.00  0.00    +0.000 A 
ATOM      3  C   UNL     1       2.649   3.685  18.543  0.00  0.00    +0.000 A 
ATOM      4  O   UNL     1       1.996   2.816  19.114  0.00  0.00    +0.000 OA
ATOM      5  C   UNL     1       2.239   5.089  18.648  0.00  0.00    +0.000 A 
ATOM      6  C   UNL     1       2.984   6.049  18.075  0.00  0.00    +0.000 A 
ATOM      7  C   UNL     1       2.501   7.475  18.218  0.00  0.00    +0.000 C 
ATOM      8  N   UNL     1       4.166   5.764  17.354  0.00  0.00    +0.000 N 
ATOM      9  C   UNL     1       4.976   6.875  16.818  0.00  0.00    +0.000 C 
ENDROOT
BRANCH   2  10
ATOM     10  O   UNL     1       4.198   2.038  17.615  0.00  0.00    +0.000 OA
ATOM     11  H   UNL     1       5.134   1.920  17.825  0.00  0.00    +0.000 HD
ENDBRANCH   2  10
BRANCH   1  12
ATOM     12  C   UNL     1       5.719   4.086  16.212  0.00  0.00    +0.000 C 
BRANCH  12  13
ATOM     13  C   UNL     1       5.346   4.008  14.722  0.00  0.00    +0.000 C 
BRANCH  13  15
ATOM     14  C   UNL     1       6.371   3.562  12.466  0.00  0.00    +0.000 C 
ATOM     15  C   UNL     1       6.568   4.217  13.825  0.00  0.00    +0.000 C 
ENDBRANCH  13  15
ENDBRANCH  12  13
ENDBRANCH   1  12
TORSDOF 4
ENDMDL
MODEL 8
REMARK VINA RESULT:      -5.5      3.207      4.515
REMARK  Name = 
REMARK  7 active torsions:
REMARK  status: ('A' for Active; 'I' for Inactive)
REMARK    1  A    between atoms: C_1  and  C_2
REMARK    2  A    between atoms: C_2  and  C_3
REMARK    3  A    between atoms: C_3  and  C_4
REMARK    4  A    between atoms: C_4  and  C_5
REMARK    5  A    between atoms: C_6  and  O_7
REMARK    6  A    between atoms: C_11  and  C_12
REMARK    7  A    between atoms: N_13  and  C_14
REMARK                            x       y       z     vdW  Elec       q    Type
REMARK                         _______ _______ _______ _____ _____    ______ ____
ROOT
ATOM      1  C   UNL     1       3.979   4.750  18.092  0.00  0.00    +0.000 A 
ATOM      2  C   UNL     1       4.285   3.478  17.713  0.00  0.00    +0.000 A 
ATOM      3  C   UNL     1       3.464   2.348  18.251  0.00  0.00    +0.000 A 
ATOM      4  O   UNL     1       3.685   1.174  17.970  0.00  0.00    +0.000 OA
ATOM      5  C   UNL     1       2.346   2.683  19.141  0.00  0.00    +0.000 A 
ATOM      6  C   UNL     1       2.136   3.961  19.501  0.00  0.00    +0.000 A 
ATOM      7  C   UNL     1       0.964   4.237  20.415  0.00  0.00    +0.000 C 
ATOM      8  N   UNL     1       2.953   5.022  19.047  0.00  0.00    +0.000 N 
ATOM      9  C   UNL     1       2.712   6.390  19.544  0.00  0.00    +0.000 C 
ENDROOT
BRANCH   2  10
ATOM     10  O   UNL     1       5.309   3.127  16.852  0.00  0.00    +0.000 OA
ATOM     11  H   UNL     1       5.528   2.193  16.968  0.00  0.00    +0.000 HD
ENDBRANCH   2  10
BRANCH   1  12
ATOM     12  C   UNL     1       4.756   5.918  17.471  0.00  0.00    +0.000 C 
BRANCH  12  13
ATOM     13  C   UNL     1       6.129   6.166  18.117  0.00  0.00    +0.000 C 
BRANCH  13  15
ATOM     14  C   UNL     1       7.795   7.994  17.643  0.00  0.00    +0.000 C 
ATOM     15  C   UNL     1       7.130   6.734  17.109  0.00  0.00    +0.000 C 
ENDBRANCH  13  15
ENDBRANCH  12  13
ENDBRANCH   1  12
TORSDOF 4
ENDMDL
MODEL 9
REMARK VINA RESULT:      -5.5      2.681      3.566
REMARK  Name = 
REMARK  7 active torsions:
REMARK  status: ('A' for Active; 'I' for Inactive)
REMARK    1  A    between atoms: C_1  and  C_2
REMARK    2  A    between atoms: C_2  and  C_3
REMARK    3  A    between atoms: C_3  and  C_4
REMARK    4  A    between atoms: C_4  and  C_5
REMARK    5  A    between atoms: C_6  and  O_7
REMARK    6  A    between atoms: C_11  and  C_12
REMARK    7  A    between atoms: N_13  and  C_14
REMARK                            x       y       z     vdW  Elec       q    Type
REMARK                         _______ _______ _______ _____ _____    ______ ____
ROOT
ATOM      1  C   UNL     1       4.074   4.634  18.702  0.00  0.00    +0.000 A 
ATOM      2  C   UNL     1       3.585   5.904  18.689  0.00  0.00    +0.000 A 
ATOM      3  C   UNL     1       2.515   6.276  19.668  0.00  0.00    +0.000 A 
ATOM      4  O   UNL     1       2.013   7.395  19.709  0.00  0.00    +0.000 OA
ATOM      5  C   UNL     1       2.073   5.246  20.614  0.00  0.00    +0.000 A 
ATOM      6  C   UNL     1       2.575   4.002  20.534  0.00  0.00    +0.000 A 
ATOM      7  C   UNL     1       2.079   2.991  21.544  0.00  0.00    +0.000 C 
ATOM      8  N   UNL     1       3.536   3.632  19.566  0.00  0.00    +0.000 N 
ATOM      9  C   UNL     1       3.986   2.229  19.487  0.00  0.00    +0.000 C 
ENDROOT
BRANCH   2  10
ATOM     10  O   UNL     1       4.001   6.909  17.834  0.00  0.00    +0.000 OA
ATOM     11  H   UNL     1       4.622   6.551  17.186  0.00  0.00    +0.000 HD
ENDBRANCH   2  10
BRANCH   1  12
ATOM     12  C   UNL     1       5.235   4.274  17.767  0.00  0.00    +0.000 C 
BRANCH  12  13
ATOM     13  C   UNL     1       4.808   4.026  16.310  0.00  0.00    +0.000 C 
BRANCH  13  15
ATOM     14  C   UNL     1       5.935   4.057  14.058  0.00  0.00    +0.000 C 
ATOM     15  C   UNL     1       5.653   4.842  15.330  0.00  0.00    +0.000 C 
ENDBRANCH  13  15
ENDBRANCH  12  13
ENDBRANCH   1  12
TORSDOF 4
ENDMDL
