MODEL 1
REMARK VINA RESULT:      -6.8      0.000      0.000
REMARK  Name = 
REMARK  8 active torsions:
REMARK  status: ('A' for Active; 'I' for Inactive)
REMARK    1  A    between atoms: C_1  and  N_2
REMARK    2  A    between atoms: N_2  and  C_3
REMARK    3  A    between atoms: C_3  and  C_4
REMARK    4  A    between atoms: C_9  and  O_10
REMARK    5  A    between atoms: C_9  and  C_12
REMARK    6  A    between atoms: O_10  and  C_11
REMARK    7  A    between atoms: C_16  and  O_17
REMARK    8  A    between atoms: O_17  and  C_18
REMARK                            x       y       z     vdW  Elec       q    Type
REMARK                         _______ _______ _______ _____ _____    ______ ____
ROOT
ATOM      1  C   UNL     1       2.774   5.227  19.448  0.00  0.00    +0.000 C 
ATOM      2  C   UNL     1       1.573   4.812  20.322  0.00  0.00    +0.000 C 
ATOM      3  C   UNL     1       1.950   3.847  21.438  0.00  0.00    +0.000 C 
ATOM      4  C   UNL     1       2.717   2.630  20.952  0.00  0.00    +0.000 C 
ATOM      5  C   UNL     1       3.902   2.988  20.053  0.00  0.00    +0.000 C 
ATOM      6  C   UNL     1       3.605   4.007  18.915  0.00  0.00    +0.000 C 
ENDROOT
BRANCH   6   7
ATOM      7  C   UNL     1       4.989   4.506  18.382  0.00  0.00    +0.000 A 
ATOM      8  C   UNL     1       5.900   5.184  19.219  0.00  0.00    +0.000 A 
ATOM      9  C   UNL     1       7.158   5.578  18.756  0.00  0.00    +0.000 A 
ATOM     10  C   UNL     1       7.530   5.317  17.441  0.00  0.00    +0.000 A 
ATOM     11  C   UNL     1       6.647   4.672  16.577  0.00  0.00    +0.000 A 
ATOM     12  C   UNL     1       5.387   4.273  17.045  0.00  0.00    +0.000 A 
BRANCH  11  13
ATOM     13  O   UNL     1       7.128   4.487  15.308  0.00  0.00    +0.000 OA
ATOM     14  C   UNL     1       6.221   3.964  14.346  0.00  0.00    +0.000 C 
ENDBRANCH  11  13
ENDBRANCH   6   7
BRANCH   6  15
ATOM     15  O   UNL     1       2.963   3.425  17.764  0.00  0.00    +0.000 OA
ATOM     16  C   UNL     1       2.561   2.074  17.739  0.00  0.00    +0.000 C 
ENDBRANCH   6  15
BRANCH   1  17
ATOM     17  C   UNL     1       2.332   6.173  18.302  0.00  0.00    +0.000 C 
BRANCH  17  19
ATOM     18  C   UNL     1       2.071   8.531  17.836  0.00  0.00    +0.000 C 
ATOM     19  N   UNL     1       2.895   7.521  18.484  0.00  0.00    +0.000 NA
ATOM     20  H   UNL     1       2.955   7.738  19.476  0.00  0.00    +0.000 HD
ENDBRANCH  17  19
ENDBRANCH   1  17
TORSDOF 5
ENDMDL
MODEL 2
REMARK VINA RESULT:      -6.8      2.574      5.428
REMARK  Name = 
REMARK  8 active torsions:
REMARK  status: ('A' for Active; 'I' for Inactive)
REMARK    1  A    between atoms: C_1  and  N_2
REMARK    2  A    between atoms: N_2  and  C_3
REMARK    3  A    between atoms: C_3  and  C_4
REMARK    4  A    between atoms: C_9  and  O_10
REMARK    5  A    between atoms: C_9  and  C_12
REMARK    6  A    between atoms: O_10  and  C_11
REMARK    7  A    between atoms: C_16  and  O_17
REMARK    8  A    between atoms: O_17  and  C_18
REMARK                            x       y       z     vdW  Elec       q    Type
REMARK                         _______ _______ _______ _____ _____    ______ ____
ROOT
ATOM      1  C   UNL     1       3.852   4.258  18.496  0.00  0.00    +0.000 C 
ATOM      2  C   UNL     1       3.991   2.745  18.228  0.00  0.00    +0.000 C 
ATOM      3  C   UNL     1       2.715   2.112  17.693  0.00  0.00    +0.000 C 
ATOM      4  C   UNL     1       1.491   2.404  18.543  0.00  0.00    +0.000 C 
ATOM      5  C   UNL     1       1.326   3.892  18.865  0.00  0.00    +0.000 C 
ATOM      6  C   UNL     1       2.603   4.620  19.374  0.00  0.00    +0.000 C 
ENDROOT
BRANCH   6   7
ATOM      7  C   UNL     1       2.318   6.156  19.274  0.00  0.00    +0.000 A 
ATOM      8  C   UNL     1       2.469   6.855  18.058  0.00  0.00    +0.000 A 
ATOM      9  C   UNL     1       2.159   8.215  17.959  0.00  0.00    +0.000 A 
ATOM     10  C   UNL     1       1.704   8.910  19.075  0.00  0.00    +0.000 A 
ATOM     11  C   UNL     1       1.567   8.258  20.299  0.00  0.00    +0.000 A 
ATOM     12  C   UNL     1       1.874   6.894  20.396  0.00  0.00    +0.000 A 
BRANCH  11  13
ATOM     13  O   UNL     1       1.125   9.056  21.321  0.00  0.00    +0.000 OA
ATOM     14  C   UNL     1      -0.209   8.850  21.767  0.00  0.00    +0.000 C 
ENDBRANCH  11  13
ENDBRANCH   6   7
BRANCH   6  15
ATOM     15  O   UNL     1       2.886   4.395  20.769  0.00  0.00    +0.000 OA
ATOM     16  C   UNL     1       2.107   3.522  21.554  0.00  0.00    +0.000 C 
ENDBRANCH   6  15
BRANCH   1  17
ATOM     17  C   UNL     1       5.163   4.846  19.080  0.00  0.00    +0.000 C 
BRANCH  17  19
ATOM     18  C   UNL     1       7.226   4.767  17.821  0.00  0.00    +0.000 C 
ATOM     19  N   UNL     1       6.325   4.028  18.694  0.00  0.00    +0.000 NA
ATOM     20  H   UNL     1       6.838   3.744  19.525  0.00  0.00    +0.000 HD
ENDBRANCH  17  19
ENDBRANCH   1  17
TORSDOF 5
ENDMDL
MODEL 3
REMARK VINA RESULT:      -6.5      2.149      3.580
REMARK  Name = 
REMARK  8 active torsions:
REMARK  status: ('A' for Active; 'I' for Inactive)
REMARK    1  A    between atoms: C_1  and  N_2
REMARK    2  A    between atoms: N_2  and  C_3
REMARK    3  A    between atoms: C_3  and  C_4
REMARK    4  A    between atoms: C_9  and  O_10
REMARK    5  A    between atoms: C_9  and  C_12
REMARK    6  A    between atoms: O_10  and  C_11
REMARK    7  A    between atoms: C_16  and  O_17
REMARK    8  A    between atoms: O_17  and  C_18
REMARK                            x       y       z     vdW  Elec       q    Type
REMARK                         _______ _______ _______ _____ _____    ______ ____
ROOT
ATOM      1  C   UNL     1       3.576   2.713  19.332  0.00  0.00    +0.000 C 
ATOM      2  C   UNL     1       2.156   2.118  19.432  0.00  0.00    +0.000 C 
ATOM      3  C   UNL     1       1.296   2.413  18.212  0.00  0.00    +0.000 C 
ATOM      4  C   UNL     1       1.245   3.886  17.849  0.00  0.00    +0.000 C 
ATOM      5  C   UNL     1       2.630   4.532  17.768  0.00  0.00    +0.000 C 
ATOM      6  C   UNL     1       3.585   4.237  18.960  0.00  0.00    +0.000 C 
ENDROOT
BRANCH   6   7
ATOM      7  C   UNL     1       5.021   4.658  18.504  0.00  0.00    +0.000 A 
ATOM      8  C   UNL     1       5.922   5.286  19.390  0.00  0.00    +0.000 A 
ATOM      9  C   UNL     1       7.223   5.609  18.996  0.00  0.00    +0.000 A 
ATOM     10  C   UNL     1       7.651   5.325  17.704  0.00  0.00    +0.000 A 
ATOM     11  C   UNL     1       6.782   4.728  16.793  0.00  0.00    +0.000 A 
ATOM     12  C   UNL     1       5.479   4.401  17.190  0.00  0.00    +0.000 A 
BRANCH  11  13
ATOM     13  O   UNL     1       7.320   4.515  15.551  0.00  0.00    +0.000 OA
ATOM     14  C   UNL     1       6.426   4.108  14.523  0.00  0.00    +0.000 C 
ENDBRANCH  11  13
ENDBRANCH   6   7
BRANCH   6  15
ATOM     15  O   UNL     1       3.326   5.042  20.128  0.00  0.00    +0.000 OA
ATOM     16  C   UNL     1       2.446   6.142  20.093  0.00  0.00    +0.000 C 
ENDBRANCH   6  15
BRANCH   1  17
ATOM     17  C   UNL     1       4.396   2.423  20.616  0.00  0.00    +0.000 C 
BRANCH  17  19
ATOM     18  C   UNL     1       5.667   0.653  21.662  0.00  0.00    +0.000 C 
ATOM     19  N   UNL     1       5.327   1.302  20.405  0.00  0.00    +0.000 NA
ATOM     20  H   UNL     1       4.903   0.613  19.788  0.00  0.00    +0.000 HD
ENDBRANCH  17  19
ENDBRANCH   1  17
TORSDOF 5
ENDMDL
MODEL 4
REMARK VINA RESULT:      -6.5      1.190      1.972
REMARK  Name = 
REMARK  8 active torsions:
REMARK  status: ('A' for Active; 'I' for Inactive)
REMARK    1  A    between atoms: C_1  and  N_2
REMARK    2  A    between atoms: N_2  and  C_3
REMARK    3  A    between atoms: C_3  and  C_4
REMARK    4  A    between atoms: C_9  and  O_10
REMARK    5  A    between atoms: C_9  and  C_12
REMARK    6  A    between atoms: O_10  and  C_11
REMARK    7  A    between atoms: C_16  and  O_17
REMARK    8  A    between atoms: O_17  and  C_18
REMARK                            x       y       z     vdW  Elec       q    Type
REMARK                         _______ _______ _______ _____ _____    ______ ____
ROOT
ATOM      1  C   UNL     1       2.868   5.356  19.388  0.00  0.00    +0.000 C 
ATOM      2  C   UNL     1       1.767   4.990  20.404  0.00  0.00    +0.000 C 
ATOM      3  C   UNL     1       2.230   3.990  21.455  0.00  0.00    +0.000 C 
ATOM      4  C   UNL     1       2.864   2.743  20.865  0.00  0.00    +0.000 C 
ATOM      5  C   UNL     1       3.943   3.052  19.825  0.00  0.00    +0.000 C 
ATOM      6  C   UNL     1       3.559   4.103  18.743  0.00  0.00    +0.000 C 
ENDROOT
BRANCH   6   7
ATOM      7  C   UNL     1       4.889   4.538  18.043  0.00  0.00    +0.000 A 
ATOM      8  C   UNL     1       5.241   4.055  16.765  0.00  0.00    +0.000 A 
ATOM      9  C   UNL     1       6.401   4.490  16.118  0.00  0.00    +0.000 A 
ATOM     10  C   UNL     1       7.244   5.406  16.739  0.00  0.00    +0.000 A 
ATOM     11  C   UNL     1       6.942   5.886  18.012  0.00  0.00    +0.000 A 
ATOM     12  C   UNL     1       5.776   5.453  18.657  0.00  0.00    +0.000 A 
BRANCH  11  13
ATOM     13  O   UNL     1       7.858   6.772  18.516  0.00  0.00    +0.000 OA
ATOM     14  C   UNL     1       7.977   8.023  17.851  0.00  0.00    +0.000 C 
ENDBRANCH  11  13
ENDBRANCH   6   7
BRANCH   6  15
ATOM     15  O   UNL     1       2.746   3.572  17.678  0.00  0.00    +0.000 OA
ATOM     16  C   UNL     1       2.342   2.222  17.652  0.00  0.00    +0.000 C 
ENDBRANCH   6  15
BRANCH   1  17
ATOM     17  C   UNL     1       2.335   6.341  18.315  0.00  0.00    +0.000 C 
BRANCH  17  19
ATOM     18  C   UNL     1       2.238   8.692  17.760  0.00  0.00    +0.000 C 
ATOM     19  N   UNL     1       2.291   7.716  18.839  0.00  0.00    +0.000 NA
ATOM     20  H   UNL     1       1.470   7.836  19.426  0.00  0.00    +0.000 HD
ENDBRANCH  17  19
ENDBRANCH   1  17
TORSDOF 5
ENDMDL
MODEL 5
REMARK VINA RESULT:      -6.5      2.468      4.932
REMARK  Name = 
REMARK  8 active torsions:
REMARK  status: ('A' for Active; 'I' for Inactive)
REMARK    1  A    between atoms: C_1  and  N_2
REMARK    2  A    between atoms: N_2  and  C_3
REMARK    3  A    between atoms: C_3  and  C_4
REMARK    4  A    between atoms: C_9  and  O_10
REMARK    5  A    between atoms: C_9  and  C_12
REMARK    6  A    between atoms: O_10  and  C_11
REMARK    7  A    between atoms: C_16  and  O_17
REMARK    8  A    between atoms: O_17  and  C_18
REMARK                            x       y       z     vdW  Elec       q    Type
REMARK                         _______ _______ _______ _____ _____    ______ ____
ROOT
ATOM      1  C   UNL     1       3.750   4.307  18.453  0.00  0.00    +0.000 C 
ATOM      2  C   UNL     1       3.951   2.845  18.004  0.00  0.00    +0.000 C 
ATOM      3  C   UNL     1       2.677   2.201  17.476  0.00  0.00    +0.000 C 
ATOM      4  C   UNL     1       1.498   2.322  18.426  0.00  0.00    +0.000 C 
ATOM      5  C   UNL     1       1.276   3.752  18.926  0.00  0.00    +0.000 C 
ATOM      6  C   UNL     1       2.544   4.493  19.440  0.00  0.00    +0.000 C 
ENDROOT
BRANCH   6   7
ATOM      7  C   UNL     1       2.172   6.011  19.535  0.00  0.00    +0.000 A 
ATOM      8  C   UNL     1       1.680   6.575  20.730  0.00  0.00    +0.000 A 
ATOM      9  C   UNL     1       1.403   7.941  20.829  0.00  0.00    +0.000 A 
ATOM     10  C   UNL     1       1.599   8.773  19.731  0.00  0.00    +0.000 A 
ATOM     11  C   UNL     1       2.060   8.247  18.526  0.00  0.00    +0.000 A 
ATOM     12  C   UNL     1       2.342   6.878  18.430  0.00  0.00    +0.000 A 
BRANCH  11  13
ATOM     13  O   UNL     1       2.197   9.168  17.521  0.00  0.00    +0.000 OA
ATOM     14  C   UNL     1       1.979  10.531  17.862  0.00  0.00    +0.000 C 
ENDBRANCH  11  13
ENDBRANCH   6   7
BRANCH   6  15
ATOM     15  O   UNL     1       2.929   4.130  20.780  0.00  0.00    +0.000 OA
ATOM     16  C   UNL     1       2.118   3.312  21.591  0.00  0.00    +0.000 C 
ENDBRANCH   6  15
BRANCH   1  17
ATOM     17  C   UNL     1       5.063   4.903  19.023  0.00  0.00    +0.000 C 
BRANCH  17  19
ATOM     18  C   UNL     1       7.285   5.012  18.075  0.00  0.00    +0.000 C 
ATOM     19  N   UNL     1       6.233   4.134  18.566  0.00  0.00    +0.000 NA
ATOM     20  H   UNL     1       6.603   3.581  19.335  0.00  0.00    +0.000 HD
ENDBRANCH  17  19
ENDBRANCH   1  17
TORSDOF 5
ENDMDL
MODEL 6
REMARK VINA RESULT:      -6.4      2.304      3.958
REMARK  Name = 
REMARK  8 active torsions:
REMARK  status: ('A' for Active; 'I' for Inactive)
REMARK    1  A    between atoms: C_1  and  N_2
REMARK    2  A    between atoms: N_2  and  C_3
REMARK    3  A    between atoms: C_3  and  C_4
REMARK    4  A    between atoms: C_9  and  O_10
REMARK    5  A    between atoms: C_9  and  C_12
REMARK    6  A    between atoms: O_10  and  C_11
REMARK    7  A    between atoms: C_16  and  O_17
REMARK    8  A    between atoms: O_17  and  C_18
REMARK                            x       y       z     vdW  Elec       q    Type
REMARK                         _______ _______ _______ _____ _____    ______ ____
ROOT
ATOM      1  C   UNL     1       3.617   2.803  18.971  0.00  0.00    +0.000 C 
ATOM      2  C   UNL     1       2.302   2.343  19.635  0.00  0.00    +0.000 C 
ATOM      3  C   UNL     1       1.089   2.492  18.727  0.00  0.00    +0.000 C 
ATOM      4  C   UNL     1       0.943   3.882  18.134  0.00  0.00    +0.000 C 
ATOM      5  C   UNL     1       2.232   4.398  17.490  0.00  0.00    +0.000 C 
ATOM      6  C   UNL     1       3.525   4.238  18.341  0.00  0.00    +0.000 C 
ENDROOT
BRANCH   6   7
ATOM      7  C   UNL     1       4.734   4.465  17.374  0.00  0.00    +0.000 A 
ATOM      8  C   UNL     1       4.965   3.617  16.271  0.00  0.00    +0.000 A 
ATOM      9  C   UNL     1       6.012   3.856  15.377  0.00  0.00    +0.000 A 
ATOM     10  C   UNL     1       6.861   4.940  15.571  0.00  0.00    +0.000 A 
ATOM     11  C   UNL     1       6.680   5.786  16.664  0.00  0.00    +0.000 A 
ATOM     12  C   UNL     1       5.627   5.547  17.557  0.00  0.00    +0.000 A 
BRANCH  11  13
ATOM     13  O   UNL     1       7.590   6.806  16.749  0.00  0.00    +0.000 OA
ATOM     14  C   UNL     1       7.848   7.331  18.045  0.00  0.00    +0.000 C 
ENDBRANCH  11  13
ENDBRANCH   6   7
BRANCH   6  15
ATOM     15  O   UNL     1       3.682   5.246  19.359  0.00  0.00    +0.000 OA
ATOM     16  C   UNL     1       2.699   6.228  19.591  0.00  0.00    +0.000 C 
ENDBRANCH   6  15
BRANCH   1  17
ATOM     17  C   UNL     1       4.813   2.674  19.949  0.00  0.00    +0.000 C 
BRANCH  17  19
ATOM     18  C   UNL     1       5.490   0.931  21.482  0.00  0.00    +0.000 C 
ATOM     19  N   UNL     1       5.229   1.268  20.090  0.00  0.00    +0.000 NA
ATOM     20  H   UNL     1       4.497   0.656  19.739  0.00  0.00    +0.000 HD
ENDBRANCH  17  19
ENDBRANCH   1  17
TORSDOF 5
ENDMDL
MODEL 7
REMARK VINA RESULT:      -6.3      1.686      5.256
REMARK  Name = 
REMARK  8 active torsions:
REMARK  status: ('A' for Active; 'I' for Inactive)
REMARK    1  A    between atoms: C_1  and  N_2
REMARK    2  A    between atoms: N_2  and  C_3
REMARK    3  A    between atoms: C_3  and  C_4
REMARK    4  A    between atoms: C_9  and  O_10
REMARK    5  A    between atoms: C_9  and  C_12
REMARK    6  A    between atoms: O_10  and  C_11
REMARK    7  A    between atoms: C_16  and  O_17
REMARK    8  A    between atoms: O_17  and  C_18
REMARK                            x       y       z     vdW  Elec       q    Type
REMARK                         _______ _______ _______ _____ _____    ______ ____
ROOT
ATOM      1  C   UNL     1       4.525   5.765  16.684  0.00  0.00    +0.000 C 
ATOM      2  C   UNL     1       5.435   6.415  15.622  0.00  0.00    +0.000 C 
ATOM      3  C   UNL     1       5.838   5.455  14.511  0.00  0.00    +0.000 C 
ATOM      4  C   UNL     1       6.437   4.156  15.020  0.00  0.00    +0.000 C 
ATOM      5  C   UNL     1       5.586   3.487  16.102  0.00  0.00    +0.000 C 
ATOM      6  C   UNL     1       5.096   4.417  17.249  0.00  0.00    +0.000 C 
ENDROOT
BRANCH   6   7
ATOM      7  C   UNL     1       3.965   3.643  18.006  0.00  0.00    +0.000 A 
ATOM      8  C   UNL     1       2.905   3.024  17.312  0.00  0.00    +0.000 A 
ATOM      9  C   UNL     1       1.927   2.286  17.986  0.00  0.00    +0.000 A 
ATOM     10  C   UNL     1       1.980   2.162  19.371  0.00  0.00    +0.000 A 
ATOM     11  C   UNL     1       2.998   2.781  20.093  0.00  0.00    +0.000 A 
ATOM     12  C   UNL     1       3.979   3.517  19.415  0.00  0.00    +0.000 A 
BRANCH  11  13
ATOM     13  O   UNL     1       2.928   2.593  21.448  0.00  0.00    +0.000 OA
ATOM     14  C   UNL     1       1.632   2.607  22.033  0.00  0.00    +0.000 C 
ENDBRANCH  11  13
ENDBRANCH   6   7
BRANCH   6  15
ATOM     15  O   UNL     1       6.093   4.675  18.257  0.00  0.00    +0.000 OA
ATOM     16  C   UNL     1       7.471   4.656  17.961  0.00  0.00    +0.000 C 
ENDBRANCH   6  15
BRANCH   1  17
ATOM     17  C   UNL     1       4.179   6.768  17.814  0.00  0.00    +0.000 C 
BRANCH  17  19
ATOM     18  C   UNL     1       2.420   6.889  19.469  0.00  0.00    +0.000 C 
ATOM     19  N   UNL     1       2.726   6.818  18.047  0.00  0.00    +0.000 NA
ATOM     20  H   UNL     1       2.331   7.636  17.589  0.00  0.00    +0.000 HD
ENDBRANCH  17  19
ENDBRANCH   1  17
TORSDOF 5
ENDMDL
MODEL 8
REMARK VINA RESULT:      -6.3      2.244      5.209
REMARK  Name = 
REMARK  8 active torsions:
REMARK  status: ('A' for Active; 'I' for Inactive)
REMARK    1  A    between atoms: C_1  and  N_2
REMARK    2  A    between atoms: N_2  and  C_3
REMARK    3  A    between atoms: C_3  and  C_4
REMARK    4  A    between atoms: C_9  and  O_10
REMARK    5  A    between atoms: C_9  and  C_12
REMARK    6  A    between atoms: O_10  and  C_11
REMARK    7  A    between atoms: C_16  and  O_17
REMARK    8  A    between atoms: O_17  and  C_18
REMARK                            x       y       z     vdW  Elec       q    Type
REMARK                         _______ _______ _______ _____ _____    ______ ____
ROOT
ATOM      1  C   UNL     1       6.373   5.373  17.826  0.00  0.00    +0.000 C 
ATOM      2  C   UNL     1       7.410   4.591  16.994  0.00  0.00    +0.000 C 
ATOM      3  C   UNL     1       6.976   4.369  15.552  0.00  0.00    +0.000 C 
ATOM      4  C   UNL     1       5.595   3.750  15.424  0.00  0.00    +0.000 C 
ATOM      5  C   UNL     1       4.534   4.472  16.258  0.00  0.00    +0.000 C 
ATOM      6  C   UNL     1       4.925   4.776  17.733  0.00  0.00    +0.000 C 
ENDROOT
BRANCH   6   7
ATOM      7  C   UNL     1       3.890   5.821  18.269  0.00  0.00    +0.000 A 
ATOM      8  C   UNL     1       3.245   5.649  19.512  0.00  0.00    +0.000 A 
ATOM      9  C   UNL     1       2.365   6.612  20.013  0.00  0.00    +0.000 A 
ATOM     10  C   UNL     1       2.098   7.763  19.278  0.00  0.00    +0.000 A 
ATOM     11  C   UNL     1       2.697   7.955  18.035  0.00  0.00    +0.000 A 
ATOM     12  C   UNL     1       3.583   6.991  17.536  0.00  0.00    +0.000 A 
BRANCH  11  13
ATOM     13  O   UNL     1       2.341   9.120  17.408  0.00  0.00    +0.000 OA
ATOM     14  C   UNL     1       1.526  10.024  18.144  0.00  0.00    +0.000 C 
ENDBRANCH  11  13
ENDBRANCH   6   7
BRANCH   6  15
ATOM     15  O   UNL     1       4.788   3.646  18.618  0.00  0.00    +0.000 OA
ATOM     16  C   UNL     1       3.910   2.582  18.334  0.00  0.00    +0.000 C 
ENDBRANCH   6  15
BRANCH   1  17
ATOM     17  C   UNL     1       6.841   5.534  19.296  0.00  0.00    +0.000 C 
BRANCH  17  19
ATOM     18  C   UNL     1       8.174   7.414  18.562  0.00  0.00    +0.000 C 
ATOM     19  N   UNL     1       8.155   6.197  19.360  0.00  0.00    +0.000 NA
ATOM     20  H   UNL     1       8.373   6.437  20.324  0.00  0.00    +0.000 HD
ENDBRANCH  17  19
ENDBRANCH   1  17
TORSDOF 5
ENDMDL
MODEL 9
REMARK VINA RESULT:      -6.3      1.366      2.180
REMARK  Name = 
REMARK  8 active torsions:
REMARK  status: ('A' for Active; 'I' for Inactive)
REMARK    1  A    between atoms: C_1  and  N_2
REMARK    2  A    between atoms: N_2  and  C_3
REMARK    3  A    between atoms: C_3  and  C_4
REMARK    4  A    between atoms: C_9  and  O_10
REMARK    5  A    between atoms: C_9  and  C_12
REMARK    6  A    between atoms: O_10  and  C_11
REMARK    7  A    between atoms: C_16  and  O_17
REMARK    8  A    between atoms: O_17  and  C_18
REMARK                            x       y       z     vdW  Elec       q    Type
REMARK                         _______ _______ _______ _____ _____    ______ ____
ROOT
ATOM      1  C   UNL     1       3.002   5.102  19.975  0.00  0.00    +0.000 C 
ATOM      2  C   UNL     1       1.990   4.853  21.112  0.00  0.00    +0.000 C 
ATOM      3  C   UNL     1       2.154   3.491  21.772  0.00  0.00    +0.000 C 
ATOM      4  C   UNL     1       2.159   2.337  20.784  0.00  0.00    +0.000 C 
ATOM      5  C   UNL     1       3.125   2.551  19.617  0.00  0.00    +0.000 C 
ATOM      6  C   UNL     1       3.049   3.940  18.921  0.00  0.00    +0.000 C 
ENDROOT
BRANCH   6   7
ATOM      7  C   UNL     1       4.338   4.079  18.044  0.00  0.00    +0.000 A 
ATOM      8  C   UNL     1       4.289   3.967  16.639  0.00  0.00    +0.000 A 
ATOM      9  C   UNL     1       5.432   4.147  15.855  0.00  0.00    +0.000 A 
ATOM     10  C   UNL     1       6.653   4.430  16.458  0.00  0.00    +0.000 A 
ATOM     11  C   UNL     1       6.745   4.523  17.845  0.00  0.00    +0.000 A 
ATOM     12  C   UNL     1       5.598   4.347  18.630  0.00  0.00    +0.000 A 
BRANCH  11  13
ATOM     13  O   UNL     1       8.005   4.792  18.314  0.00  0.00    +0.000 OA
ATOM     14  C   UNL     1       8.125   5.833  19.274  0.00  0.00    +0.000 C 
ENDBRANCH  11  13
ENDBRANCH   6   7
BRANCH   6  15
ATOM     15  O   UNL     1       1.960   4.065  17.985  0.00  0.00    +0.000 OA
ATOM     16  C   UNL     1       0.811   3.254  18.069  0.00  0.00    +0.000 C 
ENDBRANCH   6  15
BRANCH   1  17
ATOM     17  C   UNL     1       2.765   6.482  19.308  0.00  0.00    +0.000 C 
BRANCH  17  19
ATOM     18  C   UNL     1       1.590   8.581  19.547  0.00  0.00    +0.000 C 
ATOM     19  N   UNL     1       2.112   7.414  20.242  0.00  0.00    +0.000 NA
ATOM     20  H   UNL     1       1.343   6.946  20.715  0.00  0.00    +0.000 HD
ENDBRANCH  17  19
ENDBRANCH   1  17
TORSDOF 5
ENDMDL
