MODEL 1
REMARK VINA RESULT:      -8.1      0.000      0.000
REMARK  Name = 
REMARK  11 active torsions:
REMARK  status: ('A' for Active; 'I' for Inactive)
REMARK    1  A    between atoms: C_1  and  C_2
REMARK    2  A    between atoms: C_2  and  C_3
REMARK    3  A    between atoms: C_2  and  C_4
REMARK    4  A    between atoms: C_4  and  N_5
REMARK    5  A    between atoms: C_8  and  N_9
REMARK    6  A    between atoms: N_9  and  C_10
REMARK    7  A    between atoms: C_10  and  C_11
REMARK    8  A    between atoms: C_10  and  C_12
REMARK    9  A    between atoms: C_12  and  C_13
REMARK   10  A    between atoms: C_12  and  C_21
REMARK   11  A    between atoms: C_13  and  C_14
REMARK                            x       y       z     vdW  Elec       q    Type
REMARK                         _______ _______ _______ _____ _____    ______ ____
ROOT
ATOM      1  C   UNL     1       4.722   5.003  16.409  0.00  0.00    +0.000 C 
ATOM      2  C   UNL     1       5.161   3.568  16.736  0.00  0.00    +0.000 C 
ENDROOT
BRANCH   1   3
ATOM      3  N   UNL     1       5.964   5.728  16.158  0.00  0.00    +0.000 N 
ATOM      4  H   UNL     1       6.543   5.356  15.410  0.00  0.00    +0.000 HD
BRANCH   3   8
ATOM      5  N   UNL     1       8.127   9.484  18.038  0.00  0.00    +0.000 N 
ATOM      6  C   UNL     1       7.882   8.103  18.089  0.00  0.00    +0.000 A 
ATOM      7  C   UNL     1       6.996   7.575  17.170  0.00  0.00    +0.000 A 
ATOM      8  C   UNL     1       6.755   6.223  17.187  0.00  0.00    +0.000 A 
ATOM      9  N   UNL     1       7.256   5.443  18.146  0.00  0.00    +0.000 NA
ATOM     10  C   UNL     1       8.081   6.038  19.025  0.00  0.00    +0.000 A 
ATOM     11  N   UNL     1       8.434   7.334  19.034  0.00  0.00    +0.000 NA
ATOM     12  H   UNL     1       8.054   9.813  17.081  0.00  0.00    +0.000 HD
BRANCH   5  13
ATOM     13  C   UNL     1       9.410   9.852  18.624  0.00  0.00    +0.000 C 
BRANCH  13  15
ATOM     14  C   UNL     1      10.835  11.861  19.201  0.00  0.00    +0.000 C 
ATOM     15  C   UNL     1       9.414  11.352  18.950  0.00  0.00    +0.000 C 
ATOM     16  C   UNL     1       8.765  12.128  17.806  0.00  0.00    +0.000 C 
ENDBRANCH  13  15
ENDBRANCH   5  13
ENDBRANCH   3   8
ENDBRANCH   1   3
BRANCH   1  17
ATOM     17  C   UNL     1       3.843   5.642  17.553  0.00  0.00    +0.000 C 
BRANCH  17  18
ATOM     18  C   UNL     1       2.808   4.725  18.223  0.00  0.00    +0.000 A 
ATOM     19  C   UNL     1       1.631   4.341  17.544  0.00  0.00    +0.000 A 
ATOM     20  C   UNL     1       0.695   3.483  18.135  0.00  0.00    +0.000 A 
ATOM     21  C   UNL     1       0.888   3.018  19.428  0.00  0.00    +0.000 A 
ATOM     22  C   UNL     1       2.021   3.406  20.124  0.00  0.00    +0.000 A 
ATOM     23 BR   UNL     1       2.310   2.780  21.888  0.00  0.00    +0.000 Br
ATOM     24  C   UNL     1       2.962   4.250  19.533  0.00  0.00    +0.000 A 
ENDBRANCH  17  18
BRANCH  17  25
ATOM     25  C   UNL     1       3.287   7.067  17.228  0.00  0.00    +0.000 C 
BRANCH  25  26
ATOM     26  C   UNL     1       2.526   7.846  18.285  0.00  0.00    +0.000 A 
ATOM     27  C   UNL     1       1.849   9.036  17.984  0.00  0.00    +0.000 A 
ATOM     28  C   UNL     1       1.049   9.668  18.941  0.00  0.00    +0.000 A 
ATOM     29  C   UNL     1       0.921   9.114  20.210  0.00  0.00    +0.000 A 
ATOM     30 CL   UNL     1      -0.132   9.843  21.358  0.00  0.00    +0.000 Cl
ATOM     31  C   UNL     1       1.620   7.958  20.544  0.00  0.00    +0.000 A 
ATOM     32  C   UNL     1       2.420   7.329  19.586  0.00  0.00    +0.000 A 
ENDBRANCH  25  26
ENDBRANCH  17  25
ENDBRANCH   1  17
TORSDOF 8
ENDMDL
MODEL 2
REMARK VINA RESULT:      -8.0      3.812      6.964
REMARK  Name = 
REMARK  11 active torsions:
REMARK  status: ('A' for Active; 'I' for Inactive)
REMARK    1  A    between atoms: C_1  and  C_2
REMARK    2  A    between atoms: C_2  and  C_3
REMARK    3  A    between atoms: C_2  and  C_4
REMARK    4  A    between atoms: C_4  and  N_5
REMARK    5  A    between atoms: C_8  and  N_9
REMARK    6  A    between atoms: N_9  and  C_10
REMARK    7  A    between atoms: C_10  and  C_11
REMARK    8  A    between atoms: C_10  and  C_12
REMARK    9  A    between atoms: C_12  and  C_13
REMARK   10  A    between atoms: C_12  and  C_21
REMARK   11  A    between atoms: C_13  and  C_14
REMARK                            x       y       z     vdW  Elec       q    Type
REMARK                         _______ _______ _______ _____ _____    ______ ____
ROOT
ATOM      1  C   UNL     1       4.847   5.975  17.110  0.00  0.00    +0.000 C 
ATOM      2  C   UNL     1       6.096   6.432  17.879  0.00  0.00    +0.000 C 
ENDROOT
BRANCH   1   3
ATOM      3  N   UNL     1       3.755   6.074  18.073  0.00  0.00    +0.000 N 
ATOM      4  H   UNL     1       3.127   5.276  18.105  0.00  0.00    +0.000 HD
BRANCH   3   8
ATOM      5  N   UNL     1       1.014   8.595  20.980  0.00  0.00    +0.000 N 
ATOM      6  C   UNL     1       1.632   8.486  19.725  0.00  0.00    +0.000 A 
ATOM      7  C   UNL     1       2.452   7.395  19.509  0.00  0.00    +0.000 A 
ATOM      8  C   UNL     1       3.054   7.255  18.282  0.00  0.00    +0.000 A 
ATOM      9  N   UNL     1       2.964   8.210  17.355  0.00  0.00    +0.000 NA
ATOM     10  C   UNL     1       2.177   9.258  17.655  0.00  0.00    +0.000 A 
ATOM     11  N   UNL     1       1.490   9.436  18.794  0.00  0.00    +0.000 NA
ATOM     12  H   UNL     1       0.822   7.671  21.353  0.00  0.00    +0.000 HD
BRANCH   5  13
ATOM     13  C   UNL     1      -0.196   9.407  20.943  0.00  0.00    +0.000 C 
BRANCH  13  15
ATOM     14  C   UNL     1      -1.340  11.403  21.997  0.00  0.00    +0.000 C 
ATOM     15  C   UNL     1      -0.165  10.427  22.090  0.00  0.00    +0.000 C 
ATOM     16  C   UNL     1      -0.188   9.694  23.430  0.00  0.00    +0.000 C 
ENDBRANCH  13  15
ENDBRANCH   5  13
ENDBRANCH   3   8
ENDBRANCH   1   3
BRANCH   1  17
ATOM     17  C   UNL     1       5.012   4.531  16.495  0.00  0.00    +0.000 C 
BRANCH  17  18
ATOM     18  C   UNL     1       5.651   4.443  15.100  0.00  0.00    +0.000 A 
ATOM     19  C   UNL     1       6.957   4.924  14.868  0.00  0.00    +0.000 A 
ATOM     20  C   UNL     1       7.558   4.822  13.607  0.00  0.00    +0.000 A 
ATOM     21  C   UNL     1       6.861   4.277  12.539  0.00  0.00    +0.000 A 
ATOM     22  C   UNL     1       5.566   3.827  12.737  0.00  0.00    +0.000 A 
ATOM     23 BR   UNL     1       4.595   3.073  11.296  0.00  0.00    +0.000 Br
ATOM     24  C   UNL     1       4.969   3.914  13.994  0.00  0.00    +0.000 A 
ENDBRANCH  17  18
BRANCH  17  25
ATOM     25  C   UNL     1       3.762   3.607  16.661  0.00  0.00    +0.000 C 
BRANCH  25  26
ATOM     26  C   UNL     1       3.143   3.405  18.032  0.00  0.00    +0.000 A 
ATOM     27  C   UNL     1       1.763   3.537  18.248  0.00  0.00    +0.000 A 
ATOM     28  C   UNL     1       1.199   3.222  19.488  0.00  0.00    +0.000 A 
ATOM     29  C   UNL     1       2.010   2.772  20.523  0.00  0.00    +0.000 A 
ATOM     30 CL   UNL     1       1.304   2.300  22.018  0.00  0.00    +0.000 Cl
ATOM     31  C   UNL     1       3.386   2.677  20.343  0.00  0.00    +0.000 A 
ATOM     32  C   UNL     1       3.950   2.994  19.104  0.00  0.00    +0.000 A 
ENDBRANCH  25  26
ENDBRANCH  17  25
ENDBRANCH   1  17
TORSDOF 8
ENDMDL
MODEL 3
REMARK VINA RESULT:      -7.9      3.748      6.802
REMARK  Name = 
REMARK  11 active torsions:
REMARK  status: ('A' for Active; 'I' for Inactive)
REMARK    1  A    between atoms: C_1  and  C_2
REMARK    2  A    between atoms: C_2  and  C_3
REMARK    3  A    between atoms: C_2  and  C_4
REMARK    4  A    between atoms: C_4  and  N_5
REMARK    5  A    between atoms: C_8  and  N_9
REMARK    6  A    between atoms: N_9  and  C_10
REMARK    7  A    between atoms: C_10  and  C_11
REMARK    8  A    between atoms: C_10  and  C_12
REMARK    9  A    between atoms: C_12  and  C_13
REMARK   10  A    between atoms: C_12  and  C_21
REMARK   11  A    between atoms: C_13  and  C_14
REMARK                            x       y       z     vdW  Elec       q    Type
REMARK                         _______ _______ _______ _____ _____    ______ ____
ROOT
ATOM      1  C   UNL     1       4.691   6.100  17.009  0.00  0.00    +0.000 C 
ATOM      2  C   UNL     1       5.984   6.920  16.883  0.00  0.00    +0.000 C 
ENDROOT
BRANCH   1   3
ATOM      3  N   UNL     1       4.361   6.136  18.430  0.00  0.00    +0.000 N 
ATOM      4  H   UNL     1       4.472   5.255  18.927  0.00  0.00    +0.000 HD
BRANCH   3   8
ATOM      5  N   UNL     1       1.448   9.816  17.893  0.00  0.00    +0.000 N 
ATOM      6  C   UNL     1       1.849   8.721  18.672  0.00  0.00    +0.000 A 
ATOM      7  C   UNL     1       2.845   7.906  18.168  0.00  0.00    +0.000 A 
ATOM      8  C   UNL     1       3.268   6.838  18.921  0.00  0.00    +0.000 A 
ATOM      9  N   UNL     1       2.651   6.505  20.056  0.00  0.00    +0.000 NA
ATOM     10  C   UNL     1       1.667   7.327  20.462  0.00  0.00    +0.000 A 
ATOM     11  N   UNL     1       1.244   8.433  19.831  0.00  0.00    +0.000 NA
ATOM     12  H   UNL     1       2.235  10.165  17.356  0.00  0.00    +0.000 HD
BRANCH   5  13
ATOM     13  C   UNL     1       0.840  10.879  18.684  0.00  0.00    +0.000 C 
BRANCH  13  15
ATOM     14  C   UNL     1      -1.611  10.251  18.650  0.00  0.00    +0.000 C 
ATOM     15  C   UNL     1      -0.547  11.213  18.116  0.00  0.00    +0.000 C 
ATOM     16  C   UNL     1      -0.911  12.654  18.464  0.00  0.00    +0.000 C 
ENDBRANCH  13  15
ENDBRANCH   5  13
ENDBRANCH   3   8
ENDBRANCH   1   3
BRANCH   1  17
ATOM     17  C   UNL     1       4.846   4.637  16.438  0.00  0.00    +0.000 C 
BRANCH  17  18
ATOM     18  C   UNL     1       5.579   4.494  15.095  0.00  0.00    +0.000 A 
ATOM     19  C   UNL     1       6.880   5.011  14.919  0.00  0.00    +0.000 A 
ATOM     20  C   UNL     1       7.567   4.861  13.707  0.00  0.00    +0.000 A 
ATOM     21  C   UNL     1       6.962   4.228  12.632  0.00  0.00    +0.000 A 
ATOM     22  C   UNL     1       5.674   3.739  12.772  0.00  0.00    +0.000 A 
ATOM     23 BR   UNL     1       4.827   2.866  11.320  0.00  0.00    +0.000 Br
ATOM     24  C   UNL     1       4.991   3.875  13.982  0.00  0.00    +0.000 A 
ENDBRANCH  17  18
BRANCH  17  25
ATOM     25  C   UNL     1       3.554   3.761  16.533  0.00  0.00    +0.000 C 
BRANCH  25  26
ATOM     26  C   UNL     1       3.024   3.334  17.889  0.00  0.00    +0.000 A 
ATOM     27  C   UNL     1       3.874   2.882  18.909  0.00  0.00    +0.000 A 
ATOM     28  C   UNL     1       3.380   2.616  20.189  0.00  0.00    +0.000 A 
ATOM     29  C   UNL     1       2.029   2.801  20.461  0.00  0.00    +0.000 A 
ATOM     30 CL   UNL     1       1.439   2.560  22.058  0.00  0.00    +0.000 Cl
ATOM     31  C   UNL     1       1.160   3.205  19.453  0.00  0.00    +0.000 A 
ATOM     32  C   UNL     1       1.656   3.469  18.172  0.00  0.00    +0.000 A 
ENDBRANCH  25  26
ENDBRANCH  17  25
ENDBRANCH   1  17
TORSDOF 8
ENDMDL
MODEL 4
REMARK VINA RESULT:      -7.9      4.838      8.122
REMARK  Name = 
REMARK  11 active torsions:
REMARK  status: ('A' for Active; 'I' for Inactive)
REMARK    1  A    between atoms: C_1  and  C_2
REMARK    2  A    between atoms: C_2  and  C_3
REMARK    3  A    between atoms: C_2  and  C_4
REMARK    4  A    between atoms: C_4  and  N_5
REMARK    5  A    between atoms: C_8  and  N_9
REMARK    6  A    between atoms: N_9  and  C_10
REMARK    7  A    between atoms: C_10  and  C_11
REMARK    8  A    between atoms: C_10  and  C_12
REMARK    9  A    between atoms: C_12  and  C_13
REMARK   10  A    between atoms: C_12  and  C_21
REMARK   11  A    between atoms: C_13  and  C_14
REMARK                            x       y       z     vdW  Elec       q    Type
REMARK                         _______ _______ _______ _____ _____    ______ ____
ROOT
ATOM      1  C   UNL     1       0.015   9.663  20.543  0.00  0.00    +0.000 C 
ATOM      2  C   UNL     1      -0.286  10.009  22.009  0.00  0.00    +0.000 C 
ENDROOT
BRANCH   1   3
ATOM      3  N   UNL     1       1.399   9.202  20.542  0.00  0.00    +0.000 N 
ATOM      4  H   UNL     1       2.102   9.931  20.442  0.00  0.00    +0.000 HD
BRANCH   3   8
ATOM      5  N   UNL     1       1.958   4.515  20.736  0.00  0.00    +0.000 N 
ATOM      6  C   UNL     1       2.127   5.704  20.010  0.00  0.00    +0.000 A 
ATOM      7  C   UNL     1       1.628   6.868  20.562  0.00  0.00    +0.000 A 
ATOM      8  C   UNL     1       1.798   8.048  19.880  0.00  0.00    +0.000 A 
ATOM      9  N   UNL     1       2.314   8.067  18.650  0.00  0.00    +0.000 NA
ATOM     10  C   UNL     1       2.744   6.888  18.167  0.00  0.00    +0.000 A 
ATOM     11  N   UNL     1       2.690   5.704  18.796  0.00  0.00    +0.000 NA
ATOM     12  H   UNL     1       1.975   4.712  21.731  0.00  0.00    +0.000 HD
BRANCH   5  13
ATOM     13  C   UNL     1       2.939   3.496  20.385  0.00  0.00    +0.000 C 
BRANCH  13  15
ATOM     14  C   UNL     1       0.778   2.656  19.372  0.00  0.00    +0.000 C 
ATOM     15  C   UNL     1       2.233   2.316  19.703  0.00  0.00    +0.000 C 
ATOM     16  C   UNL     1       2.990   1.928  18.435  0.00  0.00    +0.000 C 
ENDBRANCH  13  15
ENDBRANCH   5  13
ENDBRANCH   3   8
ENDBRANCH   1   3
BRANCH   1  17
ATOM     17  C   UNL     1      -0.243  10.879  19.570  0.00  0.00    +0.000 C 
BRANCH  17  18
ATOM     18  C   UNL     1      -1.443  10.760  18.618  0.00  0.00    +0.000 A 
ATOM     19  C   UNL     1      -1.351  10.015  17.423  0.00  0.00    +0.000 A 
ATOM     20  C   UNL     1      -2.449   9.878  16.563  0.00  0.00    +0.000 A 
ATOM     21  C   UNL     1      -3.650  10.508  16.851  0.00  0.00    +0.000 A 
ATOM     22  C   UNL     1      -3.753  11.269  18.004  0.00  0.00    +0.000 A 
ATOM     23 BR   UNL     1      -5.384  12.136  18.424  0.00  0.00    +0.000 Br
ATOM     24  C   UNL     1      -2.667  11.398  18.870  0.00  0.00    +0.000 A 
ENDBRANCH  17  18
BRANCH  17  25
ATOM     25  C   UNL     1       1.041  11.441  18.877  0.00  0.00    +0.000 C 
BRANCH  25  26
ATOM     26  C   UNL     1       1.252  12.939  18.767  0.00  0.00    +0.000 A 
ATOM     27  C   UNL     1       0.183  13.845  18.828  0.00  0.00    +0.000 A 
ATOM     28  C   UNL     1       0.411  15.224  18.854  0.00  0.00    +0.000 A 
ATOM     29  C   UNL     1       1.713  15.709  18.819  0.00  0.00    +0.000 A 
ATOM     30 CL   UNL     1       1.997  17.402  18.940  0.00  0.00    +0.000 Cl
ATOM     31  C   UNL     1       2.786  14.831  18.712  0.00  0.00    +0.000 A 
ATOM     32  C   UNL     1       2.556  13.452  18.685  0.00  0.00    +0.000 A 
ENDBRANCH  25  26
ENDBRANCH  17  25
ENDBRANCH   1  17
TORSDOF 8
ENDMDL
MODEL 5
REMARK VINA RESULT:      -7.9      5.185      8.538
REMARK  Name = 
REMARK  11 active torsions:
REMARK  status: ('A' for Active; 'I' for Inactive)
REMARK    1  A    between atoms: C_1  and  C_2
REMARK    2  A    between atoms: C_2  and  C_3
REMARK    3  A    between atoms: C_2  and  C_4
REMARK    4  A    between atoms: C_4  and  N_5
REMARK    5  A    between atoms: C_8  and  N_9
REMARK    6  A    between atoms: N_9  and  C_10
REMARK    7  A    between atoms: C_10  and  C_11
REMARK    8  A    between atoms: C_10  and  C_12
REMARK    9  A    between atoms: C_12  and  C_13
REMARK   10  A    between atoms: C_12  and  C_21
REMARK   11  A    between atoms: C_13  and  C_14
REMARK                            x       y       z     vdW  Elec       q    Type
REMARK                         _______ _______ _______ _____ _____    ______ ____
ROOT
ATOM      1  C   UNL     1      -0.490  10.339  20.812  0.00  0.00    +0.000 C 
ATOM      2  C   UNL     1      -0.634  10.575  22.323  0.00  0.00    +0.000 C 
ENDROOT
BRANCH   1   3
ATOM      3  N   UNL     1       0.933  10.094  20.604  0.00  0.00    +0.000 N 
ATOM      4  H   UNL     1       1.491  10.916  20.386  0.00  0.00    +0.000 HD
BRANCH   3   8
ATOM      5  N   UNL     1       2.166   5.537  20.767  0.00  0.00    +0.000 N 
ATOM      6  C   UNL     1       2.072   6.716  20.014  0.00  0.00    +0.000 A 
ATOM      7  C   UNL     1       1.488   7.815  20.616  0.00  0.00    +0.000 A 
ATOM      8  C   UNL     1       1.403   8.988  19.907  0.00  0.00    +0.000 A 
ATOM      9  N   UNL     1       1.751   9.045  18.620  0.00  0.00    +0.000 NA
ATOM     10  C   UNL     1       2.277   7.925  18.096  0.00  0.00    +0.000 A 
ATOM     11  N   UNL     1       2.471   6.761  18.738  0.00  0.00    +0.000 NA
ATOM     12  H   UNL     1       2.281   5.761  21.750  0.00  0.00    +0.000 HD
BRANCH   5  13
ATOM     13  C   UNL     1       3.228   4.653  20.301  0.00  0.00    +0.000 C 
BRANCH  13  15
ATOM     14  C   UNL     1       1.238   3.132  20.661  0.00  0.00    +0.000 C 
ATOM     15  C   UNL     1       2.712   3.208  20.257  0.00  0.00    +0.000 C 
ATOM     16  C   UNL     1       2.908   2.635  18.855  0.00  0.00    +0.000 C 
ENDBRANCH  13  15
ENDBRANCH   5  13
ENDBRANCH   3   8
ENDBRANCH   1   3
BRANCH   1  17
ATOM     17  C   UNL     1      -1.052  11.541  19.957  0.00  0.00    +0.000 C 
BRANCH  17  18
ATOM     18  C   UNL     1      -1.957  11.180  18.769  0.00  0.00    +0.000 A 
ATOM     19  C   UNL     1      -1.511  10.306  17.755  0.00  0.00    +0.000 A 
ATOM     20  C   UNL     1      -2.339   9.949  16.684  0.00  0.00    +0.000 A 
ATOM     21  C   UNL     1      -3.615  10.483  16.574  0.00  0.00    +0.000 A 
ATOM     22  C   UNL     1      -4.062  11.367  17.542  0.00  0.00    +0.000 A 
ATOM     23 BR   UNL     1      -5.802  12.106  17.419  0.00  0.00    +0.000 Br
ATOM     24  C   UNL     1      -3.245  11.714  18.618  0.00  0.00    +0.000 A 
ENDBRANCH  17  18
BRANCH  17  25
ATOM     25  C   UNL     1       0.002  12.645  19.617  0.00  0.00    +0.000 C 
BRANCH  25  26
ATOM     26  C   UNL     1      -0.398  14.109  19.636  0.00  0.00    +0.000 A 
ATOM     27  C   UNL     1       0.134  15.034  18.726  0.00  0.00    +0.000 A 
ATOM     28  C   UNL     1      -0.343  16.347  18.677  0.00  0.00    +0.000 A 
ATOM     29  C   UNL     1      -1.357  16.747  19.540  0.00  0.00    +0.000 A 
ATOM     30 CL   UNL     1      -2.004  18.336  19.419  0.00  0.00    +0.000 Cl
ATOM     31  C   UNL     1      -1.868  15.858  20.481  0.00  0.00    +0.000 A 
ATOM     32  C   UNL     1      -1.389  14.546  20.529  0.00  0.00    +0.000 A 
ENDBRANCH  25  26
ENDBRANCH  17  25
ENDBRANCH   1  17
TORSDOF 8
ENDMDL
MODEL 6
REMARK VINA RESULT:      -7.8      6.315     10.464
REMARK  Name = 
REMARK  11 active torsions:
REMARK  status: ('A' for Active; 'I' for Inactive)
REMARK    1  A    between atoms: C_1  and  C_2
REMARK    2  A    between atoms: C_2  and  C_3
REMARK    3  A    between atoms: C_2  and  C_4
REMARK    4  A    between atoms: C_4  and  N_5
REMARK    5  A    between atoms: C_8  and  N_9
REMARK    6  A    between atoms: N_9  and  C_10
REMARK    7  A    between atoms: C_10  and  C_11
REMARK    8  A    between atoms: C_10  and  C_12
REMARK    9  A    between atoms: C_12  and  C_13
REMARK   10  A    between atoms: C_12  and  C_21
REMARK   11  A    between atoms: C_13  and  C_14
REMARK                            x       y       z     vdW  Elec       q    Type
REMARK                         _______ _______ _______ _____ _____    ______ ____
ROOT
ATOM      1  C   UNL     1      -0.382  10.608  19.375  0.00  0.00    +0.000 C 
ATOM      2  C   UNL     1      -0.534   9.878  20.718  0.00  0.00    +0.000 C 
ENDROOT
BRANCH   1   3
ATOM      3  N   UNL     1      -1.071   9.760  18.407  0.00  0.00    +0.000 N 
ATOM      4  H   UNL     1      -0.480   9.105  17.901  0.00  0.00    +0.000 HD
BRANCH   3   8
ATOM      5  N   UNL     1      -4.911  12.485  18.025  0.00  0.00    +0.000 N 
ATOM      6  C   UNL     1      -4.040  11.567  17.420  0.00  0.00    +0.000 A 
ATOM      7  C   UNL     1      -2.939  11.154  18.147  0.00  0.00    +0.000 A 
ATOM      8  C   UNL     1      -2.081  10.241  17.585  0.00  0.00    +0.000 A 
ATOM      9  N   UNL     1      -2.221   9.851  16.316  0.00  0.00    +0.000 NA
ATOM     10  C   UNL     1      -3.297  10.325  15.664  0.00  0.00    +0.000 A 
ATOM     11  N   UNL     1      -4.227  11.155  16.161  0.00  0.00    +0.000 NA
ATOM     12  H   UNL     1      -4.930  12.335  19.029  0.00  0.00    +0.000 HD
BRANCH   5  13
ATOM     13  C   UNL     1      -6.255  12.441  17.463  0.00  0.00    +0.000 C 
BRANCH  13  15
ATOM     14  C   UNL     1      -6.906  10.414  18.830  0.00  0.00    +0.000 C 
ATOM     15  C   UNL     1      -7.230  11.873  18.504  0.00  0.00    +0.000 C 
ATOM     16  C   UNL     1      -7.181  12.725  19.771  0.00  0.00    +0.000 C 
ENDBRANCH  13  15
ENDBRANCH   5  13
ENDBRANCH   3   8
ENDBRANCH   1   3
BRANCH   1  17
ATOM     17  C   UNL     1       1.127  10.884  19.005  0.00  0.00    +0.000 C 
BRANCH  17  18
ATOM     18  C   UNL     1       1.528  12.351  18.790  0.00  0.00    +0.000 A 
ATOM     19  C   UNL     1       2.821  12.692  18.338  0.00  0.00    +0.000 A 
ATOM     20  C   UNL     1       3.187  14.025  18.112  0.00  0.00    +0.000 A 
ATOM     21  C   UNL     1       2.291  15.052  18.368  0.00  0.00    +0.000 A 
ATOM     22  C   UNL     1       1.026  14.742  18.842  0.00  0.00    +0.000 A 
ATOM     23 BR   UNL     1      -0.218  16.126  19.195  0.00  0.00    +0.000 Br
ATOM     24  C   UNL     1       0.654  13.415  19.055  0.00  0.00    +0.000 A 
ENDBRANCH  17  18
BRANCH  17  25
ATOM     25  C   UNL     1       1.720   9.917  17.928  0.00  0.00    +0.000 C 
BRANCH  25  26
ATOM     26  C   UNL     1       2.322   8.589  18.347  0.00  0.00    +0.000 A 
ATOM     27  C   UNL     1       1.943   7.945  19.534  0.00  0.00    +0.000 A 
ATOM     28  C   UNL     1       2.413   6.664  19.837  0.00  0.00    +0.000 A 
ATOM     29  C   UNL     1       3.269   6.016  18.954  0.00  0.00    +0.000 A 
ATOM     30 CL   UNL     1       3.776   4.405  19.284  0.00  0.00    +0.000 Cl
ATOM     31  C   UNL     1       3.694   6.654  17.793  0.00  0.00    +0.000 A 
ATOM     32  C   UNL     1       3.223   7.936  17.493  0.00  0.00    +0.000 A 
ENDBRANCH  25  26
ENDBRANCH  17  25
ENDBRANCH   1  17
TORSDOF 8
ENDMDL
MODEL 7
REMARK VINA RESULT:      -7.7      4.147      6.182
REMARK  Name = 
REMARK  11 active torsions:
REMARK  status: ('A' for Active; 'I' for Inactive)
REMARK    1  A    between atoms: C_1  and  C_2
REMARK    2  A    between atoms: C_2  and  C_3
REMARK    3  A    between atoms: C_2  and  C_4
REMARK    4  A    between atoms: C_4  and  N_5
REMARK    5  A    between atoms: C_8  and  N_9
REMARK    6  A    between atoms: N_9  and  C_10
REMARK    7  A    between atoms: C_10  and  C_11
REMARK    8  A    between atoms: C_10  and  C_12
REMARK    9  A    between atoms: C_12  and  C_13
REMARK   10  A    between atoms: C_12  and  C_21
REMARK   11  A    between atoms: C_13  and  C_14
REMARK                            x       y       z     vdW  Elec       q    Type
REMARK                         _______ _______ _______ _____ _____    ______ ____
ROOT
ATOM      1  C   UNL     1       2.483   7.737  18.974  0.00  0.00    +0.000 C 
ATOM      2  C   UNL     1       1.872   7.425  20.348  0.00  0.00    +0.000 C 
ENDROOT
BRANCH   1   3
ATOM      3  N   UNL     1       1.448   8.480  18.262  0.00  0.00    +0.000 N 
ATOM      4  H   UNL     1       1.403   8.316  17.259  0.00  0.00    +0.000 HD
BRANCH   3   8
ATOM      5  N   UNL     1       2.560  13.024  17.604  0.00  0.00    +0.000 N 
ATOM      6  C   UNL     1       1.756  12.080  18.259  0.00  0.00    +0.000 A 
ATOM      7  C   UNL     1       1.914  10.752  17.911  0.00  0.00    +0.000 A 
ATOM      8  C   UNL     1       1.153   9.806  18.552  0.00  0.00    +0.000 A 
ATOM      9  N   UNL     1       0.184  10.156  19.400  0.00  0.00    +0.000 NA
ATOM     10  C   UNL     1       0.069  11.470  19.661  0.00  0.00    +0.000 A 
ATOM     11  N   UNL     1       0.822  12.453  19.141  0.00  0.00    +0.000 NA
ATOM     12  H   UNL     1       3.457  12.612  17.370  0.00  0.00    +0.000 HD
BRANCH   5  13
ATOM     13  C   UNL     1       2.729  14.251  18.373  0.00  0.00    +0.000 C 
BRANCH  13  15
ATOM     14  C   UNL     1       5.006  15.293  18.010  0.00  0.00    +0.000 C 
ATOM     15  C   UNL     1       4.176  14.346  18.878  0.00  0.00    +0.000 C 
ATOM     16  C   UNL     1       4.183  14.813  20.332  0.00  0.00    +0.000 C 
ENDBRANCH  13  15
ENDBRANCH   5  13
ENDBRANCH   3   8
ENDBRANCH   1   3
BRANCH   1  17
ATOM     17  C   UNL     1       2.957   6.437  18.214  0.00  0.00    +0.000 C 
BRANCH  17  18
ATOM     18  C   UNL     1       2.279   5.118  18.615  0.00  0.00    +0.000 A 
ATOM     19  C   UNL     1       1.473   4.408  17.699  0.00  0.00    +0.000 A 
ATOM     20  C   UNL     1       0.873   3.191  18.046  0.00  0.00    +0.000 A 
ATOM     21  C   UNL     1       1.029   2.670  19.322  0.00  0.00    +0.000 A 
ATOM     22  C   UNL     1       1.791   3.365  20.247  0.00  0.00    +0.000 A 
ATOM     23 BR   UNL     1       2.023   2.674  21.995  0.00  0.00    +0.000 Br
ATOM     24  C   UNL     1       2.400   4.572  19.901  0.00  0.00    +0.000 A 
ENDBRANCH  17  18
BRANCH  17  25
ATOM     25  C   UNL     1       4.506   6.309  18.047  0.00  0.00    +0.000 C 
BRANCH  25  26
ATOM     26  C   UNL     1       5.084   5.605  16.834  0.00  0.00    +0.000 A 
ATOM     27  C   UNL     1       5.388   4.236  16.846  0.00  0.00    +0.000 A 
ATOM     28  C   UNL     1       5.798   3.581  15.681  0.00  0.00    +0.000 A 
ATOM     29  C   UNL     1       5.908   4.292  14.491  0.00  0.00    +0.000 A 
ATOM     30 CL   UNL     1       6.326   3.469  13.040  0.00  0.00    +0.000 Cl
ATOM     31  C   UNL     1       5.656   5.660  14.466  0.00  0.00    +0.000 A 
ATOM     32  C   UNL     1       5.247   6.313  15.633  0.00  0.00    +0.000 A 
ENDBRANCH  25  26
ENDBRANCH  17  25
ENDBRANCH   1  17
TORSDOF 8
ENDMDL
MODEL 8
REMARK VINA RESULT:      -7.7      5.241      9.004
REMARK  Name = 
REMARK  11 active torsions:
REMARK  status: ('A' for Active; 'I' for Inactive)
REMARK    1  A    between atoms: C_1  and  C_2
REMARK    2  A    between atoms: C_2  and  C_3
REMARK    3  A    between atoms: C_2  and  C_4
REMARK    4  A    between atoms: C_4  and  N_5
REMARK    5  A    between atoms: C_8  and  N_9
REMARK    6  A    between atoms: N_9  and  C_10
REMARK    7  A    between atoms: C_10  and  C_11
REMARK    8  A    between atoms: C_10  and  C_12
REMARK    9  A    between atoms: C_12  and  C_13
REMARK   10  A    between atoms: C_12  and  C_21
REMARK   11  A    between atoms: C_13  and  C_14
REMARK                            x       y       z     vdW  Elec       q    Type
REMARK                         _______ _______ _______ _____ _____    ______ ____
ROOT
ATOM      1  C   UNL     1      -0.428  10.571  21.723  0.00  0.00    +0.000 C 
ATOM      2  C   UNL     1      -0.738  10.048  23.134  0.00  0.00    +0.000 C 
ENDROOT
BRANCH   1   3
ATOM      3  N   UNL     1       0.962  10.198  21.481  0.00  0.00    +0.000 N 
ATOM      4  H   UNL     1       1.620  10.972  21.429  0.00  0.00    +0.000 HD
BRANCH   3   8
ATOM      5  N   UNL     1       1.926   5.618  20.838  0.00  0.00    +0.000 N 
ATOM      6  C   UNL     1       1.853   6.906  20.288  0.00  0.00    +0.000 A 
ATOM      7  C   UNL     1       1.378   7.922  21.096  0.00  0.00    +0.000 A 
ATOM      8  C   UNL     1       1.316   9.196  20.586  0.00  0.00    +0.000 A 
ATOM      9  N   UNL     1       1.581   9.441  19.302  0.00  0.00    +0.000 NA
ATOM     10  C   UNL     1       2.003   8.394  18.571  0.00  0.00    +0.000 A 
ATOM     11  N   UNL     1       2.168   7.135  19.008  0.00  0.00    +0.000 NA
ATOM     12  H   UNL     1       2.120   5.676  21.832  0.00  0.00    +0.000 HD
BRANCH   5  13
ATOM     13  C   UNL     1       2.899   4.770  20.162  0.00  0.00    +0.000 C 
BRANCH  13  15
ATOM     14  C   UNL     1       1.297   2.948  20.881  0.00  0.00    +0.000 C 
ATOM     15  C   UNL     1       2.242   3.435  19.781  0.00  0.00    +0.000 C 
ATOM     16  C   UNL     1       1.486   3.593  18.463  0.00  0.00    +0.000 C 
ENDBRANCH  13  15
ENDBRANCH   5  13
ENDBRANCH   3   8
ENDBRANCH   1   3
BRANCH   1  17
ATOM     17  C   UNL     1      -0.695  12.121  21.582  0.00  0.00    +0.000 C 
BRANCH  17  18
ATOM     18  C   UNL     1      -1.728  12.734  22.541  0.00  0.00    +0.000 A 
ATOM     19  C   UNL     1      -3.083  12.343  22.494  0.00  0.00    +0.000 A 
ATOM     20  C   UNL     1      -4.026  12.876  23.383  0.00  0.00    +0.000 A 
ATOM     21  C   UNL     1      -3.652  13.836  24.311  0.00  0.00    +0.000 A 
ATOM     22  C   UNL     1      -2.333  14.256  24.354  0.00  0.00    +0.000 A 
ATOM     23 BR   UNL     1      -1.795  15.562  25.616  0.00  0.00    +0.000 Br
ATOM     24  C   UNL     1      -1.388  13.718  23.480  0.00  0.00    +0.000 A 
ENDBRANCH  17  18
BRANCH  17  25
ATOM     25  C   UNL     1      -0.845  12.623  20.109  0.00  0.00    +0.000 C 
BRANCH  25  26
ATOM     26  C   UNL     1      -1.623  11.800  19.100  0.00  0.00    +0.000 A 
ATOM     27  C   UNL     1      -3.002  11.973  18.908  0.00  0.00    +0.000 A 
ATOM     28  C   UNL     1      -3.674  11.296  17.886  0.00  0.00    +0.000 A 
ATOM     29  C   UNL     1      -2.972  10.439  17.046  0.00  0.00    +0.000 A 
ATOM     30 CL   UNL     1      -3.781   9.676  15.734  0.00  0.00    +0.000 Cl
ATOM     31  C   UNL     1      -1.613  10.218  17.247  0.00  0.00    +0.000 A 
ATOM     32  C   UNL     1      -0.943  10.895  18.271  0.00  0.00    +0.000 A 
ENDBRANCH  25  26
ENDBRANCH  17  25
ENDBRANCH   1  17
TORSDOF 8
ENDMDL
MODEL 9
REMARK VINA RESULT:      -7.7      4.147      6.495
REMARK  Name = 
REMARK  11 active torsions:
REMARK  status: ('A' for Active; 'I' for Inactive)
REMARK    1  A    between atoms: C_1  and  C_2
REMARK    2  A    between atoms: C_2  and  C_3
REMARK    3  A    between atoms: C_2  and  C_4
REMARK    4  A    between atoms: C_4  and  N_5
REMARK    5  A    between atoms: C_8  and  N_9
REMARK    6  A    between atoms: N_9  and  C_10
REMARK    7  A    between atoms: C_10  and  C_11
REMARK    8  A    between atoms: C_10  and  C_12
REMARK    9  A    between atoms: C_12  and  C_13
REMARK   10  A    between atoms: C_12  and  C_21
REMARK   11  A    between atoms: C_13  and  C_14
REMARK                            x       y       z     vdW  Elec       q    Type
REMARK                         _______ _______ _______ _____ _____    ______ ____
ROOT
ATOM      1  C   UNL     1       4.615   5.962  17.606  0.00  0.00    +0.000 C 
ATOM      2  C   UNL     1       4.763   5.930  19.135  0.00  0.00    +0.000 C 
ENDROOT
BRANCH   1   3
ATOM      3  N   UNL     1       3.266   6.465  17.370  0.00  0.00    +0.000 N 
ATOM      4  H   UNL     1       3.096   6.843  16.441  0.00  0.00    +0.000 HD
BRANCH   3   8
ATOM      5  N   UNL     1       1.109  10.521  18.473  0.00  0.00    +0.000 N 
ATOM      6  C   UNL     1       1.536   9.251  18.887  0.00  0.00    +0.000 A 
ATOM      7  C   UNL     1       2.121   8.432  17.940  0.00  0.00    +0.000 A 
ATOM      8  C   UNL     1       2.566   7.190  18.325  0.00  0.00    +0.000 A 
ATOM      9  N   UNL     1       2.327   6.720  19.551  0.00  0.00    +0.000 NA
ATOM     10  C   UNL     1       1.720   7.563  20.404  0.00  0.00    +0.000 A 
ATOM     11  N   UNL     1       1.326   8.819  20.136  0.00  0.00    +0.000 NA
ATOM     12  H   UNL     1       1.713  10.866  17.735  0.00  0.00    +0.000 HD
BRANCH   5  13
ATOM     13  C   UNL     1       1.026  11.475  19.573  0.00  0.00    +0.000 C 
BRANCH  13  15
ATOM     14  C   UNL     1       2.385  12.981  18.061  0.00  0.00    +0.000 C 
ATOM     15  C   UNL     1       1.205  12.900  19.031  0.00  0.00    +0.000 C 
ATOM     16  C   UNL     1      -0.081  13.352  18.342  0.00  0.00    +0.000 C 
ENDBRANCH  13  15
ENDBRANCH   5  13
ENDBRANCH   3   8
ENDBRANCH   1   3
BRANCH   1  17
ATOM     17  C   UNL     1       4.885   4.555  16.943  0.00  0.00    +0.000 C 
BRANCH  17  18
ATOM     18  C   UNL     1       5.667   4.553  15.621  0.00  0.00    +0.000 A 
ATOM     19  C   UNL     1       6.889   5.249  15.498  0.00  0.00    +0.000 A 
ATOM     20  C   UNL     1       7.622   5.230  14.305  0.00  0.00    +0.000 A 
ATOM     21  C   UNL     1       7.140   4.552  13.195  0.00  0.00    +0.000 A 
ATOM     22  C   UNL     1       5.928   3.888  13.284  0.00  0.00    +0.000 A 
ATOM     23 BR   UNL     1       5.249   2.950  11.784  0.00  0.00    +0.000 Br
ATOM     24  C   UNL     1       5.201   3.894  14.474  0.00  0.00    +0.000 A 
ENDBRANCH  17  18
BRANCH  17  25
ATOM     25  C   UNL     1       3.652   3.594  16.934  0.00  0.00    +0.000 C 
BRANCH  25  26
ATOM     26  C   UNL     1       2.999   3.182  18.240  0.00  0.00    +0.000 A 
ATOM     27  C   UNL     1       3.745   2.679  19.316  0.00  0.00    +0.000 A 
ATOM     28  C   UNL     1       3.142   2.428  20.551  0.00  0.00    +0.000 A 
ATOM     29  C   UNL     1       1.785   2.677  20.722  0.00  0.00    +0.000 A 
ATOM     30 CL   UNL     1       1.063   2.452  22.267  0.00  0.00    +0.000 Cl
ATOM     31  C   UNL     1       1.017   3.134  19.655  0.00  0.00    +0.000 A 
ATOM     32  C   UNL     1       1.621   3.383  18.420  0.00  0.00    +0.000 A 
ENDBRANCH  25  26
ENDBRANCH  17  25
ENDBRANCH   1  17
TORSDOF 8
ENDMDL
