MODEL 1
REMARK VINA RESULT:      -7.9      0.000      0.000
REMARK  Name = 
REMARK  5 active torsions:
REMARK  status: ('A' for Active; 'I' for Inactive)
REMARK    1  A    between atoms: C_1  and  O_2
REMARK    2  A    between atoms: O_2  and  C_3
REMARK    3  A    between atoms: C_9  and  C_10
REMARK    4  A    between atoms: C_16  and  C_17
REMARK    5  A    between atoms: C_19  and  C_20
REMARK                            x       y       z     vdW  Elec       q    Type
REMARK                         _______ _______ _______ _____ _____    ______ ____
ROOT
ATOM      1  C   UNL     1       4.734   4.082  18.697  0.00  0.00    +0.000 C 
ATOM      2  O   UNL     1       4.904   2.945  19.145  0.00  0.00    +0.000 OA
ATOM      3  N   UNL     1       3.815   4.947  19.303  0.00  0.00    +0.000 N 
ATOM      4  C   UNL     1       3.271   4.571  20.609  0.00  0.00    +0.000 C 
ATOM      5  C   UNL     1       1.768   4.827  20.674  0.00  0.00    +0.000 C 
ATOM      6  C   UNL     1       1.441   6.281  20.349  0.00  0.00    +0.000 C 
ATOM      7  C   UNL     1       2.041   6.703  19.004  0.00  0.00    +0.000 C 
ATOM      8  C   UNL     1       3.523   6.315  18.896  0.00  0.00    +0.000 C 
ENDROOT
BRANCH   1  15
ATOM      9  C   UNL     1       6.885   4.672  17.322  0.00  0.00    +0.000 A 
ATOM     10  C   UNL     1       7.457   4.825  16.046  0.00  0.00    +0.000 A 
ATOM     11  C   UNL     1       6.682   4.707  14.895  0.00  0.00    +0.000 A 
ATOM     12 CL   UNL     1       7.433   4.841  13.354  0.00  0.00    +0.000 Cl
ATOM     13  C   UNL     1       5.326   4.445  14.992  0.00  0.00    +0.000 A 
ATOM     14  C   UNL     1       4.746   4.300  16.256  0.00  0.00    +0.000 A 
ATOM     15  C   UNL     1       5.508   4.405  17.447  0.00  0.00    +0.000 A 
BRANCH   9  17
ATOM     16  C   UNL     1       7.894   5.979  19.019  0.00  0.00    +0.000 C 
ATOM     17  O   UNL     1       7.701   4.687  18.428  0.00  0.00    +0.000 OA
ENDBRANCH   9  17
ENDBRANCH   1  15
BRANCH   7  18
ATOM     18  C   UNL     1       1.875   8.174  18.737  0.00  0.00    +0.000 A 
ATOM     19  C   UNL     1       1.273   9.148  19.566  0.00  0.00    +0.000 A 
ATOM     20  C   UNL     1       1.355  10.323  18.857  0.00  0.00    +0.000 A 
ATOM     21  C   UNL     1       0.927  11.704  19.168  0.00  0.00    +0.000 C 
ATOM     22  N   UNL     1       1.975  10.009  17.680  0.00  0.00    +0.000 N 
ATOM     23  N   UNL     1       2.290   8.704  17.579  0.00  0.00    +0.000 NA
ATOM     24  H   UNL     1       2.213  10.619  16.908  0.00  0.00    +0.000 HD
ENDBRANCH   7  18
TORSDOF 3
ENDMDL
MODEL 2
REMARK VINA RESULT:      -7.5      0.952      1.003
REMARK  Name = 
REMARK  5 active torsions:
REMARK  status: ('A' for Active; 'I' for Inactive)
REMARK    1  A    between atoms: C_1  and  O_2
REMARK    2  A    between atoms: O_2  and  C_3
REMARK    3  A    between atoms: C_9  and  C_10
REMARK    4  A    between atoms: C_16  and  C_17
REMARK    5  A    between atoms: C_19  and  C_20
REMARK                            x       y       z     vdW  Elec       q    Type
REMARK                         _______ _______ _______ _____ _____    ______ ____
ROOT
ATOM      1  C   UNL     1       4.712   3.728  18.818  0.00  0.00    +0.000 C 
ATOM      2  O   UNL     1       4.887   2.553  19.151  0.00  0.00    +0.000 OA
ATOM      3  N   UNL     1       3.798   4.528  19.515  0.00  0.00    +0.000 N 
ATOM      4  C   UNL     1       3.266   4.025  20.782  0.00  0.00    +0.000 C 
ATOM      5  C   UNL     1       1.763   4.270  20.886  0.00  0.00    +0.000 C 
ATOM      6  C   UNL     1       1.433   5.749  20.708  0.00  0.00    +0.000 C 
ATOM      7  C   UNL     1       2.020   6.302  19.406  0.00  0.00    +0.000 C 
ATOM      8  C   UNL     1       3.501   5.929  19.248  0.00  0.00    +0.000 C 
ENDROOT
BRANCH   1  15
ATOM      9  C   UNL     1       6.827   4.560  17.514  0.00  0.00    +0.000 A 
ATOM     10  C   UNL     1       7.403   4.822  16.257  0.00  0.00    +0.000 A 
ATOM     11  C   UNL     1       6.657   4.696  15.088  0.00  0.00    +0.000 A 
ATOM     12 CL   UNL     1       7.417   4.965  13.568  0.00  0.00    +0.000 Cl
ATOM     13  C   UNL     1       5.326   4.318  15.147  0.00  0.00    +0.000 A 
ATOM     14  C   UNL     1       4.742   4.065  16.391  0.00  0.00    +0.000 A 
ATOM     15  C   UNL     1       5.474   4.175  17.600  0.00  0.00    +0.000 A 
BRANCH   9  17
ATOM     16  C   UNL     1       7.787   5.885  19.224  0.00  0.00    +0.000 C 
ATOM     17  O   UNL     1       7.622   4.588  18.634  0.00  0.00    +0.000 OA
ENDBRANCH   9  17
ENDBRANCH   1  15
BRANCH   7  18
ATOM     18  C   UNL     1       1.851   7.792  19.287  0.00  0.00    +0.000 A 
ATOM     19  C   UNL     1       2.242   8.631  18.217  0.00  0.00    +0.000 A 
ATOM     20  C   UNL     1       1.887   9.900  18.609  0.00  0.00    +0.000 A 
ATOM     21  C   UNL     1       2.007  11.216  17.944  0.00  0.00    +0.000 C 
ATOM     22  N   UNL     1       1.326   9.768  19.848  0.00  0.00    +0.000 N 
ATOM     23  N   UNL     1       1.304   8.496  20.287  0.00  0.00    +0.000 NA
ATOM     24  H   UNL     1       0.943  10.487  20.449  0.00  0.00    +0.000 HD
ENDBRANCH   7  18
TORSDOF 3
ENDMDL
MODEL 3
REMARK VINA RESULT:      -6.9      3.553      6.300
REMARK  Name = 
REMARK  5 active torsions:
REMARK  status: ('A' for Active; 'I' for Inactive)
REMARK    1  A    between atoms: C_1  and  O_2
REMARK    2  A    between atoms: O_2  and  C_3
REMARK    3  A    between atoms: C_9  and  C_10
REMARK    4  A    between atoms: C_16  and  C_17
REMARK    5  A    between atoms: C_19  and  C_20
REMARK                            x       y       z     vdW  Elec       q    Type
REMARK                         _______ _______ _______ _____ _____    ______ ____
ROOT
ATOM      1  C   UNL     1       3.267   4.923  17.567  0.00  0.00    +0.000 C 
ATOM      2  O   UNL     1       2.673   3.962  17.071  0.00  0.00    +0.000 OA
ATOM      3  N   UNL     1       4.563   5.244  17.144  0.00  0.00    +0.000 N 
ATOM      4  C   UNL     1       5.077   4.591  15.939  0.00  0.00    +0.000 C 
ATOM      5  C   UNL     1       6.521   4.137  16.133  0.00  0.00    +0.000 C 
ATOM      6  C   UNL     1       7.416   5.303  16.541  0.00  0.00    +0.000 C 
ATOM      7  C   UNL     1       6.868   6.025  17.776  0.00  0.00    +0.000 C 
ATOM      8  C   UNL     1       5.375   6.354  17.624  0.00  0.00    +0.000 C 
ENDROOT
BRANCH   1  15
ATOM      9  C   UNL     1       2.119   5.104  19.915  0.00  0.00    +0.000 A 
ATOM     10  C   UNL     1       1.562   5.956  20.887  0.00  0.00    +0.000 A 
ATOM     11  C   UNL     1       1.425   7.321  20.648  0.00  0.00    +0.000 A 
ATOM     12 CL   UNL     1       0.796   8.337  21.886  0.00  0.00    +0.000 Cl
ATOM     13  C   UNL     1       1.829   7.862  19.439  0.00  0.00    +0.000 A 
ATOM     14  C   UNL     1       2.375   7.023  18.463  0.00  0.00    +0.000 A 
ATOM     15  C   UNL     1       2.537   5.630  18.677  0.00  0.00    +0.000 A 
BRANCH   9  17
ATOM     16  C   UNL     1       1.152   3.023  20.498  0.00  0.00    +0.000 C 
ATOM     17  O   UNL     1       2.337   3.784  20.228  0.00  0.00    +0.000 OA
ENDBRANCH   9  17
ENDBRANCH   1  15
BRANCH   7  18
ATOM     18  C   UNL     1       7.638   7.275  18.100  0.00  0.00    +0.000 A 
ATOM     19  C   UNL     1       7.570   8.532  17.456  0.00  0.00    +0.000 A 
ATOM     20  C   UNL     1       8.484   9.322  18.114  0.00  0.00    +0.000 A 
ATOM     21  C   UNL     1       8.884  10.735  17.941  0.00  0.00    +0.000 C 
ATOM     22  N   UNL     1       9.039   8.530  19.080  0.00  0.00    +0.000 N 
ATOM     23  N   UNL     1       8.548   7.276  19.083  0.00  0.00    +0.000 NA
ATOM     24  H   UNL     1       9.746   8.767  19.763  0.00  0.00    +0.000 HD
ENDBRANCH   7  18
TORSDOF 3
ENDMDL
MODEL 4
REMARK VINA RESULT:      -6.8      3.696      6.239
REMARK  Name = 
REMARK  5 active torsions:
REMARK  status: ('A' for Active; 'I' for Inactive)
REMARK    1  A    between atoms: C_1  and  O_2
REMARK    2  A    between atoms: O_2  and  C_3
REMARK    3  A    between atoms: C_9  and  C_10
REMARK    4  A    between atoms: C_16  and  C_17
REMARK    5  A    between atoms: C_19  and  C_20
REMARK                            x       y       z     vdW  Elec       q    Type
REMARK                         _______ _______ _______ _____ _____    ______ ____
ROOT
ATOM      1  C   UNL     1       3.432   3.574  16.800  0.00  0.00    +0.000 C 
ATOM      2  O   UNL     1       2.863   2.803  16.023  0.00  0.00    +0.000 OA
ATOM      3  N   UNL     1       4.531   4.326  16.366  0.00  0.00    +0.000 N 
ATOM      4  C   UNL     1       4.813   4.371  14.930  0.00  0.00    +0.000 C 
ATOM      5  C   UNL     1       6.306   4.215  14.656  0.00  0.00    +0.000 C 
ATOM      6  C   UNL     1       7.116   5.271  15.402  0.00  0.00    +0.000 C 
ATOM      7  C   UNL     1       6.801   5.267  16.900  0.00  0.00    +0.000 C 
ATOM      8  C   UNL     1       5.287   5.284  17.161  0.00  0.00    +0.000 C 
ENDROOT
BRANCH   1  15
ATOM      9  C   UNL     1       2.154   4.561  18.863  0.00  0.00    +0.000 A 
ATOM     10  C   UNL     1       1.643   4.321  20.152  0.00  0.00    +0.000 A 
ATOM     11  C   UNL     1       1.867   3.106  20.795  0.00  0.00    +0.000 A 
ATOM     12 CL   UNL     1       1.171   2.832  22.345  0.00  0.00    +0.000 Cl
ATOM     13  C   UNL     1       2.608   2.115  20.176  0.00  0.00    +0.000 A 
ATOM     14  C   UNL     1       3.128   2.347  18.899  0.00  0.00    +0.000 A 
ATOM     15  C   UNL     1       2.912   3.568  18.212  0.00  0.00    +0.000 A 
BRANCH   9  17
ATOM     16  C   UNL     1       2.469   6.904  18.723  0.00  0.00    +0.000 C 
ATOM     17  O   UNL     1       1.821   5.728  18.217  0.00  0.00    +0.000 OA
ENDBRANCH   9  17
ENDBRANCH   1  15
BRANCH   7  18
ATOM     18  C   UNL     1       7.460   6.405  17.630  0.00  0.00    +0.000 A 
ATOM     19  C   UNL     1       7.560   7.757  17.228  0.00  0.00    +0.000 A 
ATOM     20  C   UNL     1       8.272   8.376  18.228  0.00  0.00    +0.000 A 
ATOM     21  C   UNL     1       8.702   9.778  18.421  0.00  0.00    +0.000 C 
ATOM     22  N   UNL     1       8.558   7.403  19.145  0.00  0.00    +0.000 N 
ATOM     23  N   UNL     1       8.084   6.192  18.797  0.00  0.00    +0.000 NA
ATOM     24  H   UNL     1       9.063   7.485  20.017  0.00  0.00    +0.000 HD
ENDBRANCH   7  18
TORSDOF 3
ENDMDL
MODEL 5
REMARK VINA RESULT:      -6.7      3.701      5.728
REMARK  Name = 
REMARK  5 active torsions:
REMARK  status: ('A' for Active; 'I' for Inactive)
REMARK    1  A    between atoms: C_1  and  O_2
REMARK    2  A    between atoms: O_2  and  C_3
REMARK    3  A    between atoms: C_9  and  C_10
REMARK    4  A    between atoms: C_16  and  C_17
REMARK    5  A    between atoms: C_19  and  C_20
REMARK                            x       y       z     vdW  Elec       q    Type
REMARK                         _______ _______ _______ _____ _____    ______ ____
ROOT
ATOM      1  C   UNL     1       1.519   8.327  20.855  0.00  0.00    +0.000 C 
ATOM      2  O   UNL     1       2.065   8.323  21.961  0.00  0.00    +0.000 OA
ATOM      3  N   UNL     1       0.778   9.440  20.440  0.00  0.00    +0.000 N 
ATOM      4  C   UNL     1       0.887  10.672  21.222  0.00  0.00    +0.000 C 
ATOM      5  C   UNL     1      -0.481  11.315  21.432  0.00  0.00    +0.000 C 
ATOM      6  C   UNL     1      -1.178  11.577  20.100  0.00  0.00    +0.000 C 
ATOM      7  C   UNL     1      -1.262  10.306  19.251  0.00  0.00    +0.000 C 
ATOM      8  C   UNL     1       0.096   9.592  19.162  0.00  0.00    +0.000 C 
ENDROOT
BRANCH   1  15
ATOM      9  C   UNL     1       2.294   6.855  18.831  0.00  0.00    +0.000 A 
ATOM     10  C   UNL     1       2.426   5.555  18.307  0.00  0.00    +0.000 A 
ATOM     11  C   UNL     1       1.934   4.451  18.999  0.00  0.00    +0.000 A 
ATOM     12 CL   UNL     1       2.171   2.875  18.351  0.00  0.00    +0.000 Cl
ATOM     13  C   UNL     1       1.296   4.619  20.215  0.00  0.00    +0.000 A 
ATOM     14  C   UNL     1       1.151   5.906  20.741  0.00  0.00    +0.000 A 
ATOM     15  C   UNL     1       1.648   7.051  20.067  0.00  0.00    +0.000 A 
BRANCH   9  17
ATOM     16  C   UNL     1       4.022   7.551  17.369  0.00  0.00    +0.000 C 
ATOM     17  O   UNL     1       2.888   7.905  18.173  0.00  0.00    +0.000 OA
ENDBRANCH   9  17
ENDBRANCH   1  15
BRANCH   7  18
ATOM     18  C   UNL     1      -1.793  10.571  17.869  0.00  0.00    +0.000 A 
ATOM     19  C   UNL     1      -2.216   9.630  16.902  0.00  0.00    +0.000 A 
ATOM     20  C   UNL     1      -2.585  10.379  15.810  0.00  0.00    +0.000 A 
ATOM     21  C   UNL     1      -3.125  10.005  14.485  0.00  0.00    +0.000 C 
ATOM     22  N   UNL     1      -2.369  11.683  16.158  0.00  0.00    +0.000 N 
ATOM     23  N   UNL     1      -1.876  11.824  17.403  0.00  0.00    +0.000 NA
ATOM     24  H   UNL     1      -2.530  12.518  15.611  0.00  0.00    +0.000 HD
ENDBRANCH   7  18
TORSDOF 3
ENDMDL
MODEL 6
REMARK VINA RESULT:      -6.4      2.441      3.822
REMARK  Name = 
REMARK  5 active torsions:
REMARK  status: ('A' for Active; 'I' for Inactive)
REMARK    1  A    between atoms: C_1  and  O_2
REMARK    2  A    between atoms: O_2  and  C_3
REMARK    3  A    between atoms: C_9  and  C_10
REMARK    4  A    between atoms: C_16  and  C_17
REMARK    5  A    between atoms: C_19  and  C_20
REMARK                            x       y       z     vdW  Elec       q    Type
REMARK                         _______ _______ _______ _____ _____    ______ ____
ROOT
ATOM      1  C   UNL     1       1.899   5.854  20.218  0.00  0.00    +0.000 C 
ATOM      2  O   UNL     1       1.452   4.970  20.953  0.00  0.00    +0.000 OA
ATOM      3  N   UNL     1       1.543   7.192  20.429  0.00  0.00    +0.000 N 
ATOM      4  C   UNL     1       0.858   7.535  21.676  0.00  0.00    +0.000 C 
ATOM      5  C   UNL     1      -0.302   8.494  21.422  0.00  0.00    +0.000 C 
ATOM      6  C   UNL     1       0.172   9.752  20.700  0.00  0.00    +0.000 C 
ATOM      7  C   UNL     1       0.930   9.409  19.414  0.00  0.00    +0.000 C 
ATOM      8  C   UNL     1       2.004   8.338  19.657  0.00  0.00    +0.000 C 
ENDROOT
BRANCH   1  15
ATOM      9  C   UNL     1       2.401   4.486  18.040  0.00  0.00    +0.000 A 
ATOM     10  C   UNL     1       3.296   4.254  16.980  0.00  0.00    +0.000 A 
ATOM     11  C   UNL     1       4.530   4.898  16.931  0.00  0.00    +0.000 A 
ATOM     12 CL   UNL     1       5.568   4.633  15.585  0.00  0.00    +0.000 Cl
ATOM     13  C   UNL     1       4.899   5.775  17.936  0.00  0.00    +0.000 A 
ATOM     14  C   UNL     1       4.021   6.006  18.999  0.00  0.00    +0.000 A 
ATOM     15  C   UNL     1       2.754   5.374  19.076  0.00  0.00    +0.000 A 
BRANCH   9  17
ATOM     16  C   UNL     1       1.071   2.594  18.547  0.00  0.00    +0.000 C 
ATOM     17  O   UNL     1       1.151   3.917  17.998  0.00  0.00    +0.000 OA
ENDBRANCH   9  17
ENDBRANCH   1  15
BRANCH   7  18
ATOM     18  C   UNL     1       1.549  10.619  18.771  0.00  0.00    +0.000 A 
ATOM     19  C   UNL     1       1.480  11.965  19.199  0.00  0.00    +0.000 A 
ATOM     20  C   UNL     1       2.186  12.678  18.259  0.00  0.00    +0.000 A 
ATOM     21  C   UNL     1       2.501  14.117  18.132  0.00  0.00    +0.000 C 
ATOM     22  N   UNL     1       2.625  11.761  17.345  0.00  0.00    +0.000 N 
ATOM     23  N   UNL     1       2.239  10.503  17.629  0.00  0.00    +0.000 NA
ATOM     24  H   UNL     1       3.182  11.913  16.514  0.00  0.00    +0.000 HD
ENDBRANCH   7  18
TORSDOF 3
ENDMDL
MODEL 7
REMARK VINA RESULT:      -6.2      3.868      6.740
REMARK  Name = 
REMARK  5 active torsions:
REMARK  status: ('A' for Active; 'I' for Inactive)
REMARK    1  A    between atoms: C_1  and  O_2
REMARK    2  A    between atoms: O_2  and  C_3
REMARK    3  A    between atoms: C_9  and  C_10
REMARK    4  A    between atoms: C_16  and  C_17
REMARK    5  A    between atoms: C_19  and  C_20
REMARK                            x       y       z     vdW  Elec       q    Type
REMARK                         _______ _______ _______ _____ _____    ______ ____
ROOT
ATOM      1  C   UNL     1       5.229   4.833  19.009  0.00  0.00    +0.000 C 
ATOM      2  O   UNL     1       5.356   5.365  20.115  0.00  0.00    +0.000 OA
ATOM      3  N   UNL     1       6.121   5.142  17.974  0.00  0.00    +0.000 N 
ATOM      4  C   UNL     1       7.335   5.888  18.309  0.00  0.00    +0.000 C 
ATOM      5  C   UNL     1       7.607   6.985  17.283  0.00  0.00    +0.000 C 
ATOM      6  C   UNL     1       7.695   6.411  15.872  0.00  0.00    +0.000 C 
ATOM      7  C   UNL     1       6.450   5.590  15.522  0.00  0.00    +0.000 C 
ATOM      8  C   UNL     1       6.105   4.582  16.629  0.00  0.00    +0.000 C 
ENDROOT
BRANCH   1  15
ATOM      9  C   UNL     1       3.930   2.565  19.187  0.00  0.00    +0.000 A 
ATOM     10  C   UNL     1       2.686   1.915  19.099  0.00  0.00    +0.000 A 
ATOM     11  C   UNL     1       1.544   2.606  18.701  0.00  0.00    +0.000 A 
ATOM     12 CL   UNL     1       0.031   1.788  18.667  0.00  0.00    +0.000 Cl
ATOM     13  C   UNL     1       1.621   3.949  18.374  0.00  0.00    +0.000 A 
ATOM     14  C   UNL     1       2.854   4.602  18.449  0.00  0.00    +0.000 A 
ATOM     15  C   UNL     1       4.034   3.931  18.859  0.00  0.00    +0.000 A 
BRANCH   9  17
ATOM     16  C   UNL     1       4.939   1.581  21.090  0.00  0.00    +0.000 C 
ATOM     17  O   UNL     1       5.010   1.878  19.688  0.00  0.00    +0.000 OA
ENDBRANCH   9  17
ENDBRANCH   1  15
BRANCH   7  18
ATOM     18  C   UNL     1       6.583   4.877  14.204  0.00  0.00    +0.000 A 
ATOM     19  C   UNL     1       5.847   3.764  13.737  0.00  0.00    +0.000 A 
ATOM     20  C   UNL     1       6.367   3.486  12.495  0.00  0.00    +0.000 A 
ATOM     21  C   UNL     1       6.031   2.461  11.484  0.00  0.00    +0.000 C 
ATOM     22  N   UNL     1       7.354   4.408  12.285  0.00  0.00    +0.000 N 
ATOM     23  N   UNL     1       7.512   5.258  13.317  0.00  0.00    +0.000 NA
ATOM     24  H   UNL     1       7.955   4.519  11.479  0.00  0.00    +0.000 HD
ENDBRANCH   7  18
TORSDOF 3
ENDMDL
MODEL 8
REMARK VINA RESULT:      -6.1      7.575     10.516
REMARK  Name = 
REMARK  5 active torsions:
REMARK  status: ('A' for Active; 'I' for Inactive)
REMARK    1  A    between atoms: C_1  and  O_2
REMARK    2  A    between atoms: O_2  and  C_3
REMARK    3  A    between atoms: C_9  and  C_10
REMARK    4  A    between atoms: C_16  and  C_17
REMARK    5  A    between atoms: C_19  and  C_20
REMARK                            x       y       z     vdW  Elec       q    Type
REMARK                         _______ _______ _______ _____ _____    ______ ____
ROOT
ATOM      1  C   UNL     1       0.278  11.882  21.131  0.00  0.00    +0.000 C 
ATOM      2  O   UNL     1       1.430  11.532  21.400  0.00  0.00    +0.000 OA
ATOM      3  N   UNL     1      -0.438  11.229  20.120  0.00  0.00    +0.000 N 
ATOM      4  C   UNL     1       0.105   9.977  19.589  0.00  0.00    +0.000 C 
ATOM      5  C   UNL     1      -0.002   9.933  18.067  0.00  0.00    +0.000 C 
ATOM      6  C   UNL     1      -1.443  10.137  17.609  0.00  0.00    +0.000 C 
ATOM      7  C   UNL     1      -2.040  11.421  18.192  0.00  0.00    +0.000 C 
ATOM      8  C   UNL     1      -1.804  11.520  19.707  0.00  0.00    +0.000 C 
ENDROOT
BRANCH   1  15
ATOM      9  C   UNL     1      -1.237  13.112  22.879  0.00  0.00    +0.000 A 
ATOM     10  C   UNL     1      -1.487  14.305  23.582  0.00  0.00    +0.000 A 
ATOM     11  C   UNL     1      -0.744  15.455  23.327  0.00  0.00    +0.000 A 
ATOM     12 CL   UNL     1      -1.040  16.875  24.253  0.00  0.00    +0.000 Cl
ATOM     13  C   UNL     1       0.251  15.444  22.365  0.00  0.00    +0.000 A 
ATOM     14  C   UNL     1       0.501  14.266  21.654  0.00  0.00    +0.000 A 
ATOM     15  C   UNL     1      -0.230  13.075  21.895  0.00  0.00    +0.000 A 
BRANCH   9  17
ATOM     16  C   UNL     1      -3.268  12.181  23.660  0.00  0.00    +0.000 C 
ATOM     17  O   UNL     1      -1.915  11.971  23.235  0.00  0.00    +0.000 OA
ENDBRANCH   9  17
ENDBRANCH   1  15
BRANCH   7  18
ATOM     18  C   UNL     1      -3.507  11.561  17.892  0.00  0.00    +0.000 A 
ATOM     19  C   UNL     1      -4.554  11.879  18.788  0.00  0.00    +0.000 A 
ATOM     20  C   UNL     1      -5.698  11.858  18.025  0.00  0.00    +0.000 A 
ATOM     21  C   UNL     1      -7.116  12.116  18.353  0.00  0.00    +0.000 C 
ATOM     22  N   UNL     1      -5.299  11.536  16.758  0.00  0.00    +0.000 N 
ATOM     23  N   UNL     1      -3.971  11.339  16.654  0.00  0.00    +0.000 NA
ATOM     24  H   UNL     1      -5.863  11.433  15.924  0.00  0.00    +0.000 HD
ENDBRANCH   7  18
TORSDOF 3
ENDMDL
MODEL 9
REMARK VINA RESULT:      -6.1      4.554      7.364
REMARK  Name = 
REMARK  5 active torsions:
REMARK  status: ('A' for Active; 'I' for Inactive)
REMARK    1  A    between atoms: C_1  and  O_2
REMARK    2  A    between atoms: O_2  and  C_3
REMARK    3  A    between atoms: C_9  and  C_10
REMARK    4  A    between atoms: C_16  and  C_17
REMARK    5  A    between atoms: C_19  and  C_20
REMARK                            x       y       z     vdW  Elec       q    Type
REMARK                         _______ _______ _______ _____ _____    ______ ____
ROOT
ATOM      1  C   UNL     1       0.095  10.621  19.289  0.00  0.00    +0.000 C 
ATOM      2  O   UNL     1      -1.099  10.312  19.240  0.00  0.00    +0.000 OA
ATOM      3  N   UNL     1       0.470  11.968  19.361  0.00  0.00    +0.000 N 
ATOM      4  C   UNL     1      -0.570  12.960  19.642  0.00  0.00    +0.000 C 
ATOM      5  C   UNL     1      -0.418  14.186  18.744  0.00  0.00    +0.000 C 
ATOM      6  C   UNL     1       0.971  14.802  18.883  0.00  0.00    +0.000 C 
ATOM      7  C   UNL     1       2.071  13.766  18.636  0.00  0.00    +0.000 C 
ATOM      8  C   UNL     1       1.831  12.480  19.441  0.00  0.00    +0.000 C 
ENDROOT
BRANCH   1  15
ATOM      9  C   UNL     1       1.332   8.472  20.133  0.00  0.00    +0.000 A 
ATOM     10  C   UNL     1       2.180   7.399  19.802  0.00  0.00    +0.000 A 
ATOM     11  C   UNL     1       2.755   7.305  18.537  0.00  0.00    +0.000 A 
ATOM     12 CL   UNL     1       3.735   5.945  18.154  0.00  0.00    +0.000 Cl
ATOM     13  C   UNL     1       2.505   8.278  17.584  0.00  0.00    +0.000 A 
ATOM     14  C   UNL     1       1.672   9.353  17.906  0.00  0.00    +0.000 A 
ATOM     15  C   UNL     1       1.063   9.475  19.181  0.00  0.00    +0.000 A 
BRANCH   9  17
ATOM     16  C   UNL     1       1.349   9.245  22.371  0.00  0.00    +0.000 C 
ATOM     17  O   UNL     1       0.698   8.473  21.353  0.00  0.00    +0.000 OA
ENDBRANCH   9  17
ENDBRANCH   1  15
BRANCH   7  18
ATOM     18  C   UNL     1       3.445  14.305  18.928  0.00  0.00    +0.000 A 
ATOM     19  C   UNL     1       4.486  14.581  18.011  0.00  0.00    +0.000 A 
ATOM     20  C   UNL     1       5.533  15.028  18.782  0.00  0.00    +0.000 A 
ATOM     21  C   UNL     1       6.895  15.490  18.437  0.00  0.00    +0.000 C 
ATOM     22  N   UNL     1       5.089  14.996  20.074  0.00  0.00    +0.000 N 
ATOM     23  N   UNL     1       3.825  14.548  20.189  0.00  0.00    +0.000 NA
ATOM     24  H   UNL     1       5.581  15.259  20.918  0.00  0.00    +0.000 HD
ENDBRANCH   7  18
TORSDOF 3
ENDMDL
