MODEL 1
REMARK VINA RESULT:      -7.6      0.000      0.000
REMARK  Name = 
REMARK  8 active torsions:
REMARK  status: ('A' for Active; 'I' for Inactive)
REMARK    1  A    between atoms: C_2  and  C_18
REMARK    2  A    between atoms: N_3  and  C_4
REMARK    3  A    between atoms: C_11  and  C_12
REMARK    4  A    between atoms: C_12  and  O_14
REMARK    5  A    between atoms: C_18  and  C_19
REMARK    6  A    between atoms: C_18  and  C_21
REMARK    7  A    between atoms: C_19  and  S_20
REMARK    8  A    between atoms: C_21  and  C_22
REMARK                            x       y       z     vdW  Elec       q    Type
REMARK                         _______ _______ _______ _____ _____    ______ ____
ROOT
ATOM      1  O   UNK A   0       1.033   5.441  20.538  0.00  0.00    +0.000 OA
ATOM      2  C   UNK A   0       2.106   5.963  20.239  0.00  0.00    +0.000 C 
ATOM      3  N   UNK A   1       2.273   7.335  20.194  0.00  0.00    +0.000 N 
ATOM      4  H   UNK A   1       3.211   7.668  20.374  0.00  0.00    +0.000 HD
ENDROOT
BRANCH   3   5
ATOM      5  C   UNK A   1       1.203   8.287  20.552  0.00  0.00    +0.000 C 
ATOM      6  C   UNK A   1       1.297   8.647  22.031  0.00  0.00    +0.000 C 
ATOM      7  C   UNK A   1       0.009   9.207  22.603  0.00  0.00    +0.000 C 
ATOM      8  C   UNK A   2      -0.215  10.648  22.177  0.00  0.00    +0.000 C 
ATOM      9  C   UNK A   2      -0.597  10.762  20.705  0.00  0.00    +0.000 C 
ATOM     10  S   UNK A   2      -1.337  12.399  20.466  0.00  0.00    +0.000 S 
ATOM     11  C   UNK A   2      -0.485  12.752  18.924  0.00  0.00    +0.000 C 
ATOM     12  C   UNK A   2       0.537  11.638  18.693  0.00  0.00    +0.000 C 
ATOM     13  N   UNK A   2       0.501  10.623  19.762  0.00  0.00    +0.000 N 
ATOM     14  C   UNK A   1       1.183   9.441  19.520  0.00  0.00    +0.000 C 
ATOM     15  O   UNK A   1       1.712   9.283  18.408  0.00  0.00    +0.000 OA
BRANCH  12  16
ATOM     16  C   UNK A   2       1.940  12.243  18.530  0.00  0.00    +0.000 C 
ATOM     17  O   UNK A   2       2.486  12.969  19.351  0.00  0.00    +0.000 OA
BRANCH  16  18
ATOM     18  O   UNK A   2       2.555  11.902  17.371  0.00  0.00    +0.000 OA
ATOM     19  H   UNK A   2       2.103  11.147  16.911  0.00  0.00    +0.000 HD
ENDBRANCH  16  18
ENDBRANCH  12  16
ENDBRANCH   3   5
BRANCH   2  20
ATOM     20  C   UNK A   0       3.278   5.108  19.748  0.00  0.00    +0.000 C 
BRANCH  20  21
ATOM     21  C   UNK A   0       2.960   3.612  19.903  0.00  0.00    +0.000 C 
BRANCH  21  22
ATOM     22  S   UNK A   0       2.296   2.794  18.414  0.00  0.00    +0.000 S 
ATOM     23  H   UNK A   0       1.228   2.248  19.018  0.00  0.00    +0.000 HD
ENDBRANCH  21  22
ENDBRANCH  20  21
BRANCH  20  24
ATOM     24  C   UNK A   0       3.790   5.447  18.338  0.00  0.00    +0.000 C 
BRANCH  24  25
ATOM     25  C   UNK A   0       5.231   5.898  18.307  0.00  0.00    +0.000 A 
ATOM     26  C   UNK A   0       6.170   5.368  19.204  0.00  0.00    +0.000 A 
ATOM     27  C   UNK A   0       7.498   5.791  19.169  0.00  0.00    +0.000 A 
ATOM     28  C   UNK A   0       7.903   6.743  18.238  0.00  0.00    +0.000 A 
ATOM     29  C   UNK A   0       6.982   7.274  17.339  0.00  0.00    +0.000 A 
ATOM     30  C   UNK A   0       5.654   6.850  17.369  0.00  0.00    +0.000 A 
ENDBRANCH  24  25
ENDBRANCH  20  24
ENDBRANCH   2  20
TORSDOF 8
ENDMDL
MODEL 2
REMARK VINA RESULT:      -7.3      1.085      1.281
REMARK  Name = 
REMARK  8 active torsions:
REMARK  status: ('A' for Active; 'I' for Inactive)
REMARK    1  A    between atoms: C_2  and  C_18
REMARK    2  A    between atoms: N_3  and  C_4
REMARK    3  A    between atoms: C_11  and  C_12
REMARK    4  A    between atoms: C_12  and  O_14
REMARK    5  A    between atoms: C_18  and  C_19
REMARK    6  A    between atoms: C_18  and  C_21
REMARK    7  A    between atoms: C_19  and  S_20
REMARK    8  A    between atoms: C_21  and  C_22
REMARK                            x       y       z     vdW  Elec       q    Type
REMARK                         _______ _______ _______ _____ _____    ______ ____
ROOT
ATOM      1  O   UNK A   0       1.149   5.597  20.640  0.00  0.00    +0.000 OA
ATOM      2  C   UNK A   0       2.119   6.129  20.103  0.00  0.00    +0.000 C 
ATOM      3  N   UNK A   1       2.205   7.498  19.921  0.00  0.00    +0.000 N 
ATOM      4  H   UNK A   1       3.141   7.878  19.893  0.00  0.00    +0.000 HD
ENDROOT
BRANCH   3   5
ATOM      5  C   UNK A   1       1.173   8.437  20.402  0.00  0.00    +0.000 C 
ATOM      6  C   UNK A   1       1.356   8.697  21.894  0.00  0.00    +0.000 C 
ATOM      7  C   UNK A   1       0.113   9.234  22.575  0.00  0.00    +0.000 C 
ATOM      8  C   UNK A   2      -0.110  10.703  22.259  0.00  0.00    +0.000 C 
ATOM      9  C   UNK A   2      -0.573  10.921  20.822  0.00  0.00    +0.000 C 
ATOM     10  S   UNK A   2      -1.296  12.580  20.734  0.00  0.00    +0.000 S 
ATOM     11  C   UNK A   2      -0.527  13.024  19.173  0.00  0.00    +0.000 C 
ATOM     12  C   UNK A   2       0.460  11.914  18.810  0.00  0.00    +0.000 C 
ATOM     13  N   UNK A   2       0.468  10.830  19.811  0.00  0.00    +0.000 N 
ATOM     14  C   UNK A   1       1.115   9.659  19.452  0.00  0.00    +0.000 C 
ATOM     15  O   UNK A   1       1.577   9.568  18.303  0.00  0.00    +0.000 OA
BRANCH  12  16
ATOM     16  C   UNK A   2       1.862  12.510  18.607  0.00  0.00    +0.000 C 
ATOM     17  O   UNK A   2       2.476  13.152  19.450  0.00  0.00    +0.000 OA
BRANCH  16  18
ATOM     18  O   UNK A   2       2.394  12.263  17.385  0.00  0.00    +0.000 OA
ATOM     19  H   UNK A   2       2.632  11.307  17.263  0.00  0.00    +0.000 HD
ENDBRANCH  16  18
ENDBRANCH  12  16
ENDBRANCH   3   5
BRANCH   2  20
ATOM     20  C   UNK A   0       3.220   5.278  19.464  0.00  0.00    +0.000 C 
BRANCH  20  21
ATOM     21  C   UNK A   0       3.266   3.881  20.104  0.00  0.00    +0.000 C 
BRANCH  21  22
ATOM     22  S   UNK A   0       2.413   2.565  19.172  0.00  0.00    +0.000 S 
ATOM     23  H   UNK A   0       1.175   3.059  19.331  0.00  0.00    +0.000 HD
ENDBRANCH  21  22
ENDBRANCH  20  21
BRANCH  20  24
ATOM     24  C   UNK A   0       3.189   5.210  17.928  0.00  0.00    +0.000 C 
BRANCH  24  25
ATOM     25  C   UNK A   0       4.556   5.098  17.296  0.00  0.00    +0.000 A 
ATOM     26  C   UNK A   0       4.831   4.102  16.350  0.00  0.00    +0.000 A 
ATOM     27  C   UNK A   0       6.097   4.005  15.772  0.00  0.00    +0.000 A 
ATOM     28  C   UNK A   0       7.097   4.905  16.130  0.00  0.00    +0.000 A 
ATOM     29  C   UNK A   0       6.836   5.902  17.066  0.00  0.00    +0.000 A 
ATOM     30  C   UNK A   0       5.570   6.003  17.642  0.00  0.00    +0.000 A 
ENDBRANCH  24  25
ENDBRANCH  20  24
ENDBRANCH   2  20
TORSDOF 8
ENDMDL
MODEL 3
REMARK VINA RESULT:      -7.2      2.549      4.574
REMARK  Name = 
REMARK  8 active torsions:
REMARK  status: ('A' for Active; 'I' for Inactive)
REMARK    1  A    between atoms: C_2  and  C_18
REMARK    2  A    between atoms: N_3  and  C_4
REMARK    3  A    between atoms: C_11  and  C_12
REMARK    4  A    between atoms: C_12  and  O_14
REMARK    5  A    between atoms: C_18  and  C_19
REMARK    6  A    between atoms: C_18  and  C_21
REMARK    7  A    between atoms: C_19  and  S_20
REMARK    8  A    between atoms: C_21  and  C_22
REMARK                            x       y       z     vdW  Elec       q    Type
REMARK                         _______ _______ _______ _____ _____    ______ ____
ROOT
ATOM      1  O   UNK A   0       2.314   9.282  17.066  0.00  0.00    +0.000 OA
ATOM      2  C   UNK A   0       1.950   8.511  17.953  0.00  0.00    +0.000 C 
ATOM      3  N   UNK A   1       1.002   8.864  18.896  0.00  0.00    +0.000 N 
ATOM      4  H   UNK A   1       0.462   8.100  19.281  0.00  0.00    +0.000 HD
ENDROOT
BRANCH   3   5
ATOM      5  C   UNK A   1       0.306  10.166  18.887  0.00  0.00    +0.000 C 
ATOM      6  C   UNK A   1      -1.010  10.051  18.125  0.00  0.00    +0.000 C 
ATOM      7  C   UNK A   1      -1.552  11.383  17.645  0.00  0.00    +0.000 C 
ATOM      8  C   UNK A   2      -2.179  12.176  18.779  0.00  0.00    +0.000 C 
ATOM      9  C   UNK A   2      -1.133  12.733  19.740  0.00  0.00    +0.000 C 
ATOM     10  S   UNK A   2      -1.928  14.054  20.693  0.00  0.00    +0.000 S 
ATOM     11  C   UNK A   2      -1.227  13.573  22.275  0.00  0.00    +0.000 C 
ATOM     12  C   UNK A   2      -0.502  12.241  22.077  0.00  0.00    +0.000 C 
ATOM     13  N   UNK A   2      -0.574  11.775  20.679  0.00  0.00    +0.000 N 
ATOM     14  C   UNK A   1       0.267  10.731  20.329  0.00  0.00    +0.000 C 
ATOM     15  O   UNK A   1       1.068  10.308  21.179  0.00  0.00    +0.000 OA
BRANCH  12  16
ATOM     16  C   UNK A   2      -1.060  11.194  23.054  0.00  0.00    +0.000 C 
ATOM     17  O   UNK A   2      -2.244  11.062  23.335  0.00  0.00    +0.000 OA
BRANCH  16  18
ATOM     18  O   UNK A   2      -0.113  10.393  23.601  0.00  0.00    +0.000 OA
ATOM     19  H   UNK A   2      -0.371   9.435  23.582  0.00  0.00    +0.000 HD
ENDBRANCH  16  18
ENDBRANCH  12  16
ENDBRANCH   3   5
BRANCH   2  20
ATOM     20  C   UNK A   0       2.652   7.164  18.150  0.00  0.00    +0.000 C 
BRANCH  20  21
ATOM     21  C   UNK A   0       4.079   7.208  17.580  0.00  0.00    +0.000 C 
BRANCH  21  22
ATOM     22  S   UNK A   0       4.691   5.637  16.884  0.00  0.00    +0.000 S 
ATOM     23  H   UNK A   0       3.514   4.993  16.930  0.00  0.00    +0.000 HD
ENDBRANCH  21  22
ENDBRANCH  20  21
BRANCH  20  24
ATOM     24  C   UNK A   0       2.620   6.611  19.584  0.00  0.00    +0.000 C 
BRANCH  24  25
ATOM     25  C   UNK A   0       2.059   5.213  19.684  0.00  0.00    +0.000 A 
ATOM     26  C   UNK A   0       1.901   4.588  20.929  0.00  0.00    +0.000 A 
ATOM     27  C   UNK A   0       1.384   3.296  21.012  0.00  0.00    +0.000 A 
ATOM     28  C   UNK A   0       1.016   2.616  19.854  0.00  0.00    +0.000 A 
ATOM     29  C   UNK A   0       1.163   3.226  18.611  0.00  0.00    +0.000 A 
ATOM     30  C   UNK A   0       1.677   4.521  18.526  0.00  0.00    +0.000 A 
ENDBRANCH  24  25
ENDBRANCH  20  24
ENDBRANCH   2  20
TORSDOF 8
ENDMDL
MODEL 4
REMARK VINA RESULT:      -7.0      1.087      1.540
REMARK  Name = 
REMARK  8 active torsions:
REMARK  status: ('A' for Active; 'I' for Inactive)
REMARK    1  A    between atoms: C_2  and  C_18
REMARK    2  A    between atoms: N_3  and  C_4
REMARK    3  A    between atoms: C_11  and  C_12
REMARK    4  A    between atoms: C_12  and  O_14
REMARK    5  A    between atoms: C_18  and  C_19
REMARK    6  A    between atoms: C_18  and  C_21
REMARK    7  A    between atoms: C_19  and  S_20
REMARK    8  A    between atoms: C_21  and  C_22
REMARK                            x       y       z     vdW  Elec       q    Type
REMARK                         _______ _______ _______ _____ _____    ______ ____
ROOT
ATOM      1  O   UNK A   0       1.079   5.443  20.692  0.00  0.00    +0.000 OA
ATOM      2  C   UNK A   0       2.103   5.951  20.235  0.00  0.00    +0.000 C 
ATOM      3  N   UNK A   1       2.242   7.317  20.076  0.00  0.00    +0.000 N 
ATOM      4  H   UNK A   1       3.190   7.669  20.122  0.00  0.00    +0.000 HD
ENDROOT
BRANCH   3   5
ATOM      5  C   UNK A   1       1.206   8.284  20.489  0.00  0.00    +0.000 C 
ATOM      6  C   UNK A   1       1.355   8.609  21.971  0.00  0.00    +0.000 C 
ATOM      7  C   UNK A   1       0.099   9.184  22.596  0.00  0.00    +0.000 C 
ATOM      8  C   UNK A   2      -0.106  10.638  22.210  0.00  0.00    +0.000 C 
ATOM      9  C   UNK A   2      -0.532  10.794  20.753  0.00  0.00    +0.000 C 
ATOM     10  S   UNK A   2      -1.242  12.452  20.574  0.00  0.00    +0.000 S 
ATOM     11  C   UNK A   2      -0.431  12.821  19.013  0.00  0.00    +0.000 C 
ATOM     12  C   UNK A   2       0.557  11.690  18.725  0.00  0.00    +0.000 C 
ATOM     13  N   UNK A   2       0.532  10.652  19.773  0.00  0.00    +0.000 N 
ATOM     14  C   UNK A   1       1.179   9.462  19.483  0.00  0.00    +0.000 C 
ATOM     15  O   UNK A   1       1.669   9.317  18.351  0.00  0.00    +0.000 OA
BRANCH  12  16
ATOM     16  C   UNK A   2       1.967  12.267  18.530  0.00  0.00    +0.000 C 
ATOM     17  O   UNK A   2       2.553  12.969  19.346  0.00  0.00    +0.000 OA
BRANCH  16  18
ATOM     18  O   UNK A   2       2.541  11.932  17.349  0.00  0.00    +0.000 OA
ATOM     19  H   UNK A   2       2.102  11.149  16.924  0.00  0.00    +0.000 HD
ENDBRANCH  16  18
ENDBRANCH  12  16
ENDBRANCH   3   5
BRANCH   2  20
ATOM     20  C   UNK A   0       3.223   5.072  19.671  0.00  0.00    +0.000 C 
BRANCH  20  21
ATOM     21  C   UNK A   0       2.712   4.235  18.487  0.00  0.00    +0.000 C 
BRANCH  21  22
ATOM     22  S   UNK A   0       2.353   2.486  18.862  0.00  0.00    +0.000 S 
ATOM     23  H   UNK A   0       1.044   2.659  19.101  0.00  0.00    +0.000 HD
ENDBRANCH  21  22
ENDBRANCH  20  21
BRANCH  20  24
ATOM     24  C   UNK A   0       4.530   5.810  19.337  0.00  0.00    +0.000 C 
BRANCH  24  25
ATOM     25  C   UNK A   0       4.986   5.622  17.909  0.00  0.00    +0.000 A 
ATOM     26  C   UNK A   0       4.727   6.598  16.937  0.00  0.00    +0.000 A 
ATOM     27  C   UNK A   0       5.150   6.416  15.621  0.00  0.00    +0.000 A 
ATOM     28  C   UNK A   0       5.840   5.261  15.264  0.00  0.00    +0.000 A 
ATOM     29  C   UNK A   0       6.109   4.285  16.220  0.00  0.00    +0.000 A 
ATOM     30  C   UNK A   0       5.689   4.467  17.538  0.00  0.00    +0.000 A 
ENDBRANCH  24  25
ENDBRANCH  20  24
ENDBRANCH   2  20
TORSDOF 8
ENDMDL
MODEL 5
REMARK VINA RESULT:      -7.0      2.594      4.664
REMARK  Name = 
REMARK  8 active torsions:
REMARK  status: ('A' for Active; 'I' for Inactive)
REMARK    1  A    between atoms: C_2  and  C_18
REMARK    2  A    between atoms: N_3  and  C_4
REMARK    3  A    between atoms: C_11  and  C_12
REMARK    4  A    between atoms: C_12  and  O_14
REMARK    5  A    between atoms: C_18  and  C_19
REMARK    6  A    between atoms: C_18  and  C_21
REMARK    7  A    between atoms: C_19  and  S_20
REMARK    8  A    between atoms: C_21  and  C_22
REMARK                            x       y       z     vdW  Elec       q    Type
REMARK                         _______ _______ _______ _____ _____    ______ ____
ROOT
ATOM      1  O   UNK A   0       2.624   9.688  17.348  0.00  0.00    +0.000 OA
ATOM      2  C   UNK A   0       2.044   8.753  17.899  0.00  0.00    +0.000 C 
ATOM      3  N   UNK A   1       0.859   8.924  18.592  0.00  0.00    +0.000 N 
ATOM      4  H   UNK A   1       0.252   8.116  18.627  0.00  0.00    +0.000 HD
ENDROOT
BRANCH   3   5
ATOM      5  C   UNK A   1       0.163  10.223  18.683  0.00  0.00    +0.000 C 
ATOM      6  C   UNK A   1      -1.211  10.126  18.029  0.00  0.00    +0.000 C 
ATOM      7  C   UNK A   1      -1.794  11.471  17.638  0.00  0.00    +0.000 C 
ATOM      8  C   UNK A   2      -2.326  12.224  18.845  0.00  0.00    +0.000 C 
ATOM      9  C   UNK A   2      -1.206  12.754  19.735  0.00  0.00    +0.000 C 
ATOM     10  S   UNK A   2      -1.922  14.040  20.793  0.00  0.00    +0.000 S 
ATOM     11  C   UNK A   2      -1.093  13.511  22.296  0.00  0.00    +0.000 C 
ATOM     12  C   UNK A   2      -0.384  12.189  21.994  0.00  0.00    +0.000 C 
ATOM     13  N   UNK A   2      -0.570  11.769  20.593  0.00  0.00    +0.000 N 
ATOM     14  C   UNK A   1       0.242  10.741  20.141  0.00  0.00    +0.000 C 
ATOM     15  O   UNK A   1       1.110  10.294  20.908  0.00  0.00    +0.000 OA
BRANCH  12  16
ATOM     16  C   UNK A   2      -0.857  11.109  22.979  0.00  0.00    +0.000 C 
ATOM     17  O   UNK A   2      -0.140  10.238  23.458  0.00  0.00    +0.000 OA
BRANCH  16  18
ATOM     18  O   UNK A   2      -2.173  11.191  23.297  0.00  0.00    +0.000 OA
ATOM     19  H   UNK A   2      -2.637  11.914  22.799  0.00  0.00    +0.000 HD
ENDBRANCH  16  18
ENDBRANCH  12  16
ENDBRANCH   3   5
BRANCH   2  20
ATOM     20  C   UNK A   0       2.695   7.369  17.975  0.00  0.00    +0.000 C 
BRANCH  20  21
ATOM     21  C   UNK A   0       4.077   7.381  17.303  0.00  0.00    +0.000 C 
BRANCH  21  22
ATOM     22  S   UNK A   0       5.244   6.109  17.891  0.00  0.00    +0.000 S 
ATOM     23  H   UNK A   0       5.769   5.832  16.687  0.00  0.00    +0.000 HD
ENDBRANCH  21  22
ENDBRANCH  20  21
BRANCH  20  24
ATOM     24  C   UNK A   0       2.740   6.742  19.379  0.00  0.00    +0.000 C 
BRANCH  24  25
ATOM     25  C   UNK A   0       2.098   5.377  19.455  0.00  0.00    +0.000 A 
ATOM     26  C   UNK A   0       1.815   4.649  18.291  0.00  0.00    +0.000 A 
ATOM     27  C   UNK A   0       1.221   3.390  18.371  0.00  0.00    +0.000 A 
ATOM     28  C   UNK A   0       0.907   2.844  19.613  0.00  0.00    +0.000 A 
ATOM     29  C   UNK A   0       1.187   3.554  20.777  0.00  0.00    +0.000 A 
ATOM     30  C   UNK A   0       1.784   4.813  20.700  0.00  0.00    +0.000 A 
ENDBRANCH  24  25
ENDBRANCH  20  24
ENDBRANCH   2  20
TORSDOF 8
ENDMDL
MODEL 6
REMARK VINA RESULT:      -6.7      1.294      1.457
REMARK  Name = 
REMARK  8 active torsions:
REMARK  status: ('A' for Active; 'I' for Inactive)
REMARK    1  A    between atoms: C_2  and  C_18
REMARK    2  A    between atoms: N_3  and  C_4
REMARK    3  A    between atoms: C_11  and  C_12
REMARK    4  A    between atoms: C_12  and  O_14
REMARK    5  A    between atoms: C_18  and  C_19
REMARK    6  A    between atoms: C_18  and  C_21
REMARK    7  A    between atoms: C_19  and  S_20
REMARK    8  A    between atoms: C_21  and  C_22
REMARK                            x       y       z     vdW  Elec       q    Type
REMARK                         _______ _______ _______ _____ _____    ______ ____
ROOT
ATOM      1  O   UNK A   0       1.499   5.889  20.640  0.00  0.00    +0.000 OA
ATOM      2  C   UNK A   0       2.285   6.512  19.928  0.00  0.00    +0.000 C 
ATOM      3  N   UNK A   1       2.144   7.865  19.680  0.00  0.00    +0.000 N 
ATOM      4  H   UNK A   1       3.000   8.365  19.480  0.00  0.00    +0.000 HD
ENDROOT
BRANCH   3   5
ATOM      5  C   UNK A   1       1.079   8.686  20.288  0.00  0.00    +0.000 C 
ATOM      6  C   UNK A   1       1.286   8.777  21.796  0.00  0.00    +0.000 C 
ATOM      7  C   UNK A   1       0.034   9.165  22.559  0.00  0.00    +0.000 C 
ATOM      8  C   UNK A   2      -0.269  10.647  22.425  0.00  0.00    +0.000 C 
ATOM      9  C   UNK A   2      -0.776  11.009  21.033  0.00  0.00    +0.000 C 
ATOM     10  S   UNK A   2      -1.583  12.627  21.157  0.00  0.00    +0.000 S 
ATOM     11  C   UNK A   2      -0.875  13.291  19.646  0.00  0.00    +0.000 C 
ATOM     12  C   UNK A   2       0.157  12.285  19.135  0.00  0.00    +0.000 C 
ATOM     13  N   UNK A   2       0.242  11.092  19.999  0.00  0.00    +0.000 N 
ATOM     14  C   UNK A   1       0.938  10.007  19.491  0.00  0.00    +0.000 C 
ATOM     15  O   UNK A   1       1.376  10.077  18.332  0.00  0.00    +0.000 OA
BRANCH  12  16
ATOM     16  C   UNK A   2       1.522  12.973  18.979  0.00  0.00    +0.000 C 
ATOM     17  O   UNK A   2       2.020  13.303  17.910  0.00  0.00    +0.000 OA
BRANCH  16  18
ATOM     18  O   UNK A   2       2.161  13.200  20.153  0.00  0.00    +0.000 OA
ATOM     19  H   UNK A   2       1.749  12.706  20.909  0.00  0.00    +0.000 HD
ENDBRANCH  16  18
ENDBRANCH  12  16
ENDBRANCH   3   5
BRANCH   2  20
ATOM     20  C   UNK A   0       3.380   5.777  19.149  0.00  0.00    +0.000 C 
BRANCH  20  21
ATOM     21  C   UNK A   0       2.896   4.384  18.716  0.00  0.00    +0.000 C 
BRANCH  21  22
ATOM     22  S   UNK A   0       3.651   2.982  19.606  0.00  0.00    +0.000 S 
ATOM     23  H   UNK A   0       3.191   2.027  18.782  0.00  0.00    +0.000 HD
ENDBRANCH  21  22
ENDBRANCH  20  21
BRANCH  20  24
ATOM     24  C   UNK A   0       3.994   6.565  17.980  0.00  0.00    +0.000 C 
BRANCH  24  25
ATOM     25  C   UNK A   0       5.138   5.851  17.301  0.00  0.00    +0.000 A 
ATOM     26  C   UNK A   0       6.249   5.412  18.034  0.00  0.00    +0.000 A 
ATOM     27  C   UNK A   0       7.302   4.755  17.399  0.00  0.00    +0.000 A 
ATOM     28  C   UNK A   0       7.254   4.525  16.026  0.00  0.00    +0.000 A 
ATOM     29  C   UNK A   0       6.154   4.952  15.286  0.00  0.00    +0.000 A 
ATOM     30  C   UNK A   0       5.098   5.606  15.921  0.00  0.00    +0.000 A 
ENDBRANCH  24  25
ENDBRANCH  20  24
ENDBRANCH   2  20
TORSDOF 8
ENDMDL
MODEL 7
REMARK VINA RESULT:      -6.6      1.812      2.009
REMARK  Name = 
REMARK  8 active torsions:
REMARK  status: ('A' for Active; 'I' for Inactive)
REMARK    1  A    between atoms: C_2  and  C_18
REMARK    2  A    between atoms: N_3  and  C_4
REMARK    3  A    between atoms: C_11  and  C_12
REMARK    4  A    between atoms: C_12  and  O_14
REMARK    5  A    between atoms: C_18  and  C_19
REMARK    6  A    between atoms: C_18  and  C_21
REMARK    7  A    between atoms: C_19  and  S_20
REMARK    8  A    between atoms: C_21  and  C_22
REMARK                            x       y       z     vdW  Elec       q    Type
REMARK                         _______ _______ _______ _____ _____    ______ ____
ROOT
ATOM      1  O   UNK A   0       1.734   5.302  19.147  0.00  0.00    +0.000 OA
ATOM      2  C   UNK A   0       2.737   5.989  18.957  0.00  0.00    +0.000 C 
ATOM      3  N   UNK A   1       2.726   7.365  19.088  0.00  0.00    +0.000 N 
ATOM      4  H   UNK A   1       3.609   7.787  19.344  0.00  0.00    +0.000 HD
ENDROOT
BRANCH   3   5
ATOM      5  C   UNK A   1       1.534   8.121  19.520  0.00  0.00    +0.000 C 
ATOM      6  C   UNK A   1       1.460   8.157  21.042  0.00  0.00    +0.000 C 
ATOM      7  C   UNK A   1       0.075   8.466  21.577  0.00  0.00    +0.000 C 
ATOM      8  C   UNK A   2      -0.263   9.941  21.440  0.00  0.00    +0.000 C 
ATOM      9  C   UNK A   2      -0.525  10.341  19.992  0.00  0.00    +0.000 C 
ATOM     10  S   UNK A   2      -1.411  11.922  20.022  0.00  0.00    +0.000 S 
ATOM     11  C   UNK A   2      -0.471  12.674  18.689  0.00  0.00    +0.000 C 
ATOM     12  C   UNK A   2       0.679  11.728  18.341  0.00  0.00    +0.000 C 
ATOM     13  N   UNK A   2       0.659  10.504  19.165  0.00  0.00    +0.000 N 
ATOM     14  C   UNK A   1       1.481   9.467  18.756  0.00  0.00    +0.000 C 
ATOM     15  O   UNK A   1       2.118   9.601  17.698  0.00  0.00    +0.000 OA
BRANCH  12  16
ATOM     16  C   UNK A   2       2.019  12.471  18.460  0.00  0.00    +0.000 C 
ATOM     17  O   UNK A   2       2.424  13.021  19.477  0.00  0.00    +0.000 OA
BRANCH  16  18
ATOM     18  O   UNK A   2       2.750  12.473  17.319  0.00  0.00    +0.000 OA
ATOM     19  H   UNK A   2       3.035  13.387  17.054  0.00  0.00    +0.000 HD
ENDBRANCH  16  18
ENDBRANCH  12  16
ENDBRANCH   3   5
BRANCH   2  20
ATOM     20  C   UNK A   0       4.020   5.357  18.408  0.00  0.00    +0.000 C 
BRANCH  20  21
ATOM     21  C   UNK A   0       4.757   4.580  19.511  0.00  0.00    +0.000 C 
BRANCH  21  22
ATOM     22  S   UNK A   0       4.315   2.816  19.653  0.00  0.00    +0.000 S 
ATOM     23  H   UNK A   0       4.716   2.673  20.927  0.00  0.00    +0.000 HD
ENDBRANCH  21  22
ENDBRANCH  20  21
BRANCH  20  24
ATOM     24  C   UNK A   0       3.845   4.521  17.130  0.00  0.00    +0.000 C 
BRANCH  24  25
ATOM     25  C   UNK A   0       5.019   4.603  16.184  0.00  0.00    +0.000 A 
ATOM     26  C   UNK A   0       6.264   5.076  16.622  0.00  0.00    +0.000 A 
ATOM     27  C   UNK A   0       7.343   5.150  15.742  0.00  0.00    +0.000 A 
ATOM     28  C   UNK A   0       7.191   4.748  14.417  0.00  0.00    +0.000 A 
ATOM     29  C   UNK A   0       5.962   4.271  13.970  0.00  0.00    +0.000 A 
ATOM     30  C   UNK A   0       4.882   4.194  14.850  0.00  0.00    +0.000 A 
ENDBRANCH  24  25
ENDBRANCH  20  24
ENDBRANCH   2  20
TORSDOF 8
ENDMDL
MODEL 8
REMARK VINA RESULT:      -6.5      1.694      3.342
REMARK  Name = 
REMARK  8 active torsions:
REMARK  status: ('A' for Active; 'I' for Inactive)
REMARK    1  A    between atoms: C_2  and  C_18
REMARK    2  A    between atoms: N_3  and  C_4
REMARK    3  A    between atoms: C_11  and  C_12
REMARK    4  A    between atoms: C_12  and  O_14
REMARK    5  A    between atoms: C_18  and  C_19
REMARK    6  A    between atoms: C_18  and  C_21
REMARK    7  A    between atoms: C_19  and  S_20
REMARK    8  A    between atoms: C_21  and  C_22
REMARK                            x       y       z     vdW  Elec       q    Type
REMARK                         _______ _______ _______ _____ _____    ______ ____
ROOT
ATOM      1  O   UNK A   0       1.398   6.288  17.438  0.00  0.00    +0.000 OA
ATOM      2  C   UNK A   0       2.471   6.512  17.997  0.00  0.00    +0.000 C 
ATOM      3  N   UNK A   1       2.605   7.472  18.983  0.00  0.00    +0.000 N 
ATOM      4  H   UNK A   1       3.337   7.304  19.661  0.00  0.00    +0.000 HD
ENDROOT
BRANCH   3   5
ATOM      5  C   UNK A   1       1.469   8.267  19.488  0.00  0.00    +0.000 C 
ATOM      6  C   UNK A   1       1.460   8.258  21.013  0.00  0.00    +0.000 C 
ATOM      7  C   UNK A   1       0.115   8.614  21.615  0.00  0.00    +0.000 C 
ATOM      8  C   UNK A   2      -0.158  10.106  21.537  0.00  0.00    +0.000 C 
ATOM      9  C   UNK A   2      -0.461  10.564  20.114  0.00  0.00    +0.000 C 
ATOM     10  S   UNK A   2      -1.269  12.182  20.229  0.00  0.00    +0.000 S 
ATOM     11  C   UNK A   2      -0.351  12.932  18.880  0.00  0.00    +0.000 C 
ATOM     12  C   UNK A   2       0.738  11.946  18.455  0.00  0.00    +0.000 C 
ATOM     13  N   UNK A   2       0.694  10.699  19.242  0.00  0.00    +0.000 N 
ATOM     14  C   UNK A   1       1.449   9.638  18.767  0.00  0.00    +0.000 C 
ATOM     15  O   UNK A   1       2.047   9.776  17.688  0.00  0.00    +0.000 OA
BRANCH  12  16
ATOM     16  C   UNK A   2       2.115  12.622  18.538  0.00  0.00    +0.000 C 
ATOM     17  O   UNK A   2       2.575  13.147  19.545  0.00  0.00    +0.000 OA
BRANCH  16  18
ATOM     18  O   UNK A   2       2.814  12.594  17.377  0.00  0.00    +0.000 OA
ATOM     19  H   UNK A   2       3.543  11.920  17.391  0.00  0.00    +0.000 HD
ENDBRANCH  16  18
ENDBRANCH  12  16
ENDBRANCH   3   5
BRANCH   2  20
ATOM     20  C   UNK A   0       3.757   5.836  17.512  0.00  0.00    +0.000 C 
BRANCH  20  21
ATOM     21  C   UNK A   0       4.994   6.584  18.036  0.00  0.00    +0.000 C 
BRANCH  21  22
ATOM     22  S   UNK A   0       6.375   5.525  18.583  0.00  0.00    +0.000 S 
ATOM     23  H   UNK A   0       6.298   4.655  17.563  0.00  0.00    +0.000 HD
ENDBRANCH  21  22
ENDBRANCH  20  21
BRANCH  20  24
ATOM     24  C   UNK A   0       3.843   4.323  17.774  0.00  0.00    +0.000 C 
BRANCH  24  25
ATOM     25  C   UNK A   0       2.887   3.836  18.837  0.00  0.00    +0.000 A 
ATOM     26  C   UNK A   0       1.747   3.096  18.494  0.00  0.00    +0.000 A 
ATOM     27  C   UNK A   0       0.869   2.651  19.481  0.00  0.00    +0.000 A 
ATOM     28  C   UNK A   0       1.123   2.935  20.821  0.00  0.00    +0.000 A 
ATOM     29  C   UNK A   0       2.254   3.665  21.176  0.00  0.00    +0.000 A 
ATOM     30  C   UNK A   0       3.136   4.108  20.189  0.00  0.00    +0.000 A 
ENDBRANCH  24  25
ENDBRANCH  20  24
ENDBRANCH   2  20
TORSDOF 8
ENDMDL
MODEL 9
REMARK VINA RESULT:      -6.5      2.905      3.508
REMARK  Name = 
REMARK  8 active torsions:
REMARK  status: ('A' for Active; 'I' for Inactive)
REMARK    1  A    between atoms: C_2  and  C_18
REMARK    2  A    between atoms: N_3  and  C_4
REMARK    3  A    between atoms: C_11  and  C_12
REMARK    4  A    between atoms: C_12  and  O_14
REMARK    5  A    between atoms: C_18  and  C_19
REMARK    6  A    between atoms: C_18  and  C_21
REMARK    7  A    between atoms: C_19  and  S_20
REMARK    8  A    between atoms: C_21  and  C_22
REMARK                            x       y       z     vdW  Elec       q    Type
REMARK                         _______ _______ _______ _____ _____    ______ ____
ROOT
ATOM      1  O   UNK A   0       3.061   5.150  17.767  0.00  0.00    +0.000 OA
ATOM      2  C   UNK A   0       3.792   6.085  17.443  0.00  0.00    +0.000 C 
ATOM      3  N   UNK A   1       3.499   7.398  17.764  0.00  0.00    +0.000 N 
ATOM      4  H   UNK A   1       4.296   8.013  17.861  0.00  0.00    +0.000 HD
ENDROOT
BRANCH   3   5
ATOM      5  C   UNK A   1       2.321   7.785  18.565  0.00  0.00    +0.000 C 
ATOM      6  C   UNK A   1       2.540   7.419  20.029  0.00  0.00    +0.000 C 
ATOM      7  C   UNK A   1       1.256   7.320  20.830  0.00  0.00    +0.000 C 
ATOM      8  C   UNK A   2       0.698   8.692  21.167  0.00  0.00    +0.000 C 
ATOM      9  C   UNK A   2       0.107   9.390  19.947  0.00  0.00    +0.000 C 
ATOM     10  S   UNK A   2      -0.966  10.720  20.554  0.00  0.00    +0.000 S 
ATOM     11  C   UNK A   2      -0.416  11.946  19.363  0.00  0.00    +0.000 C 
ATOM     12  C   UNK A   2       0.764  11.350  18.594  0.00  0.00    +0.000 C 
ATOM     13  N   UNK A   2       1.073   9.975  19.032  0.00  0.00    +0.000 N 
ATOM     14  C   UNK A   1       1.935   9.247  18.229  0.00  0.00    +0.000 C 
ATOM     15  O   UNK A   1       2.330   9.760  17.169  0.00  0.00    +0.000 OA
BRANCH  12  16
ATOM     16  C   UNK A   2       1.986  12.273  18.716  0.00  0.00    +0.000 C 
ATOM     17  O   UNK A   2       2.389  12.763  19.765  0.00  0.00    +0.000 OA
BRANCH  16  18
ATOM     18  O   UNK A   2       2.613  12.515  17.539  0.00  0.00    +0.000 OA
ATOM     19  H   UNK A   2       3.390  13.124  17.644  0.00  0.00    +0.000 HD
ENDBRANCH  16  18
ENDBRANCH  12  16
ENDBRANCH   3   5
BRANCH   2  20
ATOM     20  C   UNK A   0       4.996   5.851  16.526  0.00  0.00    +0.000 C 
BRANCH  20  21
ATOM     21  C   UNK A   0       6.289   6.353  17.189  0.00  0.00    +0.000 C 
BRANCH  21  22
ATOM     22  S   UNK A   0       6.720   5.553  18.770  0.00  0.00    +0.000 S 
ATOM     23  H   UNK A   0       7.391   6.598  19.279  0.00  0.00    +0.000 HD
ENDBRANCH  21  22
ENDBRANCH  20  21
BRANCH  20  24
ATOM     24  C   UNK A   0       5.141   4.417  15.989  0.00  0.00    +0.000 C 
BRANCH  24  25
ATOM     25  C   UNK A   0       5.812   4.340  14.638  0.00  0.00    +0.000 A 
ATOM     26  C   UNK A   0       7.028   4.996  14.400  0.00  0.00    +0.000 A 
ATOM     27  C   UNK A   0       7.640   4.921  13.150  0.00  0.00    +0.000 A 
ATOM     28  C   UNK A   0       7.048   4.186  12.127  0.00  0.00    +0.000 A 
ATOM     29  C   UNK A   0       5.843   3.524  12.350  0.00  0.00    +0.000 A 
ATOM     30  C   UNK A   0       5.231   3.596  13.602  0.00  0.00    +0.000 A 
ENDBRANCH  24  25
ENDBRANCH  20  24
ENDBRANCH   2  20
TORSDOF 8
ENDMDL
