MODEL 1
REMARK VINA RESULT:      -7.6      0.000      0.000
REMARK  Name = 
REMARK  6 active torsions:
REMARK  status: ('A' for Active; 'I' for Inactive)
REMARK    1  A    between atoms: C_1  and  S_2
REMARK    2  A    between atoms: S_2  and  C_5
REMARK    3  A    between atoms: C_7  and  C_8
REMARK    4  A    between atoms: C_12  and  C_13
REMARK    5  A    between atoms: N_17  and  C_18
REMARK    6  A    between atoms: C_22  and  C_23
REMARK                            x       y       z     vdW  Elec       q    Type
REMARK                         _______ _______ _______ _____ _____    ______ ____
ROOT
ATOM      1  C   UNL     1      -0.932  11.551  21.617  0.00  0.00    +0.000 C 
ATOM      2  N   UNL     1       0.319  11.039  22.183  0.00  0.00    +0.000 N 
ATOM      3  C   UNL     1       0.982   9.918  21.733  0.00  0.00    +0.000 C 
ATOM      4  O   UNL     1       1.772   9.362  22.492  0.00  0.00    +0.000 OA
ATOM      5  N   UNL     1       0.745   9.562  20.389  0.00  0.00    +0.000 N 
ATOM      6  C   UNL     1      -0.166  10.274  19.623  0.00  0.00    +0.000 C 
ATOM      7  C   UNL     1      -0.925  11.219  20.179  0.00  0.00    +0.000 C 
ATOM      8  C   UNL     1      -1.797  11.709  19.115  0.00  0.00    +0.000 C 
ATOM      9  O   UNL     1      -2.550  12.663  19.232  0.00  0.00    +0.000 OA
ATOM     10  C   UNL     1      -1.622  10.939  17.845  0.00  0.00    +0.000 C 
ATOM     11  C   UNL     1      -0.520   9.950  18.201  0.00  0.00    +0.000 C 
ATOM     12  H   UNL     1       0.499  11.224  23.162  0.00  0.00    +0.000 HD
ENDROOT
BRANCH   1  18
ATOM     13  C   UNL     1      -2.335  13.581  22.466  0.00  0.00    +0.000 A 
ATOM     14  C   UNL     1      -2.416  14.959  22.748  0.00  0.00    +0.000 A 
ATOM     15  C   UNL     1      -1.320  15.795  22.525  0.00  0.00    +0.000 A 
ATOM     16  C   UNL     1      -0.140  15.268  22.011  0.00  0.00    +0.000 A 
ATOM     17  C   UNL     1      -0.063  13.912  21.697  0.00  0.00    +0.000 A 
ATOM     18  C   UNL     1      -1.138  13.026  21.943  0.00  0.00    +0.000 A 
BRANCH  13  20
ATOM     19  C   UNL     1      -4.854  13.741  23.826  0.00  0.00    +0.000 C 
ATOM     20  S   UNL     1      -3.794  12.631  22.929  0.00  0.00    +0.000 S 
ATOM     21  O   UNL     1      -3.317  11.635  23.871  0.00  0.00    +0.000 OA
ATOM     22  O   UNL     1      -4.496  12.210  21.732  0.00  0.00    +0.000 OA
ENDBRANCH  13  20
BRANCH  15  23
ATOM     23  C   UNL     1      -1.399  17.188  22.827  0.00  0.00    +0.000 C 
ATOM     24  N   UNL     1      -1.457  18.324  23.071  0.00  0.00    +0.000 NA
ENDBRANCH  15  23
ENDBRANCH   1  18
BRANCH   5  25
ATOM     25  C   UNL     1       1.473   8.458  19.851  0.00  0.00    +0.000 A 
ATOM     26  C   UNL     1       2.171   8.589  18.643  0.00  0.00    +0.000 A 
ATOM     27  C   UNL     1       2.773   7.479  18.053  0.00  0.00    +0.000 A 
ATOM     28  C   UNL     1       2.677   6.230  18.663  0.00  0.00    +0.000 A 
ATOM     29  C   UNL     1       1.997   6.080  19.881  0.00  0.00    +0.000 A 
ATOM     30  C   UNL     1       1.414   7.209  20.482  0.00  0.00    +0.000 A 
BRANCH  29  31
ATOM     31  C   UNL     1       1.861   4.722  20.523  0.00  0.00    +0.000 C 
ATOM     32  F   UNL     1       2.368   4.669  21.788  0.00  0.00    +0.000 F 
ATOM     33  F   UNL     1       0.569   4.308  20.622  0.00  0.00    +0.000 F 
ATOM     34  F   UNL     1       2.516   3.751  19.826  0.00  0.00    +0.000 F 
ENDBRANCH  29  31
ENDBRANCH   5  25
TORSDOF 5
ENDMDL
MODEL 2
REMARK VINA RESULT:      -7.6      1.349      1.411
REMARK  Name = 
REMARK  6 active torsions:
REMARK  status: ('A' for Active; 'I' for Inactive)
REMARK    1  A    between atoms: C_1  and  S_2
REMARK    2  A    between atoms: S_2  and  C_5
REMARK    3  A    between atoms: C_7  and  C_8
REMARK    4  A    between atoms: C_12  and  C_13
REMARK    5  A    between atoms: N_17  and  C_18
REMARK    6  A    between atoms: C_22  and  C_23
REMARK                            x       y       z     vdW  Elec       q    Type
REMARK                         _______ _______ _______ _____ _____    ______ ____
ROOT
ATOM      1  C   UNL     1      -1.522  12.000  20.864  0.00  0.00    +0.000 C 
ATOM      2  N   UNL     1      -0.119  11.907  21.277  0.00  0.00    +0.000 N 
ATOM      3  C   UNL     1       0.739  10.895  20.908  0.00  0.00    +0.000 C 
ATOM      4  O   UNL     1       1.738  10.695  21.596  0.00  0.00    +0.000 OA
ATOM      5  N   UNL     1       0.425  10.228  19.705  0.00  0.00    +0.000 N 
ATOM      6  C   UNL     1      -0.729  10.547  19.005  0.00  0.00    +0.000 C 
ATOM      7  C   UNL     1      -1.623  11.392  19.523  0.00  0.00    +0.000 C 
ATOM      8  C   UNL     1      -2.723  11.447  18.566  0.00  0.00    +0.000 C 
ATOM      9  O   UNL     1      -3.671  12.213  18.655  0.00  0.00    +0.000 OA
ATOM     10  C   UNL     1      -2.528  10.494  17.430  0.00  0.00    +0.000 C 
ATOM     11  C   UNL     1      -1.175   9.871  17.743  0.00  0.00    +0.000 C 
ATOM     12  H   UNL     1       0.136  12.322  22.164  0.00  0.00    +0.000 HD
ENDROOT
BRANCH   1  18
ATOM     13  C   UNL     1      -3.245  13.800  21.641  0.00  0.00    +0.000 A 
ATOM     14  C   UNL     1      -3.636  15.152  21.697  0.00  0.00    +0.000 A 
ATOM     15  C   UNL     1      -2.850  16.143  21.104  0.00  0.00    +0.000 A 
ATOM     16  C   UNL     1      -1.677  15.794  20.444  0.00  0.00    +0.000 A 
ATOM     17  C   UNL     1      -1.302  14.455  20.354  0.00  0.00    +0.000 A 
ATOM     18  C   UNL     1      -2.050  13.426  20.973  0.00  0.00    +0.000 A 
BRANCH  13  20
ATOM     19  C   UNL     1      -5.302  13.680  23.635  0.00  0.00    +0.000 C 
ATOM     20  S   UNL     1      -4.306  12.672  22.563  0.00  0.00    +0.000 S 
ATOM     21  O   UNL     1      -3.406  11.906  23.406  0.00  0.00    +0.000 OA
ATOM     22  O   UNL     1      -5.191  11.983  21.644  0.00  0.00    +0.000 OA
ENDBRANCH  13  20
BRANCH  15  23
ATOM     23  C   UNL     1      -3.239  17.515  21.175  0.00  0.00    +0.000 C 
ATOM     24  N   UNL     1      -3.562  18.631  21.237  0.00  0.00    +0.000 NA
ENDBRANCH  15  23
ENDBRANCH   1  18
BRANCH   5  25
ATOM     25  C   UNL     1       1.331   9.229  19.236  0.00  0.00    +0.000 A 
ATOM     26  C   UNL     1       2.057   9.427  18.056  0.00  0.00    +0.000 A 
ATOM     27  C   UNL     1       2.842   8.403  17.530  0.00  0.00    +0.000 A 
ATOM     28  C   UNL     1       2.901   7.170  18.178  0.00  0.00    +0.000 A 
ATOM     29  C   UNL     1       2.194   6.956  19.371  0.00  0.00    +0.000 A 
ATOM     30  C   UNL     1       1.425   8.003  19.908  0.00  0.00    +0.000 A 
BRANCH  29  31
ATOM     31  C   UNL     1       2.228   5.611  20.052  0.00  0.00    +0.000 C 
ATOM     32  F   UNL     1       1.526   5.581  21.222  0.00  0.00    +0.000 F 
ATOM     33  F   UNL     1       1.714   4.613  19.285  0.00  0.00    +0.000 F 
ATOM     34  F   UNL     1       3.494   5.226  20.376  0.00  0.00    +0.000 F 
ENDBRANCH  29  31
ENDBRANCH   5  25
TORSDOF 5
ENDMDL
MODEL 3
REMARK VINA RESULT:      -7.5      7.497      8.794
REMARK  Name = 
REMARK  6 active torsions:
REMARK  status: ('A' for Active; 'I' for Inactive)
REMARK    1  A    between atoms: C_1  and  S_2
REMARK    2  A    between atoms: S_2  and  C_5
REMARK    3  A    between atoms: C_7  and  C_8
REMARK    4  A    between atoms: C_12  and  C_13
REMARK    5  A    between atoms: N_17  and  C_18
REMARK    6  A    between atoms: C_22  and  C_23
REMARK                            x       y       z     vdW  Elec       q    Type
REMARK                         _______ _______ _______ _____ _____    ______ ____
ROOT
ATOM      1  C   UNL     1       4.363  15.200  19.441  0.00  0.00    +0.000 C 
ATOM      2  N   UNL     1       5.295  14.913  18.348  0.00  0.00    +0.000 N 
ATOM      3  C   UNL     1       6.668  14.925  18.466  0.00  0.00    +0.000 C 
ATOM      4  O   UNL     1       7.341  15.061  17.447  0.00  0.00    +0.000 OA
ATOM      5  N   UNL     1       7.176  14.692  19.761  0.00  0.00    +0.000 N 
ATOM      6  C   UNL     1       6.315  14.542  20.838  0.00  0.00    +0.000 C 
ATOM      7  C   UNL     1       5.005  14.746  20.690  0.00  0.00    +0.000 C 
ATOM      8  C   UNL     1       4.420  14.569  22.016  0.00  0.00    +0.000 C 
ATOM      9  O   UNL     1       3.220  14.567  22.240  0.00  0.00    +0.000 OA
ATOM     10  C   UNL     1       5.462  14.334  23.063  0.00  0.00    +0.000 C 
ATOM     11  C   UNL     1       6.754  14.333  22.257  0.00  0.00    +0.000 C 
ATOM     12  H   UNL     1       4.989  15.122  17.406  0.00  0.00    +0.000 HD
ENDROOT
BRANCH   1  18
ATOM     13  C   UNL     1       1.768  15.355  19.207  0.00  0.00    +0.000 A 
ATOM     14  C   UNL     1       0.541  14.723  18.927  0.00  0.00    +0.000 A 
ATOM     15  C   UNL     1       0.501  13.365  18.602  0.00  0.00    +0.000 A 
ATOM     16  C   UNL     1       1.679  12.626  18.566  0.00  0.00    +0.000 A 
ATOM     17  C   UNL     1       2.892  13.237  18.876  0.00  0.00    +0.000 A 
ATOM     18  C   UNL     1       2.980  14.617  19.172  0.00  0.00    +0.000 A 
BRANCH  13  20
ATOM     19  C   UNL     1      -0.079  17.534  19.462  0.00  0.00    +0.000 C 
ATOM     20  S   UNL     1       1.652  17.132  19.482  0.00  0.00    +0.000 S 
ATOM     21  O   UNL     1       2.248  17.739  18.305  0.00  0.00    +0.000 OA
ATOM     22  O   UNL     1       2.172  17.453  20.797  0.00  0.00    +0.000 OA
ENDBRANCH  13  20
BRANCH  15  23
ATOM     23  C   UNL     1      -0.742  12.729  18.303  0.00  0.00    +0.000 C 
ATOM     24  N   UNL     1      -1.754  12.214  18.053  0.00  0.00    +0.000 NA
ENDBRANCH  15  23
ENDBRANCH   1  18
BRANCH   5  25
ATOM     25  C   UNL     1       8.593  14.609  19.920  0.00  0.00    +0.000 A 
ATOM     26  C   UNL     1       9.351  15.765  20.143  0.00  0.00    +0.000 A 
ATOM     27  C   UNL     1      10.743  15.702  20.168  0.00  0.00    +0.000 A 
ATOM     28  C   UNL     1      11.386  14.483  19.963  0.00  0.00    +0.000 A 
ATOM     29  C   UNL     1      10.646  13.310  19.753  0.00  0.00    +0.000 A 
ATOM     30  C   UNL     1       9.242  13.379  19.755  0.00  0.00    +0.000 A 
BRANCH  29  31
ATOM     31  C   UNL     1      11.343  11.998  19.494  0.00  0.00    +0.000 C 
ATOM     32  F   UNL     1      12.331  11.726  20.394  0.00  0.00    +0.000 F 
ATOM     33  F   UNL     1      10.500  10.932  19.532  0.00  0.00    +0.000 F 
ATOM     34  F   UNL     1      11.943  11.962  18.271  0.00  0.00    +0.000 F 
ENDBRANCH  29  31
ENDBRANCH   5  25
TORSDOF 5
ENDMDL
MODEL 4
REMARK VINA RESULT:      -7.3      7.277      8.669
REMARK  Name = 
REMARK  6 active torsions:
REMARK  status: ('A' for Active; 'I' for Inactive)
REMARK    1  A    between atoms: C_1  and  S_2
REMARK    2  A    between atoms: S_2  and  C_5
REMARK    3  A    between atoms: C_7  and  C_8
REMARK    4  A    between atoms: C_12  and  C_13
REMARK    5  A    between atoms: N_17  and  C_18
REMARK    6  A    between atoms: C_22  and  C_23
REMARK                            x       y       z     vdW  Elec       q    Type
REMARK                         _______ _______ _______ _____ _____    ______ ____
ROOT
ATOM      1  C   UNL     1       4.080  15.156  19.410  0.00  0.00    +0.000 C 
ATOM      2  N   UNL     1       5.031  14.841  18.340  0.00  0.00    +0.000 N 
ATOM      3  C   UNL     1       6.401  14.867  18.478  0.00  0.00    +0.000 C 
ATOM      4  O   UNL     1       7.089  14.974  17.465  0.00  0.00    +0.000 OA
ATOM      5  N   UNL     1       6.892  14.680  19.787  0.00  0.00    +0.000 N 
ATOM      6  C   UNL     1       6.016  14.559  20.855  0.00  0.00    +0.000 C 
ATOM      7  C   UNL     1       4.707  14.749  20.682  0.00  0.00    +0.000 C 
ATOM      8  C   UNL     1       4.104  14.611  22.005  0.00  0.00    +0.000 C 
ATOM      9  O   UNL     1       2.901  14.607  22.211  0.00  0.00    +0.000 OA
ATOM     10  C   UNL     1       5.132  14.419  23.073  0.00  0.00    +0.000 C 
ATOM     11  C   UNL     1       6.436  14.401  22.287  0.00  0.00    +0.000 C 
ATOM     12  H   UNL     1       4.737  15.017  17.387  0.00  0.00    +0.000 HD
ENDROOT
BRANCH   1  18
ATOM     13  C   UNL     1       1.508  15.302  18.991  0.00  0.00    +0.000 A 
ATOM     14  C   UNL     1       0.289  14.648  18.728  0.00  0.00    +0.000 A 
ATOM     15  C   UNL     1       0.243  13.258  18.600  0.00  0.00    +0.000 A 
ATOM     16  C   UNL     1       1.406  12.510  18.745  0.00  0.00    +0.000 A 
ATOM     17  C   UNL     1       2.610  13.147  19.040  0.00  0.00    +0.000 A 
ATOM     18  C   UNL     1       2.706  14.554  19.140  0.00  0.00    +0.000 A 
BRANCH  13  20
ATOM     19  C   UNL     1       1.827  17.621  20.647  0.00  0.00    +0.000 C 
ATOM     20  S   UNL     1       1.409  17.101  19.000  0.00  0.00    +0.000 S 
ATOM     21  O   UNL     1       0.004  17.406  18.796  0.00  0.00    +0.000 OA
ATOM     22  O   UNL     1       2.401  17.644  18.093  0.00  0.00    +0.000 OA
ENDBRANCH  13  20
BRANCH  15  23
ATOM     23  C   UNL     1      -0.991  12.597  18.317  0.00  0.00    +0.000 C 
ATOM     24  N   UNL     1      -2.000  12.065  18.089  0.00  0.00    +0.000 NA
ENDBRANCH  15  23
ENDBRANCH   1  18
BRANCH   5  25
ATOM     25  C   UNL     1       8.307  14.614  19.968  0.00  0.00    +0.000 A 
ATOM     26  C   UNL     1       9.051  15.781  20.181  0.00  0.00    +0.000 A 
ATOM     27  C   UNL     1      10.443  15.731  20.228  0.00  0.00    +0.000 A 
ATOM     28  C   UNL     1      11.100  14.514  20.056  0.00  0.00    +0.000 A 
ATOM     29  C   UNL     1      10.373  13.331  19.859  0.00  0.00    +0.000 A 
ATOM     30  C   UNL     1       8.969  13.386  19.838  0.00  0.00    +0.000 A 
BRANCH  29  31
ATOM     31  C   UNL     1      11.086  12.020  19.636  0.00  0.00    +0.000 C 
ATOM     32  F   UNL     1      11.439  11.812  18.336  0.00  0.00    +0.000 F 
ATOM     33  F   UNL     1      12.234  11.910  20.356  0.00  0.00    +0.000 F 
ATOM     34  F   UNL     1      10.319  10.948  19.983  0.00  0.00    +0.000 F 
ENDBRANCH  29  31
ENDBRANCH   5  25
TORSDOF 5
ENDMDL
MODEL 5
REMARK VINA RESULT:      -7.2      1.561      2.515
REMARK  Name = 
REMARK  6 active torsions:
REMARK  status: ('A' for Active; 'I' for Inactive)
REMARK    1  A    between atoms: C_1  and  S_2
REMARK    2  A    between atoms: S_2  and  C_5
REMARK    3  A    between atoms: C_7  and  C_8
REMARK    4  A    between atoms: C_12  and  C_13
REMARK    5  A    between atoms: N_17  and  C_18
REMARK    6  A    between atoms: C_22  and  C_23
REMARK                            x       y       z     vdW  Elec       q    Type
REMARK                         _______ _______ _______ _____ _____    ______ ____
ROOT
ATOM      1  C   UNL     1      -1.093  11.236  21.464  0.00  0.00    +0.000 C 
ATOM      2  N   UNL     1       0.207  10.853  22.019  0.00  0.00    +0.000 N 
ATOM      3  C   UNL     1       0.994   9.830  21.536  0.00  0.00    +0.000 C 
ATOM      4  O   UNL     1       1.842   9.344  22.281  0.00  0.00    +0.000 OA
ATOM      5  N   UNL     1       0.800   9.492  20.180  0.00  0.00    +0.000 N 
ATOM      6  C   UNL     1      -0.185  10.119  19.433  0.00  0.00    +0.000 C 
ATOM      7  C   UNL     1      -1.048  10.953  20.016  0.00  0.00    +0.000 C 
ATOM      8  C   UNL     1      -1.970  11.373  18.965  0.00  0.00    +0.000 C 
ATOM      9  O   UNL     1      -2.828  12.231  19.108  0.00  0.00    +0.000 OA
ATOM     10  C   UNL     1      -1.707  10.669  17.672  0.00  0.00    +0.000 C 
ATOM     11  C   UNL     1      -0.499   9.803  18.001  0.00  0.00    +0.000 C 
ATOM     12  H   UNL     1       0.364  11.026  23.004  0.00  0.00    +0.000 HD
ENDROOT
BRANCH   1  18
ATOM     13  C   UNL     1      -0.673  13.811  21.557  0.00  0.00    +0.000 A 
ATOM     14  C   UNL     1      -1.119  15.093  21.929  0.00  0.00    +0.000 A 
ATOM     15  C   UNL     1      -2.349  15.259  22.568  0.00  0.00    +0.000 A 
ATOM     16  C   UNL     1      -3.138  14.150  22.850  0.00  0.00    +0.000 A 
ATOM     17  C   UNL     1      -2.689  12.874  22.516  0.00  0.00    +0.000 A 
ATOM     18  C   UNL     1      -1.467  12.667  21.835  0.00  0.00    +0.000 A 
BRANCH  13  20
ATOM     19  C   UNL     1       1.487  15.459  20.640  0.00  0.00    +0.000 C 
ATOM     20  S   UNL     1       0.873  13.791  20.632  0.00  0.00    +0.000 S 
ATOM     21  O   UNL     1       0.496  13.477  19.266  0.00  0.00    +0.000 OA
ATOM     22  O   UNL     1       1.837  12.955  21.321  0.00  0.00    +0.000 OA
ENDBRANCH  13  20
BRANCH  15  23
ATOM     23  C   UNL     1      -2.807  16.563  22.931  0.00  0.00    +0.000 C 
ATOM     24  N   UNL     1      -3.186  17.623  23.224  0.00  0.00    +0.000 NA
ENDBRANCH  15  23
ENDBRANCH   1  18
BRANCH   5  25
ATOM     25  C   UNL     1       1.651   8.496  19.611  0.00  0.00    +0.000 A 
ATOM     26  C   UNL     1       2.332   8.746  18.413  0.00  0.00    +0.000 A 
ATOM     27  C   UNL     1       3.058   7.732  17.790  0.00  0.00    +0.000 A 
ATOM     28  C   UNL     1       3.102   6.460  18.358  0.00  0.00    +0.000 A 
ATOM     29  C   UNL     1       2.441   6.194  19.567  0.00  0.00    +0.000 A 
ATOM     30  C   UNL     1       1.732   7.229  20.201  0.00  0.00    +0.000 A 
BRANCH  29  31
ATOM     31  C   UNL     1       2.458   4.808  20.162  0.00  0.00    +0.000 C 
ATOM     32  F   UNL     1       3.586   4.104  19.858  0.00  0.00    +0.000 F 
ATOM     33  F   UNL     1       2.377   4.812  21.520  0.00  0.00    +0.000 F 
ATOM     34  F   UNL     1       1.420   4.042  19.723  0.00  0.00    +0.000 F 
ENDBRANCH  29  31
ENDBRANCH   5  25
TORSDOF 5
ENDMDL
MODEL 6
REMARK VINA RESULT:      -7.2      5.623      7.580
REMARK  Name = 
REMARK  6 active torsions:
REMARK  status: ('A' for Active; 'I' for Inactive)
REMARK    1  A    between atoms: C_1  and  S_2
REMARK    2  A    between atoms: S_2  and  C_5
REMARK    3  A    between atoms: C_7  and  C_8
REMARK    4  A    between atoms: C_12  and  C_13
REMARK    5  A    between atoms: N_17  and  C_18
REMARK    6  A    between atoms: C_22  and  C_23
REMARK                            x       y       z     vdW  Elec       q    Type
REMARK                         _______ _______ _______ _____ _____    ______ ____
ROOT
ATOM      1  C   UNL     1       2.808  14.556  20.171  0.00  0.00    +0.000 C 
ATOM      2  N   UNL     1       2.501  13.129  20.039  0.00  0.00    +0.000 N 
ATOM      3  C   UNL     1       1.230  12.610  19.916  0.00  0.00    +0.000 C 
ATOM      4  O   UNL     1       1.051  11.428  20.202  0.00  0.00    +0.000 OA
ATOM      5  N   UNL     1       0.257  13.483  19.385  0.00  0.00    +0.000 N 
ATOM      6  C   UNL     1       0.580  14.798  19.089  0.00  0.00    +0.000 C 
ATOM      7  C   UNL     1       1.772  15.295  19.423  0.00  0.00    +0.000 C 
ATOM      8  C   UNL     1       1.746  16.700  19.027  0.00  0.00    +0.000 C 
ATOM      9  O   UNL     1       2.714  17.443  19.075  0.00  0.00    +0.000 OA
ATOM     10  C   UNL     1       0.407  17.111  18.503  0.00  0.00    +0.000 C 
ATOM     11  C   UNL     1      -0.390  15.815  18.563  0.00  0.00    +0.000 C 
ATOM     12  H   UNL     1       3.145  12.471  20.458  0.00  0.00    +0.000 HD
ENDROOT
BRANCH   1  18
ATOM     13  C   UNL     1       5.251  15.343  20.648  0.00  0.00    +0.000 A 
ATOM     14  C   UNL     1       6.556  15.581  20.175  0.00  0.00    +0.000 A 
ATOM     15  C   UNL     1       6.881  15.342  18.838  0.00  0.00    +0.000 A 
ATOM     16  C   UNL     1       5.908  14.875  17.961  0.00  0.00    +0.000 A 
ATOM     17  C   UNL     1       4.607  14.669  18.413  0.00  0.00    +0.000 A 
ATOM     18  C   UNL     1       4.246  14.864  19.766  0.00  0.00    +0.000 A 
BRANCH  13  20
ATOM     19  C   UNL     1       3.989  17.005  22.613  0.00  0.00    +0.000 C 
ATOM     20  S   UNL     1       5.037  15.583  22.420  0.00  0.00    +0.000 S 
ATOM     21  O   UNL     1       6.352  15.947  22.917  0.00  0.00    +0.000 OA
ATOM     22  O   UNL     1       4.348  14.438  22.984  0.00  0.00    +0.000 OA
ENDBRANCH  13  20
BRANCH  15  23
ATOM     23  C   UNL     1       8.209  15.569  18.364  0.00  0.00    +0.000 C 
ATOM     24  N   UNL     1       9.291  15.748  17.976  0.00  0.00    +0.000 NA
ENDBRANCH  15  23
ENDBRANCH   1  18
BRANCH   5  25
ATOM     25  C   UNL     1      -1.054  12.965  19.160  0.00  0.00    +0.000 A 
ATOM     26  C   UNL     1      -2.054  13.117  20.129  0.00  0.00    +0.000 A 
ATOM     27  C   UNL     1      -3.294  12.502  19.966  0.00  0.00    +0.000 A 
ATOM     28  C   UNL     1      -3.539  11.723  18.836  0.00  0.00    +0.000 A 
ATOM     29  C   UNL     1      -2.557  11.571  17.846  0.00  0.00    +0.000 A 
ATOM     30  C   UNL     1      -1.320  12.217  18.006  0.00  0.00    +0.000 A 
BRANCH  29  31
ATOM     31  C   UNL     1      -2.811  10.700  16.641  0.00  0.00    +0.000 C 
ATOM     32  F   UNL     1      -2.087   9.544  16.650  0.00  0.00    +0.000 F 
ATOM     33  F   UNL     1      -4.112  10.324  16.521  0.00  0.00    +0.000 F 
ATOM     34  F   UNL     1      -2.488  11.324  15.473  0.00  0.00    +0.000 F 
ENDBRANCH  29  31
ENDBRANCH   5  25
TORSDOF 5
ENDMDL
MODEL 7
REMARK VINA RESULT:      -7.2      3.699      5.503
REMARK  Name = 
REMARK  6 active torsions:
REMARK  status: ('A' for Active; 'I' for Inactive)
REMARK    1  A    between atoms: C_1  and  S_2
REMARK    2  A    between atoms: S_2  and  C_5
REMARK    3  A    between atoms: C_7  and  C_8
REMARK    4  A    between atoms: C_12  and  C_13
REMARK    5  A    between atoms: N_17  and  C_18
REMARK    6  A    between atoms: C_22  and  C_23
REMARK                            x       y       z     vdW  Elec       q    Type
REMARK                         _______ _______ _______ _____ _____    ______ ____
ROOT
ATOM      1  C   UNL     1       1.209   9.631  18.710  0.00  0.00    +0.000 C 
ATOM      2  N   UNL     1       1.763   9.123  17.452  0.00  0.00    +0.000 N 
ATOM      3  C   UNL     1       2.732   8.149  17.361  0.00  0.00    +0.000 C 
ATOM      4  O   UNL     1       3.393   8.076  16.327  0.00  0.00    +0.000 OA
ATOM      5  N   UNL     1       2.816   7.259  18.453  0.00  0.00    +0.000 N 
ATOM      6  C   UNL     1       2.008   7.435  19.566  0.00  0.00    +0.000 C 
ATOM      7  C   UNL     1       1.237   8.518  19.678  0.00  0.00    +0.000 C 
ATOM      8  C   UNL     1       0.583   8.410  20.979  0.00  0.00    +0.000 C 
ATOM      9  O   UNL     1      -0.287   9.171  21.373  0.00  0.00    +0.000 OA
ATOM     10  C   UNL     1       1.065   7.226  21.754  0.00  0.00    +0.000 C 
ATOM     11  C   UNL     1       2.049   6.573  20.792  0.00  0.00    +0.000 C 
ATOM     12  H   UNL     1       1.775   9.752  16.659  0.00  0.00    +0.000 HD
ENDROOT
BRANCH   1  18
ATOM     13  C   UNL     1      -0.523  11.564  18.989  0.00  0.00    +0.000 A 
ATOM     14  C   UNL     1      -1.808  12.080  18.731  0.00  0.00    +0.000 A 
ATOM     15  C   UNL     1      -2.733  11.342  17.989  0.00  0.00    +0.000 A 
ATOM     16  C   UNL     1      -2.389  10.083  17.509  0.00  0.00    +0.000 A 
ATOM     17  C   UNL     1      -1.133   9.551  17.790  0.00  0.00    +0.000 A 
ATOM     18  C   UNL     1      -0.155  10.281  18.505  0.00  0.00    +0.000 A 
BRANCH  13  20
ATOM     19  C   UNL     1      -0.376  14.143  20.234  0.00  0.00    +0.000 C 
ATOM     20  S   UNL     1       0.583  12.696  19.850  0.00  0.00    +0.000 S 
ATOM     21  O   UNL     1       1.573  13.085  18.863  0.00  0.00    +0.000 OA
ATOM     22  O   UNL     1       1.011  12.097  21.099  0.00  0.00    +0.000 OA
ENDBRANCH  13  20
BRANCH  15  23
ATOM     23  C   UNL     1      -4.029  11.873  17.714  0.00  0.00    +0.000 C 
ATOM     24  N   UNL     1      -5.089  12.302  17.495  0.00  0.00    +0.000 NA
ENDBRANCH  15  23
ENDBRANCH   1  18
BRANCH   5  25
ATOM     25  C   UNL     1       3.747   6.180  18.367  0.00  0.00    +0.000 A 
ATOM     26  C   UNL     1       3.296   4.865  18.203  0.00  0.00    +0.000 A 
ATOM     27  C   UNL     1       4.195   3.800  18.249  0.00  0.00    +0.000 A 
ATOM     28  C   UNL     1       5.549   4.044  18.467  0.00  0.00    +0.000 A 
ATOM     29  C   UNL     1       6.025   5.355  18.618  0.00  0.00    +0.000 A 
ATOM     30  C   UNL     1       5.115   6.424  18.544  0.00  0.00    +0.000 A 
BRANCH  29  31
ATOM     31  C   UNL     1       7.485   5.616  18.890  0.00  0.00    +0.000 C 
ATOM     32  F   UNL     1       7.927   6.798  18.373  0.00  0.00    +0.000 F 
ATOM     33  F   UNL     1       7.779   5.657  20.217  0.00  0.00    +0.000 F 
ATOM     34  F   UNL     1       8.291   4.658  18.353  0.00  0.00    +0.000 F 
ENDBRANCH  29  31
ENDBRANCH   5  25
TORSDOF 5
ENDMDL
MODEL 8
REMARK VINA RESULT:      -7.2      2.045      2.875
REMARK  Name = 
REMARK  6 active torsions:
REMARK  status: ('A' for Active; 'I' for Inactive)
REMARK    1  A    between atoms: C_1  and  S_2
REMARK    2  A    between atoms: S_2  and  C_5
REMARK    3  A    between atoms: C_7  and  C_8
REMARK    4  A    between atoms: C_12  and  C_13
REMARK    5  A    between atoms: N_17  and  C_18
REMARK    6  A    between atoms: C_22  and  C_23
REMARK                            x       y       z     vdW  Elec       q    Type
REMARK                         _______ _______ _______ _____ _____    ______ ____
ROOT
ATOM      1  C   UNL     1      -1.623  11.804  20.835  0.00  0.00    +0.000 C 
ATOM      2  N   UNL     1      -0.238  11.712  21.305  0.00  0.00    +0.000 N 
ATOM      3  C   UNL     1       0.652  10.729  20.931  0.00  0.00    +0.000 C 
ATOM      4  O   UNL     1       1.622  10.513  21.653  0.00  0.00    +0.000 OA
ATOM      5  N   UNL     1       0.400  10.111  19.687  0.00  0.00    +0.000 N 
ATOM      6  C   UNL     1      -0.727  10.446  18.952  0.00  0.00    +0.000 C 
ATOM      7  C   UNL     1      -1.655  11.254  19.465  0.00  0.00    +0.000 C 
ATOM      8  C   UNL     1      -2.713  11.336  18.463  0.00  0.00    +0.000 C 
ATOM      9  O   UNL     1      -3.676  12.084  18.543  0.00  0.00    +0.000 OA
ATOM     10  C   UNL     1      -2.454  10.437  17.297  0.00  0.00    +0.000 C 
ATOM     11  C   UNL     1      -1.106   9.819  17.643  0.00  0.00    +0.000 C 
ATOM     12  H   UNL     1      -0.029  12.091  22.219  0.00  0.00    +0.000 HD
ENDROOT
BRANCH   1  18
ATOM     13  C   UNL     1      -1.571  14.384  20.447  0.00  0.00    +0.000 A 
ATOM     14  C   UNL     1      -2.175  15.644  20.626  0.00  0.00    +0.000 A 
ATOM     15  C   UNL     1      -3.380  15.761  21.323  0.00  0.00    +0.000 A 
ATOM     16  C   UNL     1      -3.986  14.627  21.854  0.00  0.00    +0.000 A 
ATOM     17  C   UNL     1      -3.377  13.382  21.711  0.00  0.00    +0.000 A 
ATOM     18  C   UNL     1      -2.177  13.216  20.981  0.00  0.00    +0.000 A 
BRANCH  13  20
ATOM     19  C   UNL     1       0.199  16.096  18.978  0.00  0.00    +0.000 C 
ATOM     20  S   UNL     1      -0.091  14.399  19.421  0.00  0.00    +0.000 S 
ATOM     21  O   UNL     1      -0.463  13.695  18.206  0.00  0.00    +0.000 OA
ATOM     22  O   UNL     1       1.042  13.938  20.199  0.00  0.00    +0.000 OA
ENDBRANCH  13  20
BRANCH  15  23
ATOM     23  C   UNL     1      -3.999  17.037  21.490  0.00  0.00    +0.000 C 
ATOM     24  N   UNL     1      -4.498  18.079  21.622  0.00  0.00    +0.000 NA
ENDBRANCH  15  23
ENDBRANCH   1  18
BRANCH   5  25
ATOM     25  C   UNL     1       1.342   9.147  19.216  0.00  0.00    +0.000 A 
ATOM     26  C   UNL     1       2.109   9.403  18.073  0.00  0.00    +0.000 A 
ATOM     27  C   UNL     1       2.933   8.413  17.540  0.00  0.00    +0.000 A 
ATOM     28  C   UNL     1       2.988   7.157  18.142  0.00  0.00    +0.000 A 
ATOM     29  C   UNL     1       2.240   6.885  19.297  0.00  0.00    +0.000 A 
ATOM     30  C   UNL     1       1.433   7.897  19.843  0.00  0.00    +0.000 A 
BRANCH  29  31
ATOM     31  C   UNL     1       2.272   5.515  19.927  0.00  0.00    +0.000 C 
ATOM     32  F   UNL     1       1.958   4.513  19.056  0.00  0.00    +0.000 F 
ATOM     33  F   UNL     1       3.490   5.194  20.440  0.00  0.00    +0.000 F 
ATOM     34  F   UNL     1       1.385   5.396  20.955  0.00  0.00    +0.000 F 
ENDBRANCH  29  31
ENDBRANCH   5  25
TORSDOF 5
ENDMDL
MODEL 9
REMARK VINA RESULT:      -7.1      5.673      7.669
REMARK  Name = 
REMARK  6 active torsions:
REMARK  status: ('A' for Active; 'I' for Inactive)
REMARK    1  A    between atoms: C_1  and  S_2
REMARK    2  A    between atoms: S_2  and  C_5
REMARK    3  A    between atoms: C_7  and  C_8
REMARK    4  A    between atoms: C_12  and  C_13
REMARK    5  A    between atoms: N_17  and  C_18
REMARK    6  A    between atoms: C_22  and  C_23
REMARK                            x       y       z     vdW  Elec       q    Type
REMARK                         _______ _______ _______ _____ _____    ______ ____
ROOT
ATOM      1  C   UNL     1       2.752  14.479  20.135  0.00  0.00    +0.000 C 
ATOM      2  N   UNL     1       2.405  13.062  19.997  0.00  0.00    +0.000 N 
ATOM      3  C   UNL     1       1.119  12.577  19.904  0.00  0.00    +0.000 C 
ATOM      4  O   UNL     1       0.918  11.397  20.183  0.00  0.00    +0.000 OA
ATOM      5  N   UNL     1       0.154  13.479  19.408  0.00  0.00    +0.000 N 
ATOM      6  C   UNL     1       0.503  14.789  19.116  0.00  0.00    +0.000 C 
ATOM      7  C   UNL     1       1.716  15.252  19.423  0.00  0.00    +0.000 C 
ATOM      8  C   UNL     1       1.715  16.661  19.042  0.00  0.00    +0.000 C 
ATOM      9  O   UNL     1       2.703  17.378  19.071  0.00  0.00    +0.000 OA
ATOM     10  C   UNL     1       0.374  17.111  18.558  0.00  0.00    +0.000 C 
ATOM     11  C   UNL     1      -0.454  15.835  18.626  0.00  0.00    +0.000 C 
ATOM     12  H   UNL     1       3.043  12.384  20.393  0.00  0.00    +0.000 HD
ENDROOT
BRANCH   1  18
ATOM     13  C   UNL     1       5.222  15.214  20.550  0.00  0.00    +0.000 A 
ATOM     14  C   UNL     1       6.520  15.423  20.045  0.00  0.00    +0.000 A 
ATOM     15  C   UNL     1       6.808  15.173  18.702  0.00  0.00    +0.000 A 
ATOM     16  C   UNL     1       5.804  14.725  17.850  0.00  0.00    +0.000 A 
ATOM     17  C   UNL     1       4.510  14.549  18.334  0.00  0.00    +0.000 A 
ATOM     18  C   UNL     1       4.186  14.754  19.695  0.00  0.00    +0.000 A 
BRANCH  13  20
ATOM     19  C   UNL     1       6.661  15.946  22.920  0.00  0.00    +0.000 C 
ATOM     20  S   UNL     1       5.057  15.464  22.327  0.00  0.00    +0.000 S 
ATOM     21  O   UNL     1       4.774  14.148  22.872  0.00  0.00    +0.000 OA
ATOM     22  O   UNL     1       4.138  16.557  22.577  0.00  0.00    +0.000 OA
ENDBRANCH  13  20
BRANCH  15  23
ATOM     23  C   UNL     1       8.128  15.370  18.195  0.00  0.00    +0.000 C 
ATOM     24  N   UNL     1       9.204  15.525  17.779  0.00  0.00    +0.000 NA
ENDBRANCH  15  23
ENDBRANCH   1  18
BRANCH   5  25
ATOM     25  C   UNL     1      -1.175  12.997  19.213  0.00  0.00    +0.000 A 
ATOM     26  C   UNL     1      -2.145  13.166  20.210  0.00  0.00    +0.000 A 
ATOM     27  C   UNL     1      -3.404  12.583  20.074  0.00  0.00    +0.000 A 
ATOM     28  C   UNL     1      -3.699  11.822  18.945  0.00  0.00    +0.000 A 
ATOM     29  C   UNL     1      -2.748  11.655  17.927  0.00  0.00    +0.000 A 
ATOM     30  C   UNL     1      -1.490  12.267  18.060  0.00  0.00    +0.000 A 
BRANCH  29  31
ATOM     31  C   UNL     1      -3.055  10.801  16.722  0.00  0.00    +0.000 C 
ATOM     32  F   UNL     1      -4.370  10.832  16.360  0.00  0.00    +0.000 F 
ATOM     33  F   UNL     1      -2.355  11.171  15.616  0.00  0.00    +0.000 F 
ATOM     34  F   UNL     1      -2.765   9.486  16.931  0.00  0.00    +0.000 F 
ENDBRANCH  29  31
ENDBRANCH   5  25
TORSDOF 5
ENDMDL
