MODEL 1
REMARK VINA RESULT:      -9.5      0.000      0.000
REMARK  Name = 
REMARK  8 active torsions:
REMARK  status: ('A' for Active; 'I' for Inactive)
REMARK    1  A    between atoms: C_1  and  C_2
REMARK    2  A    between atoms: C_7  and  C_8
REMARK    3  A    between atoms: C_12  and  C_13
REMARK    4  A    between atoms: N_15  and  C_16
REMARK    5  A    between atoms: C_21  and  C_22
REMARK    6  A    between atoms: C_24  and  N_25
REMARK    7  A    between atoms: C_27  and  C_28
REMARK    8  A    between atoms: C_27  and  C_29
REMARK                            x       y       z     vdW  Elec       q    Type
REMARK                         _______ _______ _______ _____ _____    ______ ____
ROOT
ATOM      1  C   UNL     1       2.245   6.750  18.879  0.00  0.00    +0.000 C 
ATOM      2  O   UNL     1       1.929   6.138  17.860  0.00  0.00    +0.000 OA
ATOM      3  N   UNL     1       2.847   6.180  20.004  0.00  0.00    +0.000 N 
ATOM      4  H   UNL     1       2.960   6.800  20.795  0.00  0.00    +0.000 HD
ENDROOT
BRANCH   1   9
ATOM      5  C   UNL     1       0.802  10.049  19.775  0.00  0.00    +0.000 A 
ATOM      6  C   UNL     1       1.350  10.875  18.783  0.00  0.00    +0.000 A 
ATOM      7  C   UNL     1       2.197  10.341  17.824  0.00  0.00    +0.000 A 
ATOM      8  C   UNL     1       2.492   8.990  17.880  0.00  0.00    +0.000 A 
ATOM      9  C   UNL     1       1.931   8.216  18.896  0.00  0.00    +0.000 A 
ATOM     10  N   UNL     1       1.099   8.713  19.850  0.00  0.00    +0.000 NA
BRANCH   5  17
ATOM     11  C   UNL     1      -2.955  13.139  21.125  0.00  0.00    +0.000 C 
ATOM     12  C   UNL     1      -1.932  12.110  21.504  0.00  0.00    +0.000 A 
ATOM     13  C   UNL     1      -1.780  11.697  22.828  0.00  0.00    +0.000 A 
ATOM     14  C   UNL     1      -0.810  10.751  23.146  0.00  0.00    +0.000 A 
ATOM     15  C   UNL     1       0.018  10.230  22.150  0.00  0.00    +0.000 A 
ATOM     16  F   UNL     1       0.984   9.381  22.532  0.00  0.00    +0.000 F 
ATOM     17  C   UNL     1      -0.106  10.595  20.806  0.00  0.00    +0.000 A 
ATOM     18  C   UNL     1      -1.115  11.535  20.515  0.00  0.00    +0.000 A 
ATOM     19  F   UNL     1      -1.327  11.922  19.245  0.00  0.00    +0.000 F 
ENDBRANCH   5  17
ENDBRANCH   1   9
BRANCH   3  20
ATOM     20  C   UNL     1       3.157   4.780  20.135  0.00  0.00    +0.000 A 
ATOM     21  C   UNL     1       2.313   3.908  20.843  0.00  0.00    +0.000 A 
ATOM     22  N   UNL     1       2.562   2.601  21.093  0.00  0.00    +0.000 NA
ATOM     23  C   UNL     1       3.717   2.114  20.615  0.00  0.00    +0.000 A 
ATOM     24  C   UNL     1       4.603   2.856  19.848  0.00  0.00    +0.000 A 
ATOM     25  C   UNL     1       4.314   4.200  19.557  0.00  0.00    +0.000 A 
BRANCH  25  26
ATOM     26  C   UNL     1       5.173   4.972  18.573  0.00  0.00    +0.000 C 
ATOM     27  C   UNL     1       6.567   5.304  19.114  0.00  0.00    +0.000 C 
ATOM     28  C   UNL     1       7.082   6.511  18.326  0.00  0.00    +0.000 C 
ATOM     29  C   UNL     1       7.226   6.176  16.836  0.00  0.00    +0.000 C 
ATOM     30  C   UNL     1       5.944   5.572  16.197  0.00  0.00    +0.000 C 
ATOM     31  C   UNL     1       4.869   6.658  15.960  0.00  0.00    +0.000 C 
ATOM     32  C   UNL     1       6.323   5.024  14.806  0.00  0.00    +0.000 C 
ATOM     33  C   UNL     1       5.360   4.451  17.115  0.00  0.00    +0.000 C 
BRANCH  28  34
ATOM     34  N   UNL     1       8.347   6.980  18.882  0.00  0.00    +0.000 NA
ATOM     35  H   UNL     1       8.896   7.440  18.156  0.00  0.00    +0.000 HD
ATOM     36  H   UNL     1       8.895   6.165  19.166  0.00  0.00    +0.000 HD
ENDBRANCH  28  34
ENDBRANCH  25  26
ENDBRANCH   3  20
TORSDOF 5
ENDMDL
MODEL 2
REMARK VINA RESULT:      -9.4      1.183      1.193
REMARK  Name = 
REMARK  8 active torsions:
REMARK  status: ('A' for Active; 'I' for Inactive)
REMARK    1  A    between atoms: C_1  and  C_2
REMARK    2  A    between atoms: C_7  and  C_8
REMARK    3  A    between atoms: C_12  and  C_13
REMARK    4  A    between atoms: N_15  and  C_16
REMARK    5  A    between atoms: C_21  and  C_22
REMARK    6  A    between atoms: C_24  and  N_25
REMARK    7  A    between atoms: C_27  and  C_28
REMARK    8  A    between atoms: C_27  and  C_29
REMARK                            x       y       z     vdW  Elec       q    Type
REMARK                         _______ _______ _______ _____ _____    ______ ____
ROOT
ATOM      1  C   UNL     1       2.091   6.392  19.499  0.00  0.00    +0.000 C 
ATOM      2  O   UNL     1       2.338   6.067  20.659  0.00  0.00    +0.000 OA
ATOM      3  N   UNL     1       2.056   5.519  18.409  0.00  0.00    +0.000 N 
ATOM      4  H   UNL     1       1.929   5.958  17.507  0.00  0.00    +0.000 HD
ENDROOT
BRANCH   1   9
ATOM      5  C   UNL     1       0.750   9.841  19.788  0.00  0.00    +0.000 A 
ATOM      6  C   UNL     1       1.352  10.470  18.689  0.00  0.00    +0.000 A 
ATOM      7  C   UNL     1       2.202   9.756  17.859  0.00  0.00    +0.000 A 
ATOM      8  C   UNL     1       2.445   8.424  18.148  0.00  0.00    +0.000 A 
ATOM      9  C   UNL     1       1.831   7.850  19.262  0.00  0.00    +0.000 A 
ATOM     10  N   UNL     1       0.995   8.527  20.094  0.00  0.00    +0.000 NA
BRANCH   5  17
ATOM     11  C   UNL     1      -2.956  13.198  20.484  0.00  0.00    +0.000 C 
ATOM     12  C   UNL     1      -1.963  12.234  21.062  0.00  0.00    +0.000 A 
ATOM     13  C   UNL     1      -1.843  12.063  22.442  0.00  0.00    +0.000 A 
ATOM     14  C   UNL     1      -0.901  11.170  22.944  0.00  0.00    +0.000 A 
ATOM     15  C   UNL     1      -0.069  10.462  22.075  0.00  0.00    +0.000 A 
ATOM     16  F   UNL     1       0.871   9.676  22.623  0.00  0.00    +0.000 F 
ATOM     17  C   UNL     1      -0.162  10.581  20.685  0.00  0.00    +0.000 A 
ATOM     18  C   UNL     1      -1.144  11.474  20.209  0.00  0.00    +0.000 A 
ATOM     19  F   UNL     1      -1.326  11.630  18.886  0.00  0.00    +0.000 F 
ENDBRANCH   5  17
ENDBRANCH   1   9
BRANCH   3  20
ATOM     20  C   UNL     1       2.334   4.108  18.492  0.00  0.00    +0.000 A 
ATOM     21  C   UNL     1       1.323   3.181  18.791  0.00  0.00    +0.000 A 
ATOM     22  N   UNL     1       1.503   1.852  18.975  0.00  0.00    +0.000 NA
ATOM     23  C   UNL     1       2.760   1.400  18.855  0.00  0.00    +0.000 A 
ATOM     24  C   UNL     1       3.834   2.205  18.502  0.00  0.00    +0.000 A 
ATOM     25  C   UNL     1       3.628   3.575  18.270  0.00  0.00    +0.000 A 
BRANCH  25  26
ATOM     26  C   UNL     1       4.747   4.432  17.707  0.00  0.00    +0.000 C 
ATOM     27  C   UNL     1       5.949   4.557  18.648  0.00  0.00    +0.000 C 
ATOM     28  C   UNL     1       6.695   5.836  18.260  0.00  0.00    +0.000 C 
ATOM     29  C   UNL     1       7.232   5.747  16.825  0.00  0.00    +0.000 C 
ATOM     30  C   UNL     1       6.156   5.362  15.771  0.00  0.00    +0.000 C 
ATOM     31  C   UNL     1       5.220   6.553  15.462  0.00  0.00    +0.000 C 
ATOM     32  C   UNL     1       6.885   5.028  14.453  0.00  0.00    +0.000 C 
ATOM     33  C   UNL     1       5.310   4.152  16.280  0.00  0.00    +0.000 C 
BRANCH  28  34
ATOM     34  N   UNL     1       7.774   6.104  19.206  0.00  0.00    +0.000 NA
ATOM     35  H   UNL     1       8.561   5.484  19.020  0.00  0.00    +0.000 HD
ATOM     36  H   UNL     1       7.447   5.860  20.143  0.00  0.00    +0.000 HD
ENDBRANCH  28  34
ENDBRANCH  25  26
ENDBRANCH   3  20
TORSDOF 5
ENDMDL
MODEL 3
REMARK VINA RESULT:      -9.3      2.079      4.367
REMARK  Name = 
REMARK  8 active torsions:
REMARK  status: ('A' for Active; 'I' for Inactive)
REMARK    1  A    between atoms: C_1  and  C_2
REMARK    2  A    between atoms: C_7  and  C_8
REMARK    3  A    between atoms: C_12  and  C_13
REMARK    4  A    between atoms: N_15  and  C_16
REMARK    5  A    between atoms: C_21  and  C_22
REMARK    6  A    between atoms: C_24  and  N_25
REMARK    7  A    between atoms: C_27  and  C_28
REMARK    8  A    between atoms: C_27  and  C_29
REMARK                            x       y       z     vdW  Elec       q    Type
REMARK                         _______ _______ _______ _____ _____    ______ ____
ROOT
ATOM      1  C   UNL     1       2.738   7.880  17.991  0.00  0.00    +0.000 C 
ATOM      2  O   UNL     1       2.535   8.379  16.886  0.00  0.00    +0.000 OA
ATOM      3  N   UNL     1       3.605   6.814  18.246  0.00  0.00    +0.000 N 
ATOM      4  H   UNL     1       3.589   6.461  19.194  0.00  0.00    +0.000 HD
ENDROOT
BRANCH   1   9
ATOM      5  C   UNL     1       0.805  10.226  20.120  0.00  0.00    +0.000 A 
ATOM      6  C   UNL     1       0.662   9.483  21.301  0.00  0.00    +0.000 A 
ATOM      7  C   UNL     1       1.201   8.208  21.389  0.00  0.00    +0.000 A 
ATOM      8  C   UNL     1       1.864   7.693  20.289  0.00  0.00    +0.000 A 
ATOM      9  C   UNL     1       1.966   8.469  19.135  0.00  0.00    +0.000 A 
ATOM     10  N   UNL     1       1.446   9.720  19.019  0.00  0.00    +0.000 NA
BRANCH   5  17
ATOM     11  C   UNL     1       1.206  15.214  20.790  0.00  0.00    +0.000 C 
ATOM     12  C   UNL     1       0.399  14.034  20.335  0.00  0.00    +0.000 A 
ATOM     13  C   UNL     1      -0.902  14.191  19.856  0.00  0.00    +0.000 A 
ATOM     14  C   UNL     1      -1.627  13.072  19.456  0.00  0.00    +0.000 A 
ATOM     15  C   UNL     1      -1.064  11.798  19.551  0.00  0.00    +0.000 A 
ATOM     16  F   UNL     1      -1.840  10.754  19.224  0.00  0.00    +0.000 F 
ATOM     17  C   UNL     1       0.242  11.588  20.004  0.00  0.00    +0.000 A 
ATOM     18  C   UNL     1       0.958  12.745  20.376  0.00  0.00    +0.000 A 
ATOM     19  F   UNL     1       2.230  12.642  20.796  0.00  0.00    +0.000 F 
ENDBRANCH   5  17
ENDBRANCH   1   9
BRANCH   3  20
ATOM     20  C   UNL     1       4.365   6.128  17.234  0.00  0.00    +0.000 A 
ATOM     21  C   UNL     1       5.151   6.834  16.308  0.00  0.00    +0.000 A 
ATOM     22  N   UNL     1       5.829   6.286  15.272  0.00  0.00    +0.000 NA
ATOM     23  C   UNL     1       5.732   4.956  15.135  0.00  0.00    +0.000 A 
ATOM     24  C   UNL     1       5.038   4.142  16.019  0.00  0.00    +0.000 A 
ATOM     25  C   UNL     1       4.375   4.716  17.117  0.00  0.00    +0.000 A 
BRANCH  25  26
ATOM     26  C   UNL     1       3.770   3.833  18.192  0.00  0.00    +0.000 C 
ATOM     27  C   UNL     1       4.753   3.478  19.312  0.00  0.00    +0.000 C 
ATOM     28  C   UNL     1       4.245   2.192  19.968  0.00  0.00    +0.000 C 
ATOM     29  C   UNL     1       2.867   2.407  20.608  0.00  0.00    +0.000 C 
ATOM     30  C   UNL     1       1.812   3.021  19.644  0.00  0.00    +0.000 C 
ATOM     31  C   UNL     1       1.299   1.971  18.631  0.00  0.00    +0.000 C 
ATOM     32  C   UNL     1       0.592   3.444  20.488  0.00  0.00    +0.000 C 
ATOM     33  C   UNL     1       2.425   4.233  18.874  0.00  0.00    +0.000 C 
BRANCH  28  34
ATOM     34  N   UNL     1       5.207   1.707  20.952  0.00  0.00    +0.000 NA
ATOM     35  H   UNL     1       4.718   1.371  21.780  0.00  0.00    +0.000 HD
ATOM     36  H   UNL     1       5.770   2.500  21.268  0.00  0.00    +0.000 HD
ENDBRANCH  28  34
ENDBRANCH  25  26
ENDBRANCH   3  20
TORSDOF 5
ENDMDL
MODEL 4
REMARK VINA RESULT:      -9.0      1.324      2.001
REMARK  Name = 
REMARK  8 active torsions:
REMARK  status: ('A' for Active; 'I' for Inactive)
REMARK    1  A    between atoms: C_1  and  C_2
REMARK    2  A    between atoms: C_7  and  C_8
REMARK    3  A    between atoms: C_12  and  C_13
REMARK    4  A    between atoms: N_15  and  C_16
REMARK    5  A    between atoms: C_21  and  C_22
REMARK    6  A    between atoms: C_24  and  N_25
REMARK    7  A    between atoms: C_27  and  C_28
REMARK    8  A    between atoms: C_27  and  C_29
REMARK                            x       y       z     vdW  Elec       q    Type
REMARK                         _______ _______ _______ _____ _____    ______ ____
ROOT
ATOM      1  C   UNL     1       1.860   6.713  19.443  0.00  0.00    +0.000 C 
ATOM      2  O   UNL     1       1.824   6.465  20.647  0.00  0.00    +0.000 OA
ATOM      3  N   UNL     1       2.020   5.763  18.431  0.00  0.00    +0.000 N 
ATOM      4  H   UNL     1       2.122   6.139  17.497  0.00  0.00    +0.000 HD
ENDROOT
BRANCH   1   9
ATOM      5  C   UNL     1       0.661  10.215  19.174  0.00  0.00    +0.000 A 
ATOM      6  C   UNL     1       1.554  10.747  18.232  0.00  0.00    +0.000 A 
ATOM      7  C   UNL     1       2.550   9.949  17.691  0.00  0.00    +0.000 A 
ATOM      8  C   UNL     1       2.646   8.634  18.111  0.00  0.00    +0.000 A 
ATOM      9  C   UNL     1       1.741   8.159  19.062  0.00  0.00    +0.000 A 
ATOM     10  N   UNL     1       0.756   8.919  19.610  0.00  0.00    +0.000 NA
BRANCH   5  17
ATOM     11  C   UNL     1      -1.385  12.587  23.134  0.00  0.00    +0.000 C 
ATOM     12  C   UNL     1      -1.449  12.203  21.685  0.00  0.00    +0.000 A 
ATOM     13  C   UNL     1      -2.537  12.568  20.890  0.00  0.00    +0.000 A 
ATOM     14  C   UNL     1      -2.570  12.182  19.553  0.00  0.00    +0.000 A 
ATOM     15  C   UNL     1      -1.532  11.419  19.014  0.00  0.00    +0.000 A 
ATOM     16  F   UNL     1      -1.661  11.013  17.742  0.00  0.00    +0.000 F 
ATOM     17  C   UNL     1      -0.411  11.046  19.762  0.00  0.00    +0.000 A 
ATOM     18  C   UNL     1      -0.396  11.475  21.105  0.00  0.00    +0.000 A 
ATOM     19  F   UNL     1       0.656  11.188  21.890  0.00  0.00    +0.000 F 
ENDBRANCH   5  17
ENDBRANCH   1   9
BRANCH   3  20
ATOM     20  C   UNL     1       2.193   4.353  18.663  0.00  0.00    +0.000 A 
ATOM     21  C   UNL     1       1.101   3.522  18.962  0.00  0.00    +0.000 A 
ATOM     22  N   UNL     1       1.175   2.208  19.279  0.00  0.00    +0.000 NA
ATOM     23  C   UNL     1       2.404   1.671  19.304  0.00  0.00    +0.000 A 
ATOM     24  C   UNL     1       3.554   2.370  18.968  0.00  0.00    +0.000 A 
ATOM     25  C   UNL     1       3.461   3.723  18.597  0.00  0.00    +0.000 A 
BRANCH  25  26
ATOM     26  C   UNL     1       4.675   4.451  18.051  0.00  0.00    +0.000 C 
ATOM     27  C   UNL     1       5.887   4.398  18.987  0.00  0.00    +0.000 C 
ATOM     28  C   UNL     1       6.784   5.586  18.632  0.00  0.00    +0.000 C 
ATOM     29  C   UNL     1       7.301   5.475  17.191  0.00  0.00    +0.000 C 
ATOM     30  C   UNL     1       6.181   5.259  16.134  0.00  0.00    +0.000 C 
ATOM     31  C   UNL     1       5.399   6.566  15.868  0.00  0.00    +0.000 C 
ATOM     32  C   UNL     1       6.859   4.878  14.801  0.00  0.00    +0.000 C 
ATOM     33  C   UNL     1       5.193   4.147  16.612  0.00  0.00    +0.000 C 
BRANCH  28  34
ATOM     34  N   UNL     1       7.891   5.689  19.577  0.00  0.00    +0.000 NA
ATOM     35  H   UNL     1       7.560   6.075  20.460  0.00  0.00    +0.000 HD
ATOM     36  H   UNL     1       8.561   6.370  19.214  0.00  0.00    +0.000 HD
ENDBRANCH  28  34
ENDBRANCH  25  26
ENDBRANCH   3  20
TORSDOF 5
ENDMDL
MODEL 5
REMARK VINA RESULT:      -9.0      1.951      4.224
REMARK  Name = 
REMARK  8 active torsions:
REMARK  status: ('A' for Active; 'I' for Inactive)
REMARK    1  A    between atoms: C_1  and  C_2
REMARK    2  A    between atoms: C_7  and  C_8
REMARK    3  A    between atoms: C_12  and  C_13
REMARK    4  A    between atoms: N_15  and  C_16
REMARK    5  A    between atoms: C_21  and  C_22
REMARK    6  A    between atoms: C_24  and  N_25
REMARK    7  A    between atoms: C_27  and  C_28
REMARK    8  A    between atoms: C_27  and  C_29
REMARK                            x       y       z     vdW  Elec       q    Type
REMARK                         _______ _______ _______ _____ _____    ______ ____
ROOT
ATOM      1  C   UNL     1       2.563   7.915  18.156  0.00  0.00    +0.000 C 
ATOM      2  O   UNL     1       2.429   8.500  17.082  0.00  0.00    +0.000 OA
ATOM      3  N   UNL     1       3.410   6.826  18.378  0.00  0.00    +0.000 N 
ATOM      4  H   UNL     1       3.336   6.399  19.292  0.00  0.00    +0.000 HD
ENDROOT
BRANCH   1   9
ATOM      5  C   UNL     1       0.153   9.890  20.172  0.00  0.00    +0.000 A 
ATOM      6  C   UNL     1       0.316   9.320  21.443  0.00  0.00    +0.000 A 
ATOM      7  C   UNL     1       1.219   8.285  21.630  0.00  0.00    +0.000 A 
ATOM      8  C   UNL     1       1.935   7.826  20.538  0.00  0.00    +0.000 A 
ATOM      9  C   UNL     1       1.724   8.418  19.293  0.00  0.00    +0.000 A 
ATOM     10  N   UNL     1       0.845   9.433  19.080  0.00  0.00    +0.000 NA
BRANCH   5  17
ATOM     11  C   UNL     1      -3.963  11.755  17.921  0.00  0.00    +0.000 C 
ATOM     12  C   UNL     1      -2.801  11.948  18.850  0.00  0.00    +0.000 A 
ATOM     13  C   UNL     1      -2.567  13.177  19.467  0.00  0.00    +0.000 A 
ATOM     14  C   UNL     1      -1.471  13.324  20.312  0.00  0.00    +0.000 A 
ATOM     15  C   UNL     1      -0.599  12.255  20.527  0.00  0.00    +0.000 A 
ATOM     16  F   UNL     1       0.481  12.483  21.289  0.00  0.00    +0.000 F 
ATOM     17  C   UNL     1      -0.800  10.997  19.949  0.00  0.00    +0.000 A 
ATOM     18  C   UNL     1      -1.934  10.875  19.121  0.00  0.00    +0.000 A 
ATOM     19  F   UNL     1      -2.222   9.694  18.547  0.00  0.00    +0.000 F 
ENDBRANCH   5  17
ENDBRANCH   1   9
BRANCH   3  20
ATOM     20  C   UNL     1       4.229   6.216  17.362  0.00  0.00    +0.000 A 
ATOM     21  C   UNL     1       4.992   6.993  16.476  0.00  0.00    +0.000 A 
ATOM     22  N   UNL     1       5.721   6.518  15.439  0.00  0.00    +0.000 NA
ATOM     23  C   UNL     1       5.704   5.189  15.260  0.00  0.00    +0.000 A 
ATOM     24  C   UNL     1       5.040   4.310  16.104  0.00  0.00    +0.000 A 
ATOM     25  C   UNL     1       4.323   4.811  17.204  0.00  0.00    +0.000 A 
BRANCH  25  26
ATOM     26  C   UNL     1       3.747   3.862  18.238  0.00  0.00    +0.000 C 
ATOM     27  C   UNL     1       4.751   3.466  19.325  0.00  0.00    +0.000 C 
ATOM     28  C   UNL     1       4.274   2.138  19.919  0.00  0.00    +0.000 C 
ATOM     29  C   UNL     1       2.901   2.295  20.587  0.00  0.00    +0.000 C 
ATOM     30  C   UNL     1       1.823   2.940  19.670  0.00  0.00    +0.000 C 
ATOM     31  C   UNL     1       1.314   1.937  18.609  0.00  0.00    +0.000 C 
ATOM     32  C   UNL     1       0.608   3.297  20.550  0.00  0.00    +0.000 C 
ATOM     33  C   UNL     1       2.405   4.202  18.957  0.00  0.00    +0.000 C 
BRANCH  28  34
ATOM     34  N   UNL     1       5.258   1.619  20.864  0.00  0.00    +0.000 NA
ATOM     35  H   UNL     1       4.891   1.674  21.813  0.00  0.00    +0.000 HD
ATOM     36  H   UNL     1       6.074   2.236  20.849  0.00  0.00    +0.000 HD
ENDBRANCH  28  34
ENDBRANCH  25  26
ENDBRANCH   3  20
TORSDOF 5
ENDMDL
MODEL 6
REMARK VINA RESULT:      -9.0      1.489      1.511
REMARK  Name = 
REMARK  8 active torsions:
REMARK  status: ('A' for Active; 'I' for Inactive)
REMARK    1  A    between atoms: C_1  and  C_2
REMARK    2  A    between atoms: C_7  and  C_8
REMARK    3  A    between atoms: C_12  and  C_13
REMARK    4  A    between atoms: N_15  and  C_16
REMARK    5  A    between atoms: C_21  and  C_22
REMARK    6  A    between atoms: C_24  and  N_25
REMARK    7  A    between atoms: C_27  and  C_28
REMARK    8  A    between atoms: C_27  and  C_29
REMARK                            x       y       z     vdW  Elec       q    Type
REMARK                         _______ _______ _______ _____ _____    ______ ____
ROOT
ATOM      1  C   UNL     1       1.864   6.865  19.546  0.00  0.00    +0.000 C 
ATOM      2  O   UNL     1       1.781   6.650  20.753  0.00  0.00    +0.000 OA
ATOM      3  N   UNL     1       2.038   5.886  18.564  0.00  0.00    +0.000 N 
ATOM      4  H   UNL     1       2.181   6.235  17.625  0.00  0.00    +0.000 HD
ENDROOT
BRANCH   1   9
ATOM      5  C   UNL     1       0.925  10.450  19.339  0.00  0.00    +0.000 A 
ATOM      6  C   UNL     1       1.659  10.869  18.219  0.00  0.00    +0.000 A 
ATOM      7  C   UNL     1       2.463   9.969  17.539  0.00  0.00    +0.000 A 
ATOM      8  C   UNL     1       2.531   8.664  17.997  0.00  0.00    +0.000 A 
ATOM      9  C   UNL     1       1.792   8.303  19.123  0.00  0.00    +0.000 A 
ATOM     10  N   UNL     1       0.996   9.165  19.811  0.00  0.00    +0.000 NA
BRANCH   5  17
ATOM     11  C   UNL     1      -3.608  12.510  20.177  0.00  0.00    +0.000 C 
ATOM     12  C   UNL     1      -2.145  12.434  20.502  0.00  0.00    +0.000 A 
ATOM     13  C   UNL     1      -1.572  13.279  21.452  0.00  0.00    +0.000 A 
ATOM     14  C   UNL     1      -0.209  13.190  21.718  0.00  0.00    +0.000 A 
ATOM     15  C   UNL     1       0.585  12.274  21.024  0.00  0.00    +0.000 A 
ATOM     16  F   UNL     1       1.905  12.292  21.269  0.00  0.00    +0.000 F 
ATOM     17  C   UNL     1       0.057  11.391  20.078  0.00  0.00    +0.000 A 
ATOM     18  C   UNL     1      -1.331  11.489  19.852  0.00  0.00    +0.000 A 
ATOM     19  F   UNL     1      -1.930  10.659  18.981  0.00  0.00    +0.000 F 
ENDBRANCH   5  17
ENDBRANCH   1   9
BRANCH   3  20
ATOM     20  C   UNL     1       2.171   4.479  18.838  0.00  0.00    +0.000 A 
ATOM     21  C   UNL     1       1.059   3.693  19.182  0.00  0.00    +0.000 A 
ATOM     22  N   UNL     1       1.097   2.388  19.540  0.00  0.00    +0.000 NA
ATOM     23  C   UNL     1       2.308   1.812  19.560  0.00  0.00    +0.000 A 
ATOM     24  C   UNL     1       3.473   2.464  19.182  0.00  0.00    +0.000 A 
ATOM     25  C   UNL     1       3.416   3.806  18.769  0.00  0.00    +0.000 A 
BRANCH  25  26
ATOM     26  C   UNL     1       4.642   4.478  18.179  0.00  0.00    +0.000 C 
ATOM     27  C   UNL     1       5.868   4.418  19.096  0.00  0.00    +0.000 C 
ATOM     28  C   UNL     1       6.795   5.565  18.686  0.00  0.00    +0.000 C 
ATOM     29  C   UNL     1       7.283   5.390  17.242  0.00  0.00    +0.000 C 
ATOM     30  C   UNL     1       6.139   5.173  16.211  0.00  0.00    +0.000 C 
ATOM     31  C   UNL     1       5.393   6.494  15.913  0.00  0.00    +0.000 C 
ATOM     32  C   UNL     1       6.781   4.727  14.881  0.00  0.00    +0.000 C 
ATOM     33  C   UNL     1       5.126   4.110  16.743  0.00  0.00    +0.000 C 
BRANCH  28  34
ATOM     34  N   UNL     1       7.921   5.665  19.609  0.00  0.00    +0.000 NA
ATOM     35  H   UNL     1       7.672   6.261  20.397  0.00  0.00    +0.000 HD
ATOM     36  H   UNL     1       8.686   6.147  19.131  0.00  0.00    +0.000 HD
ENDBRANCH  28  34
ENDBRANCH  25  26
ENDBRANCH   3  20
TORSDOF 5
ENDMDL
MODEL 7
REMARK VINA RESULT:      -8.9      3.324      8.608
REMARK  Name = 
REMARK  8 active torsions:
REMARK  status: ('A' for Active; 'I' for Inactive)
REMARK    1  A    between atoms: C_1  and  C_2
REMARK    2  A    between atoms: C_7  and  C_8
REMARK    3  A    between atoms: C_12  and  C_13
REMARK    4  A    between atoms: N_15  and  C_16
REMARK    5  A    between atoms: C_21  and  C_22
REMARK    6  A    between atoms: C_24  and  N_25
REMARK    7  A    between atoms: C_27  and  C_28
REMARK    8  A    between atoms: C_27  and  C_29
REMARK                            x       y       z     vdW  Elec       q    Type
REMARK                         _______ _______ _______ _____ _____    ______ ____
ROOT
ATOM      1  C   UNL     1       0.983   9.903  21.086  0.00  0.00    +0.000 C 
ATOM      2  O   UNL     1       1.456   9.708  22.204  0.00  0.00    +0.000 OA
ATOM      3  N   UNL     1       0.058  10.900  20.766  0.00  0.00    +0.000 N 
ATOM      4  H   UNL     1      -0.302  10.869  19.821  0.00  0.00    +0.000 HD
ENDROOT
BRANCH   1   9
ATOM      5  C   UNL     1       2.307   6.930  19.302  0.00  0.00    +0.000 A 
ATOM      6  C   UNL     1       2.334   7.386  17.975  0.00  0.00    +0.000 A 
ATOM      7  C   UNL     1       1.913   8.672  17.674  0.00  0.00    +0.000 A 
ATOM      8  C   UNL     1       1.458   9.477  18.704  0.00  0.00    +0.000 A 
ATOM      9  C   UNL     1       1.439   8.970  20.003  0.00  0.00    +0.000 A 
ATOM     10  N   UNL     1       1.844   7.713  20.327  0.00  0.00    +0.000 NA
BRANCH   5  17
ATOM     11  C   UNL     1       1.524   2.499  21.592  0.00  0.00    +0.000 C 
ATOM     12  C   UNL     1       2.412   3.389  20.773  0.00  0.00    +0.000 A 
ATOM     13  C   UNL     1       3.683   2.973  20.378  0.00  0.00    +0.000 A 
ATOM     14  C   UNL     1       4.485   3.831  19.630  0.00  0.00    +0.000 A 
ATOM     15  C   UNL     1       4.028   5.107  19.293  0.00  0.00    +0.000 A 
ATOM     16  F   UNL     1       4.878   5.914  18.640  0.00  0.00    +0.000 F 
ATOM     17  C   UNL     1       2.755   5.564  19.647  0.00  0.00    +0.000 A 
ATOM     18  C   UNL     1       1.959   4.661  20.381  0.00  0.00    +0.000 A 
ATOM     19  F   UNL     1       0.710   5.005  20.739  0.00  0.00    +0.000 F 
ENDBRANCH   5  17
ENDBRANCH   1   9
BRANCH   3  20
ATOM     20  C   UNL     1      -0.496  11.827  21.719  0.00  0.00    +0.000 A 
ATOM     21  C   UNL     1      -1.510  11.440  22.610  0.00  0.00    +0.000 A 
ATOM     22  N   UNL     1      -2.149  12.259  23.478  0.00  0.00    +0.000 NA
ATOM     23  C   UNL     1      -1.768  13.545  23.474  0.00  0.00    +0.000 A 
ATOM     24  C   UNL     1      -0.737  14.036  22.686  0.00  0.00    +0.000 A 
ATOM     25  C   UNL     1      -0.049  13.168  21.821  0.00  0.00    +0.000 A 
BRANCH  25  26
ATOM     26  C   UNL     1       1.194  13.641  21.092  0.00  0.00    +0.000 C 
ATOM     27  C   UNL     1       1.088  13.522  19.568  0.00  0.00    +0.000 C 
ATOM     28  C   UNL     1       2.515  13.465  19.018  0.00  0.00    +0.000 C 
ATOM     29  C   UNL     1       3.278  14.758  19.333  0.00  0.00    +0.000 C 
ATOM     30  C   UNL     1       3.252  15.157  20.836  0.00  0.00    +0.000 C 
ATOM     31  C   UNL     1       4.201  14.266  21.670  0.00  0.00    +0.000 C 
ATOM     32  C   UNL     1       3.795  16.597  20.951  0.00  0.00    +0.000 C 
ATOM     33  C   UNL     1       1.800  15.045  21.399  0.00  0.00    +0.000 C 
BRANCH  28  34
ATOM     34  N   UNL     1       2.498  13.205  17.582  0.00  0.00    +0.000 NA
ATOM     35  H   UNL     1       3.451  13.098  17.238  0.00  0.00    +0.000 HD
ATOM     36  H   UNL     1       2.127  14.032  17.110  0.00  0.00    +0.000 HD
ENDBRANCH  28  34
ENDBRANCH  25  26
ENDBRANCH   3  20
TORSDOF 5
ENDMDL
MODEL 8
REMARK VINA RESULT:      -8.9      3.228      8.792
REMARK  Name = 
REMARK  8 active torsions:
REMARK  status: ('A' for Active; 'I' for Inactive)
REMARK    1  A    between atoms: C_1  and  C_2
REMARK    2  A    between atoms: C_7  and  C_8
REMARK    3  A    between atoms: C_12  and  C_13
REMARK    4  A    between atoms: N_15  and  C_16
REMARK    5  A    between atoms: C_21  and  C_22
REMARK    6  A    between atoms: C_24  and  N_25
REMARK    7  A    between atoms: C_27  and  C_28
REMARK    8  A    between atoms: C_27  and  C_29
REMARK                            x       y       z     vdW  Elec       q    Type
REMARK                         _______ _______ _______ _____ _____    ______ ____
ROOT
ATOM      1  C   UNL     1       0.811   9.912  21.027  0.00  0.00    +0.000 C 
ATOM      2  O   UNL     1       1.300   9.784  22.148  0.00  0.00    +0.000 OA
ATOM      3  N   UNL     1      -0.227  10.788  20.698  0.00  0.00    +0.000 N 
ATOM      4  H   UNL     1      -0.578  10.706  19.753  0.00  0.00    +0.000 HD
ENDROOT
BRANCH   1   9
ATOM      5  C   UNL     1       2.349   7.038  19.253  0.00  0.00    +0.000 A 
ATOM      6  C   UNL     1       2.479   7.546  17.952  0.00  0.00    +0.000 A 
ATOM      7  C   UNL     1       2.055   8.835  17.665  0.00  0.00    +0.000 A 
ATOM      8  C   UNL     1       1.497   9.590  18.681  0.00  0.00    +0.000 A 
ATOM      9  C   UNL     1       1.378   9.031  19.953  0.00  0.00    +0.000 A 
ATOM     10  N   UNL     1       1.782   7.771  20.264  0.00  0.00    +0.000 NA
BRANCH   5  17
ATOM     11  C   UNL     1       1.580   2.596  21.527  0.00  0.00    +0.000 C 
ATOM     12  C   UNL     1       2.459   3.488  20.701  0.00  0.00    +0.000 A 
ATOM     13  C   UNL     1       3.724   3.069  20.286  0.00  0.00    +0.000 A 
ATOM     14  C   UNL     1       4.519   3.928  19.532  0.00  0.00    +0.000 A 
ATOM     15  C   UNL     1       4.062   5.208  19.210  0.00  0.00    +0.000 A 
ATOM     16  F   UNL     1       4.906   6.016  18.550  0.00  0.00    +0.000 F 
ATOM     17  C   UNL     1       2.796   5.669  19.584  0.00  0.00    +0.000 A 
ATOM     18  C   UNL     1       2.007   4.764  20.323  0.00  0.00    +0.000 A 
ATOM     19  F   UNL     1       0.764   5.110  20.700  0.00  0.00    +0.000 F 
ENDBRANCH   5  17
ENDBRANCH   1   9
BRANCH   3  20
ATOM     20  C   UNL     1      -0.890  11.650  21.642  0.00  0.00    +0.000 A 
ATOM     21  C   UNL     1      -1.538  11.131  22.775  0.00  0.00    +0.000 A 
ATOM     22  N   UNL     1      -2.258  11.849  23.668  0.00  0.00    +0.000 NA
ATOM     23  C   UNL     1      -2.348  13.168  23.436  0.00  0.00    +0.000 A 
ATOM     24  C   UNL     1      -1.703  13.808  22.388  0.00  0.00    +0.000 A 
ATOM     25  C   UNL     1      -0.921  13.059  21.492  0.00  0.00    +0.000 A 
BRANCH  25  26
ATOM     26  C   UNL     1      -0.063  13.759  20.455  0.00  0.00    +0.000 C 
ATOM     27  C   UNL     1      -0.608  15.129  20.040  0.00  0.00    +0.000 C 
ATOM     28  C   UNL     1      -0.032  15.445  18.657  0.00  0.00    +0.000 C 
ATOM     29  C   UNL     1       1.498  15.547  18.708  0.00  0.00    +0.000 C 
ATOM     30  C   UNL     1       2.192  14.316  19.357  0.00  0.00    +0.000 C 
ATOM     31  C   UNL     1       2.196  13.103  18.398  0.00  0.00    +0.000 C 
ATOM     32  C   UNL     1       3.670  14.683  19.601  0.00  0.00    +0.000 C 
ATOM     33  C   UNL     1       1.470  13.928  20.687  0.00  0.00    +0.000 C 
BRANCH  28  34
ATOM     34  N   UNL     1      -0.621  16.671  18.128  0.00  0.00    +0.000 NA
ATOM     35  H   UNL     1       0.046  17.437  18.203  0.00  0.00    +0.000 HD
ATOM     36  H   UNL     1      -1.409  16.933  18.725  0.00  0.00    +0.000 HD
ENDBRANCH  28  34
ENDBRANCH  25  26
ENDBRANCH   3  20
TORSDOF 5
ENDMDL
MODEL 9
REMARK VINA RESULT:      -8.9      1.944      4.266
REMARK  Name = 
REMARK  8 active torsions:
REMARK  status: ('A' for Active; 'I' for Inactive)
REMARK    1  A    between atoms: C_1  and  C_2
REMARK    2  A    between atoms: C_7  and  C_8
REMARK    3  A    between atoms: C_12  and  C_13
REMARK    4  A    between atoms: N_15  and  C_16
REMARK    5  A    between atoms: C_21  and  C_22
REMARK    6  A    between atoms: C_24  and  N_25
REMARK    7  A    between atoms: C_27  and  C_28
REMARK    8  A    between atoms: C_27  and  C_29
REMARK                            x       y       z     vdW  Elec       q    Type
REMARK                         _______ _______ _______ _____ _____    ______ ____
ROOT
ATOM      1  C   UNL     1       2.682   7.945  18.006  0.00  0.00    +0.000 C 
ATOM      2  O   UNL     1       2.430   8.401  16.892  0.00  0.00    +0.000 OA
ATOM      3  N   UNL     1       3.584   6.909  18.265  0.00  0.00    +0.000 N 
ATOM      4  H   UNL     1       3.609   6.588  19.224  0.00  0.00    +0.000 HD
ENDROOT
BRANCH   1   9
ATOM      5  C   UNL     1       0.851  10.347  20.162  0.00  0.00    +0.000 A 
ATOM      6  C   UNL     1       0.670   9.594  21.332  0.00  0.00    +0.000 A 
ATOM      7  C   UNL     1       1.150   8.296  21.404  0.00  0.00    +0.000 A 
ATOM      8  C   UNL     1       1.793   7.766  20.299  0.00  0.00    +0.000 A 
ATOM      9  C   UNL     1       1.934   8.552  19.155  0.00  0.00    +0.000 A 
ATOM     10  N   UNL     1       1.472   9.827  19.056  0.00  0.00    +0.000 NA
BRANCH   5  17
ATOM     11  C   UNL     1      -2.855  13.730  20.723  0.00  0.00    +0.000 C 
ATOM     12  C   UNL     1      -1.448  13.414  20.309  0.00  0.00    +0.000 A 
ATOM     13  C   UNL     1      -0.615  14.398  19.775  0.00  0.00    +0.000 A 
ATOM     14  C   UNL     1       0.680  14.066  19.389  0.00  0.00    +0.000 A 
ATOM     15  C   UNL     1       1.138  12.752  19.516  0.00  0.00    +0.000 A 
ATOM     16  F   UNL     1       2.368  12.480  19.053  0.00  0.00    +0.000 F 
ATOM     17  C   UNL     1       0.351  11.734  20.063  0.00  0.00    +0.000 A 
ATOM     18  C   UNL     1      -0.945  12.111  20.469  0.00  0.00    +0.000 A 
ATOM     19  F   UNL     1      -1.762  11.204  21.034  0.00  0.00    +0.000 F 
ENDBRANCH   5  17
ENDBRANCH   1   9
BRANCH   3  20
ATOM     20  C   UNL     1       4.328   6.210  17.251  0.00  0.00    +0.000 A 
ATOM     21  C   UNL     1       5.110   6.901  16.311  0.00  0.00    +0.000 A 
ATOM     22  N   UNL     1       5.772   6.340  15.272  0.00  0.00    +0.000 NA
ATOM     23  C   UNL     1       5.662   5.008  15.146  0.00  0.00    +0.000 A 
ATOM     24  C   UNL     1       4.972   4.208  16.045  0.00  0.00    +0.000 A 
ATOM     25  C   UNL     1       4.325   4.796  17.145  0.00  0.00    +0.000 A 
BRANCH  25  26
ATOM     26  C   UNL     1       3.724   3.927  18.234  0.00  0.00    +0.000 C 
ATOM     27  C   UNL     1       4.722   3.557  19.336  0.00  0.00    +0.000 C 
ATOM     28  C   UNL     1       4.203   2.282  20.006  0.00  0.00    +0.000 C 
ATOM     29  C   UNL     1       2.841   2.524  20.670  0.00  0.00    +0.000 C 
ATOM     30  C   UNL     1       1.780   3.154  19.724  0.00  0.00    +0.000 C 
ATOM     31  C   UNL     1       1.229   2.111  18.724  0.00  0.00    +0.000 C 
ATOM     32  C   UNL     1       0.584   3.601  20.589  0.00  0.00    +0.000 C 
ATOM     33  C   UNL     1       2.400   4.353  18.939  0.00  0.00    +0.000 C 
BRANCH  28  34
ATOM     34  N   UNL     1       5.175   1.783  20.973  0.00  0.00    +0.000 NA
ATOM     35  H   UNL     1       4.743   1.077  21.567  0.00  0.00    +0.000 HD
ATOM     36  H   UNL     1       5.429   2.550  21.599  0.00  0.00    +0.000 HD
ENDBRANCH  28  34
ENDBRANCH  25  26
ENDBRANCH   3  20
TORSDOF 5
ENDMDL
