MODEL 1
REMARK VINA RESULT:      -9.1      0.000      0.000
REMARK  Name = 
REMARK  9 active torsions:
REMARK  status: ('A' for Active; 'I' for Inactive)
REMARK    1  A    between atoms: C_1  and  C_2
REMARK    2  A    between atoms: C_4  and  C_5
REMARK    3  A    between atoms: C_8  and  C_9
REMARK    4  A    between atoms: C_14  and  C_15
REMARK    5  A    between atoms: C_16  and  C_17
REMARK    6  A    between atoms: C_17  and  O_18
REMARK    7  A    between atoms: C_17  and  C_19
REMARK    8  A    between atoms: N_24  and  C_25
REMARK    9  A    between atoms: C_28  and  C_29
REMARK                            x       y       z     vdW  Elec       q    Type
REMARK                         _______ _______ _______ _____ _____    ______ ____
ROOT
ATOM      1  C   UNL     1       3.691   4.795  18.577  0.00  0.00    +0.000 C 
ENDROOT
BRANCH   1   9
ATOM      2  C   UNL     1       3.370   7.678  17.371  0.00  0.00    +0.000 C 
ATOM      3  C   UNL     1       2.752   7.205  18.665  0.00  0.00    +0.000 A 
ATOM      4  C   UNL     1       2.023   8.187  19.352  0.00  0.00    +0.000 A 
ATOM      5  C   UNL     1       1.327   7.935  20.536  0.00  0.00    +0.000 A 
ATOM      6  C   UNL     1       1.420   6.644  21.067  0.00  0.00    +0.000 A 
ATOM      7  C   UNL     1       2.176   5.637  20.441  0.00  0.00    +0.000 A 
ATOM      8  C   UNL     1       2.187   4.279  21.101  0.00  0.00    +0.000 C 
ATOM      9  C   UNL     1       2.866   5.904  19.227  0.00  0.00    +0.000 A 
BRANCH   5  10
ATOM     10  C   UNL     1       0.528   9.001  21.164  0.00  0.00    +0.000 A 
ATOM     11  C   UNL     1       0.072  10.097  20.411  0.00  0.00    +0.000 A 
ATOM     12  C   UNL     1      -0.638  11.137  20.992  0.00  0.00    +0.000 A 
ATOM     13  C   UNL     1      -0.930  11.089  22.355  0.00  0.00    +0.000 A 
ATOM     14  C   UNL     1      -0.514  10.005  23.124  0.00  0.00    +0.000 A 
ATOM     15  C   UNL     1       0.215   8.968  22.535  0.00  0.00    +0.000 A 
BRANCH  13  16
ATOM     16  C   UNL     1      -1.650  12.158  22.966  0.00  0.00    +0.000 C 
ATOM     17  N   UNL     1      -2.237  13.027  23.445  0.00  0.00    +0.000 NA
ENDBRANCH  13  16
ENDBRANCH   5  10
ENDBRANCH   1   9
BRANCH   1  18
ATOM     18  C   UNL     1       5.144   5.172  18.308  0.00  0.00    +0.000 A 
ATOM     19  C   UNL     1       6.020   5.408  19.348  0.00  0.00    +0.000 A 
ATOM     20  C   UNL     1       7.255   5.893  18.992  0.00  0.00    +0.000 A 
ATOM     21  N   UNL     1       7.650   6.071  17.717  0.00  0.00    +0.000 NA
ATOM     22  C   UNL     1       6.785   5.703  16.764  0.00  0.00    +0.000 A 
ATOM     23  N   UNL     1       7.205   5.803  15.440  0.00  0.00    +0.000 N 
ATOM     24  N   UNL     1       5.532   5.281  17.018  0.00  0.00    +0.000 NA
ATOM     25  H   UNL     1       8.035   6.367  15.345  0.00  0.00    +0.000 HD
BRANCH  23  26
ATOM     26  C   UNL     1       6.831   4.994  14.360  0.00  0.00    +0.000 A 
ATOM     27  C   UNL     1       5.716   4.155  14.471  0.00  0.00    +0.000 A 
ATOM     28  C   UNL     1       5.424   3.220  13.471  0.00  0.00    +0.000 A 
ATOM     29  C   UNL     1       6.235   3.124  12.335  0.00  0.00    +0.000 A 
ATOM     30  C   UNL     1       7.322   3.984  12.192  0.00  0.00    +0.000 A 
ATOM     31  C   UNL     1       7.614   4.905  13.199  0.00  0.00    +0.000 A 
BRANCH  29  32
ATOM     32  C   UNL     1       5.974   2.129  11.340  0.00  0.00    +0.000 C 
ATOM     33  N   UNL     1       5.750   1.319  10.537  0.00  0.00    +0.000 NA
ENDBRANCH  29  32
ENDBRANCH  23  26
ENDBRANCH   1  18
BRANCH   1  34
ATOM     34  O   UNL     1       2.990   4.371  17.406  0.00  0.00    +0.000 OA
ATOM     35  H   UNL     1       2.108   4.778  17.480  0.00  0.00    +0.000 HD
ENDBRANCH   1  34
TORSDOF 7
ENDMDL
MODEL 2
REMARK VINA RESULT:      -8.7      0.081      1.528
REMARK  Name = 
REMARK  9 active torsions:
REMARK  status: ('A' for Active; 'I' for Inactive)
REMARK    1  A    between atoms: C_1  and  C_2
REMARK    2  A    between atoms: C_4  and  C_5
REMARK    3  A    between atoms: C_8  and  C_9
REMARK    4  A    between atoms: C_14  and  C_15
REMARK    5  A    between atoms: C_16  and  C_17
REMARK    6  A    between atoms: C_17  and  O_18
REMARK    7  A    between atoms: C_17  and  C_19
REMARK    8  A    between atoms: N_24  and  C_25
REMARK    9  A    between atoms: C_28  and  C_29
REMARK                            x       y       z     vdW  Elec       q    Type
REMARK                         _______ _______ _______ _____ _____    ______ ____
ROOT
ATOM      1  C   UNL     1       3.722   4.750  18.585  0.00  0.00    +0.000 C 
ENDROOT
BRANCH   1   9
ATOM      2  C   UNL     1       2.168   4.345  21.286  0.00  0.00    +0.000 C 
ATOM      3  C   UNL     1       2.188   5.621  20.479  0.00  0.00    +0.000 A 
ATOM      4  C   UNL     1       1.402   6.654  21.010  0.00  0.00    +0.000 A 
ATOM      5  C   UNL     1       1.334   7.930  20.447  0.00  0.00    +0.000 A 
ATOM      6  C   UNL     1       2.054   8.146  19.267  0.00  0.00    +0.000 A 
ATOM      7  C   UNL     1       2.820   7.129  18.670  0.00  0.00    +0.000 A 
ATOM      8  C   UNL     1       3.566   7.486  17.408  0.00  0.00    +0.000 C 
ATOM      9  C   UNL     1       2.894   5.839  19.264  0.00  0.00    +0.000 A 
BRANCH   5  10
ATOM     10  C   UNL     1       0.538   8.984  21.101  0.00  0.00    +0.000 A 
ATOM     11  C   UNL     1       0.011  10.053  20.357  0.00  0.00    +0.000 A 
ATOM     12  C   UNL     1      -0.698  11.082  20.959  0.00  0.00    +0.000 A 
ATOM     13  C   UNL     1      -0.914  11.050  22.336  0.00  0.00    +0.000 A 
ATOM     14  C   UNL     1      -0.426   9.991  23.099  0.00  0.00    +0.000 A 
ATOM     15  C   UNL     1       0.300   8.966  22.487  0.00  0.00    +0.000 A 
BRANCH  13  16
ATOM     16  C   UNL     1      -1.632  12.107  22.969  0.00  0.00    +0.000 C 
ATOM     17  N   UNL     1      -2.227  12.953  23.480  0.00  0.00    +0.000 NA
ENDBRANCH  13  16
ENDBRANCH   5  10
ENDBRANCH   1   9
BRANCH   1  18
ATOM     18  C   UNL     1       5.168   5.145  18.308  0.00  0.00    +0.000 A 
ATOM     19  C   UNL     1       6.048   5.389  19.343  0.00  0.00    +0.000 A 
ATOM     20  C   UNL     1       7.275   5.890  18.981  0.00  0.00    +0.000 A 
ATOM     21  N   UNL     1       7.660   6.075  17.704  0.00  0.00    +0.000 NA
ATOM     22  C   UNL     1       6.794   5.699  16.754  0.00  0.00    +0.000 A 
ATOM     23  N   UNL     1       7.204   5.807  15.429  0.00  0.00    +0.000 N 
ATOM     24  N   UNL     1       5.547   5.262  17.016  0.00  0.00    +0.000 NA
ATOM     25  H   UNL     1       8.027   6.380  15.329  0.00  0.00    +0.000 HD
BRANCH  23  26
ATOM     26  C   UNL     1       6.833   4.995  14.349  0.00  0.00    +0.000 A 
ATOM     27  C   UNL     1       5.706   4.172  14.451  0.00  0.00    +0.000 A 
ATOM     28  C   UNL     1       5.414   3.234  13.453  0.00  0.00    +0.000 A 
ATOM     29  C   UNL     1       6.238   3.120  12.329  0.00  0.00    +0.000 A 
ATOM     30  C   UNL     1       7.338   3.965  12.194  0.00  0.00    +0.000 A 
ATOM     31  C   UNL     1       7.630   4.888  13.199  0.00  0.00    +0.000 A 
BRANCH  29  32
ATOM     32  C   UNL     1       5.976   2.122  11.337  0.00  0.00    +0.000 C 
ATOM     33  N   UNL     1       5.775   1.315  10.524  0.00  0.00    +0.000 NA
ENDBRANCH  29  32
ENDBRANCH  23  26
ENDBRANCH   1  18
BRANCH   1  34
ATOM     34  O   UNL     1       3.012   4.342  17.413  0.00  0.00    +0.000 OA
ATOM     35  H   UNL     1       3.005   5.129  16.838  0.00  0.00    +0.000 HD
ENDBRANCH   1  34
TORSDOF 7
ENDMDL
MODEL 3
REMARK VINA RESULT:      -8.4      4.655     11.516
REMARK  Name = 
REMARK  9 active torsions:
REMARK  status: ('A' for Active; 'I' for Inactive)
REMARK    1  A    between atoms: C_1  and  C_2
REMARK    2  A    between atoms: C_4  and  C_5
REMARK    3  A    between atoms: C_8  and  C_9
REMARK    4  A    between atoms: C_14  and  C_15
REMARK    5  A    between atoms: C_16  and  C_17
REMARK    6  A    between atoms: C_17  and  O_18
REMARK    7  A    between atoms: C_17  and  C_19
REMARK    8  A    between atoms: N_24  and  C_25
REMARK    9  A    between atoms: C_28  and  C_29
REMARK                            x       y       z     vdW  Elec       q    Type
REMARK                         _______ _______ _______ _____ _____    ______ ____
ROOT
ATOM      1  C   UNL     1      -0.093  10.688  19.682  0.00  0.00    +0.000 C 
ENDROOT
BRANCH   1   9
ATOM      2  C   UNL     1       2.055   9.733  17.597  0.00  0.00    +0.000 C 
ATOM      3  C   UNL     1       1.602   8.942  18.801  0.00  0.00    +0.000 A 
ATOM      4  C   UNL     1       2.196   7.677  18.919  0.00  0.00    +0.000 A 
ATOM      5  C   UNL     1       1.956   6.817  19.992  0.00  0.00    +0.000 A 
ATOM      6  C   UNL     1       1.035   7.241  20.956  0.00  0.00    +0.000 A 
ATOM      7  C   UNL     1       0.379   8.481  20.859  0.00  0.00    +0.000 A 
ATOM      8  C   UNL     1      -0.580   8.837  21.969  0.00  0.00    +0.000 C 
ATOM      9  C   UNL     1       0.646   9.355  19.769  0.00  0.00    +0.000 A 
BRANCH   5  10
ATOM     10  C   UNL     1       2.669   5.530  20.081  0.00  0.00    +0.000 A 
ATOM     11  C   UNL     1       2.170   4.485  20.877  0.00  0.00    +0.000 A 
ATOM     12  C   UNL     1       2.851   3.284  21.015  0.00  0.00    +0.000 A 
ATOM     13  C   UNL     1       4.051   3.096  20.331  0.00  0.00    +0.000 A 
ATOM     14  C   UNL     1       4.560   4.103  19.514  0.00  0.00    +0.000 A 
ATOM     15  C   UNL     1       3.877   5.315  19.392  0.00  0.00    +0.000 A 
BRANCH  13  16
ATOM     16  C   UNL     1       4.766   1.869  20.473  0.00  0.00    +0.000 C 
ATOM     17  N   UNL     1       5.345   0.877  20.570  0.00  0.00    +0.000 NA
ENDBRANCH  13  16
ENDBRANCH   5  10
ENDBRANCH   1   9
BRANCH   1  18
ATOM     18  C   UNL     1      -1.248  10.700  18.687  0.00  0.00    +0.000 A 
ATOM     19  C   UNL     1      -1.156  10.029  17.484  0.00  0.00    +0.000 A 
ATOM     20  C   UNL     1      -2.186  10.237  16.601  0.00  0.00    +0.000 A 
ATOM     21  N   UNL     1      -3.272  10.983  16.881  0.00  0.00    +0.000 NA
ATOM     22  C   UNL     1      -3.343  11.502  18.113  0.00  0.00    +0.000 A 
ATOM     23  N   UNL     1      -4.494  12.209  18.449  0.00  0.00    +0.000 N 
ATOM     24  N   UNL     1      -2.352  11.405  19.020  0.00  0.00    +0.000 NA
ATOM     25  H   UNL     1      -5.045  12.449  17.639  0.00  0.00    +0.000 HD
BRANCH  23  26
ATOM     26  C   UNL     1      -5.097  12.315  19.709  0.00  0.00    +0.000 A 
ATOM     27  C   UNL     1      -6.241  11.563  20.000  0.00  0.00    +0.000 A 
ATOM     28  C   UNL     1      -6.952  11.776  21.187  0.00  0.00    +0.000 A 
ATOM     29  C   UNL     1      -6.517  12.734  22.109  0.00  0.00    +0.000 A 
ATOM     30  C   UNL     1      -5.354  13.457  21.851  0.00  0.00    +0.000 A 
ATOM     31  C   UNL     1      -4.657  13.248  20.660  0.00  0.00    +0.000 A 
BRANCH  29  32
ATOM     32  C   UNL     1      -7.275  12.996  23.294  0.00  0.00    +0.000 C 
ATOM     33  N   UNL     1      -7.902  13.203  24.251  0.00  0.00    +0.000 NA
ENDBRANCH  29  32
ENDBRANCH  23  26
ENDBRANCH   1  18
BRANCH   1  34
ATOM     34  O   UNL     1       0.883  11.702  19.429  0.00  0.00    +0.000 OA
ATOM     35  H   UNL     1       0.904  12.239  20.242  0.00  0.00    +0.000 HD
ENDBRANCH   1  34
TORSDOF 7
ENDMDL
MODEL 4
REMARK VINA RESULT:      -8.3      4.320     10.326
REMARK  Name = 
REMARK  9 active torsions:
REMARK  status: ('A' for Active; 'I' for Inactive)
REMARK    1  A    between atoms: C_1  and  C_2
REMARK    2  A    between atoms: C_4  and  C_5
REMARK    3  A    between atoms: C_8  and  C_9
REMARK    4  A    between atoms: C_14  and  C_15
REMARK    5  A    between atoms: C_16  and  C_17
REMARK    6  A    between atoms: C_17  and  O_18
REMARK    7  A    between atoms: C_17  and  C_19
REMARK    8  A    between atoms: N_24  and  C_25
REMARK    9  A    between atoms: C_28  and  C_29
REMARK                            x       y       z     vdW  Elec       q    Type
REMARK                         _______ _______ _______ _____ _____    ______ ____
ROOT
ATOM      1  C   UNL     1      -1.567  13.373  21.635  0.00  0.00    +0.000 C 
ENDROOT
BRANCH   1   9
ATOM      2  C   UNL     1      -0.241  13.482  18.788  0.00  0.00    +0.000 C 
ATOM      3  C   UNL     1      -0.179  12.303  19.730  0.00  0.00    +0.000 A 
ATOM      4  C   UNL     1       0.505  11.190  19.220  0.00  0.00    +0.000 A 
ATOM      5  C   UNL     1       0.724  10.024  19.956  0.00  0.00    +0.000 A 
ATOM      6  C   UNL     1       0.179   9.971  21.243  0.00  0.00    +0.000 A 
ATOM      7  C   UNL     1      -0.554  11.043  21.783  0.00  0.00    +0.000 A 
ATOM      8  C   UNL     1      -1.078  10.875  23.189  0.00  0.00    +0.000 C 
ATOM      9  C   UNL     1      -0.754  12.231  21.029  0.00  0.00    +0.000 A 
BRANCH   5  10
ATOM     10  C   UNL     1       1.509   8.921  19.375  0.00  0.00    +0.000 A 
ATOM     11  C   UNL     1       1.980   8.992  18.053  0.00  0.00    +0.000 A 
ATOM     12  C   UNL     1       2.679   7.945  17.470  0.00  0.00    +0.000 A 
ATOM     13  C   UNL     1       2.942   6.797  18.217  0.00  0.00    +0.000 A 
ATOM     14  C   UNL     1       2.510   6.706  19.539  0.00  0.00    +0.000 A 
ATOM     15  C   UNL     1       1.794   7.758  20.114  0.00  0.00    +0.000 A 
BRANCH  13  16
ATOM     16  C   UNL     1       3.650   5.709  17.625  0.00  0.00    +0.000 C 
ATOM     17  N   UNL     1       4.233   4.830  17.160  0.00  0.00    +0.000 NA
ENDBRANCH  13  16
ENDBRANCH   5  10
ENDBRANCH   1   9
BRANCH   1  18
ATOM     18  C   UNL     1      -3.048  13.347  21.274  0.00  0.00    +0.000 A 
ATOM     19  C   UNL     1      -3.953  14.157  21.929  0.00  0.00    +0.000 A 
ATOM     20  C   UNL     1      -5.276  13.938  21.635  0.00  0.00    +0.000 A 
ATOM     21  N   UNL     1      -5.702  13.049  20.718  0.00  0.00    +0.000 NA
ATOM     22  C   UNL     1      -4.756  12.388  20.039  0.00  0.00    +0.000 A 
ATOM     23  N   UNL     1      -5.173  11.524  19.030  0.00  0.00    +0.000 N 
ATOM     24  N   UNL     1      -3.440  12.490  20.305  0.00  0.00    +0.000 NA
ATOM     25  H   UNL     1      -6.158  11.318  19.086  0.00  0.00    +0.000 HD
BRANCH  23  26
ATOM     26  C   UNL     1      -4.501  11.208  17.842  0.00  0.00    +0.000 A 
ATOM     27  C   UNL     1      -4.842  11.864  16.654  0.00  0.00    +0.000 A 
ATOM     28  C   UNL     1      -4.304  11.449  15.430  0.00  0.00    +0.000 A 
ATOM     29  C   UNL     1      -3.401  10.382  15.381  0.00  0.00    +0.000 A 
ATOM     30  C   UNL     1      -3.019   9.750  16.563  0.00  0.00    +0.000 A 
ATOM     31  C   UNL     1      -3.569  10.161  17.777  0.00  0.00    +0.000 A 
BRANCH  29  32
ATOM     32  C   UNL     1      -2.895   9.917  14.125  0.00  0.00    +0.000 C 
ATOM     33  N   UNL     1      -2.478   9.529  13.112  0.00  0.00    +0.000 NA
ENDBRANCH  29  32
ENDBRANCH  23  26
ENDBRANCH   1  18
BRANCH   1  34
ATOM     34  O   UNL     1      -0.919  14.596  21.277  0.00  0.00    +0.000 OA
ATOM     35  H   UNL     1      -1.240  15.249  21.925  0.00  0.00    +0.000 HD
ENDBRANCH   1  34
TORSDOF 7
ENDMDL
MODEL 5
REMARK VINA RESULT:      -8.1      4.370      9.579
REMARK  Name = 
REMARK  9 active torsions:
REMARK  status: ('A' for Active; 'I' for Inactive)
REMARK    1  A    between atoms: C_1  and  C_2
REMARK    2  A    between atoms: C_4  and  C_5
REMARK    3  A    between atoms: C_8  and  C_9
REMARK    4  A    between atoms: C_14  and  C_15
REMARK    5  A    between atoms: C_16  and  C_17
REMARK    6  A    between atoms: C_17  and  O_18
REMARK    7  A    between atoms: C_17  and  C_19
REMARK    8  A    between atoms: N_24  and  C_25
REMARK    9  A    between atoms: C_28  and  C_29
REMARK                            x       y       z     vdW  Elec       q    Type
REMARK                         _______ _______ _______ _____ _____    ______ ____
ROOT
ATOM      1  C   UNL     1       0.244  12.311  21.065  0.00  0.00    +0.000 C 
ENDROOT
BRANCH   1   9
ATOM      2  C   UNL     1       1.595  11.596  18.320  0.00  0.00    +0.000 C 
ATOM      3  C   UNL     1       1.286  10.608  19.419  0.00  0.00    +0.000 A 
ATOM      4  C   UNL     1       1.618   9.280  19.113  0.00  0.00    +0.000 A 
ATOM      5  C   UNL     1       1.466   8.226  20.016  0.00  0.00    +0.000 A 
ATOM      6  C   UNL     1       0.906   8.530  21.262  0.00  0.00    +0.000 A 
ATOM      7  C   UNL     1       0.515   9.837  21.600  0.00  0.00    +0.000 A 
ATOM      8  C   UNL     1      -0.061  10.044  22.979  0.00  0.00    +0.000 C 
ATOM      9  C   UNL     1       0.692  10.904  20.676  0.00  0.00    +0.000 A 
BRANCH   5  10
ATOM     10  C   UNL     1       1.899   6.867  19.645  0.00  0.00    +0.000 A 
ATOM     11  C   UNL     1       2.409   6.600  18.363  0.00  0.00    +0.000 A 
ATOM     12  C   UNL     1       2.776   5.319  17.976  0.00  0.00    +0.000 A 
ATOM     13  C   UNL     1       2.657   4.269  18.886  0.00  0.00    +0.000 A 
ATOM     14  C   UNL     1       2.178   4.505  20.172  0.00  0.00    +0.000 A 
ATOM     15  C   UNL     1       1.796   5.795  20.550  0.00  0.00    +0.000 A 
BRANCH  13  16
ATOM     16  C   UNL     1       3.021   2.946  18.496  0.00  0.00    +0.000 C 
ATOM     17  N   UNL     1       3.310   1.870  18.197  0.00  0.00    +0.000 NA
ENDBRANCH  13  16
ENDBRANCH   5  10
ENDBRANCH   1   9
BRANCH   1  18
ATOM     18  C   UNL     1      -1.261  12.539  20.965  0.00  0.00    +0.000 A 
ATOM     19  C   UNL     1      -1.907  13.398  21.830  0.00  0.00    +0.000 A 
ATOM     20  C   UNL     1      -3.278  13.406  21.753  0.00  0.00    +0.000 A 
ATOM     21  N   UNL     1      -3.982  12.691  20.854  0.00  0.00    +0.000 NA
ATOM     22  C   UNL     1      -3.275  11.975  19.971  0.00  0.00    +0.000 A 
ATOM     23  N   UNL     1      -3.979  11.293  18.983  0.00  0.00    +0.000 N 
ATOM     24  N   UNL     1      -1.933  11.856  20.013  0.00  0.00    +0.000 NA
ATOM     25  H   UNL     1      -4.963  11.228  19.192  0.00  0.00    +0.000 HD
BRANCH  23  26
ATOM     26  C   UNL     1      -3.564  11.010  17.676  0.00  0.00    +0.000 A 
ATOM     27  C   UNL     1      -4.270  11.543  16.591  0.00  0.00    +0.000 A 
ATOM     28  C   UNL     1      -3.976  11.142  15.282  0.00  0.00    +0.000 A 
ATOM     29  C   UNL     1      -2.958  10.214  15.039  0.00  0.00    +0.000 A 
ATOM     30  C   UNL     1      -2.218   9.711  16.108  0.00  0.00    +0.000 A 
ATOM     31  C   UNL     1      -2.525  10.106  17.410  0.00  0.00    +0.000 A 
BRANCH  29  32
ATOM     32  C   UNL     1      -2.695   9.757  13.709  0.00  0.00    +0.000 C 
ATOM     33  N   UNL     1      -2.489   9.396  12.623  0.00  0.00    +0.000 NA
ENDBRANCH  29  32
ENDBRANCH  23  26
ENDBRANCH   1  18
BRANCH   1  34
ATOM     34  O   UNL     1       1.009  13.234  20.287  0.00  0.00    +0.000 OA
ATOM     35  H   UNL     1       0.552  14.088  20.390  0.00  0.00    +0.000 HD
ENDBRANCH   1  34
TORSDOF 7
ENDMDL
MODEL 6
REMARK VINA RESULT:      -8.0      4.347      9.986
REMARK  Name = 
REMARK  9 active torsions:
REMARK  status: ('A' for Active; 'I' for Inactive)
REMARK    1  A    between atoms: C_1  and  C_2
REMARK    2  A    between atoms: C_4  and  C_5
REMARK    3  A    between atoms: C_8  and  C_9
REMARK    4  A    between atoms: C_14  and  C_15
REMARK    5  A    between atoms: C_16  and  C_17
REMARK    6  A    between atoms: C_17  and  O_18
REMARK    7  A    between atoms: C_17  and  C_19
REMARK    8  A    between atoms: N_24  and  C_25
REMARK    9  A    between atoms: C_28  and  C_29
REMARK                            x       y       z     vdW  Elec       q    Type
REMARK                         _______ _______ _______ _____ _____    ______ ____
ROOT
ATOM      1  C   UNL     1      -0.641  12.848  21.270  0.00  0.00    +0.000 C 
ENDROOT
BRANCH   1   9
ATOM      2  C   UNL     1      -0.622  10.344  23.168  0.00  0.00    +0.000 C 
ATOM      3  C   UNL     1      -0.024  10.387  21.782  0.00  0.00    +0.000 A 
ATOM      4  C   UNL     1       0.607   9.198  21.386  0.00  0.00    +0.000 A 
ATOM      5  C   UNL     1       1.169   9.016  20.121  0.00  0.00    +0.000 A 
ATOM      6  C   UNL     1       1.132  10.104  19.243  0.00  0.00    +0.000 A 
ATOM      7  C   UNL     1       0.552  11.332  19.609  0.00  0.00    +0.000 A 
ATOM      8  C   UNL     1       0.557  12.428  18.571  0.00  0.00    +0.000 C 
ATOM      9  C   UNL     1      -0.032  11.498  20.895  0.00  0.00    +0.000 A 
BRANCH   5  10
ATOM     10  C   UNL     1       1.755   7.714  19.754  0.00  0.00    +0.000 A 
ATOM     11  C   UNL     1       2.408   7.541  18.523  0.00  0.00    +0.000 A 
ATOM     12  C   UNL     1       2.923   6.312  18.136  0.00  0.00    +0.000 A 
ATOM     13  C   UNL     1       2.811   5.222  18.997  0.00  0.00    +0.000 A 
ATOM     14  C   UNL     1       2.191   5.367  20.236  0.00  0.00    +0.000 A 
ATOM     15  C   UNL     1       1.661   6.603  20.612  0.00  0.00    +0.000 A 
BRANCH  13  16
ATOM     16  C   UNL     1       3.327   3.950  18.607  0.00  0.00    +0.000 C 
ATOM     17  N   UNL     1       3.728   2.916  18.290  0.00  0.00    +0.000 NA
ENDBRANCH  13  16
ENDBRANCH   5  10
ENDBRANCH   1   9
BRANCH   1  18
ATOM     18  C   UNL     1      -2.144  12.944  21.031  0.00  0.00    +0.000 A 
ATOM     19  C   UNL     1      -2.931  13.786  21.791  0.00  0.00    +0.000 A 
ATOM     20  C   UNL     1      -4.286  13.675  21.599  0.00  0.00    +0.000 A 
ATOM     21  N   UNL     1      -4.848  12.862  20.684  0.00  0.00    +0.000 NA
ATOM     22  C   UNL     1      -4.011  12.167  19.903  0.00  0.00    +0.000 A 
ATOM     23  N   UNL     1      -4.569  11.383  18.898  0.00  0.00    +0.000 N 
ATOM     24  N   UNL     1      -2.674  12.163  20.064  0.00  0.00    +0.000 NA
ATOM     25  H   UNL     1      -5.560  11.245  19.027  0.00  0.00    +0.000 HD
BRANCH  23  26
ATOM     26  C   UNL     1      -4.020  11.075  17.647  0.00  0.00    +0.000 A 
ATOM     27  C   UNL     1      -4.576  11.626  16.487  0.00  0.00    +0.000 A 
ATOM     28  C   UNL     1      -4.151  11.204  15.222  0.00  0.00    +0.000 A 
ATOM     29  C   UNL     1      -3.148  10.237  15.100  0.00  0.00    +0.000 A 
ATOM     30  C   UNL     1      -2.555   9.714  16.247  0.00  0.00    +0.000 A 
ATOM     31  C   UNL     1      -2.993  10.130  17.505  0.00  0.00    +0.000 A 
BRANCH  29  32
ATOM     32  C   UNL     1      -2.754   9.760  13.809  0.00  0.00    +0.000 C 
ATOM     33  N   UNL     1      -2.422   9.380  12.762  0.00  0.00    +0.000 NA
ENDBRANCH  29  32
ENDBRANCH  23  26
ENDBRANCH   1  18
BRANCH   1  34
ATOM     34  O   UNL     1       0.106  13.858  20.588  0.00  0.00    +0.000 OA
ATOM     35  H   UNL     1      -0.418  14.673  20.695  0.00  0.00    +0.000 HD
ENDBRANCH   1  34
TORSDOF 7
ENDMDL
MODEL 7
REMARK VINA RESULT:      -8.0      4.378      9.789
REMARK  Name = 
REMARK  9 active torsions:
REMARK  status: ('A' for Active; 'I' for Inactive)
REMARK    1  A    between atoms: C_1  and  C_2
REMARK    2  A    between atoms: C_4  and  C_5
REMARK    3  A    between atoms: C_8  and  C_9
REMARK    4  A    between atoms: C_14  and  C_15
REMARK    5  A    between atoms: C_16  and  C_17
REMARK    6  A    between atoms: C_17  and  O_18
REMARK    7  A    between atoms: C_17  and  C_19
REMARK    8  A    between atoms: N_24  and  C_25
REMARK    9  A    between atoms: C_28  and  C_29
REMARK                            x       y       z     vdW  Elec       q    Type
REMARK                         _______ _______ _______ _____ _____    ______ ____
ROOT
ATOM      1  C   UNL     1       0.027  12.375  21.185  0.00  0.00    +0.000 C 
ENDROOT
BRANCH   1   9
ATOM      2  C   UNL     1      -0.151   9.903  23.117  0.00  0.00    +0.000 C 
ATOM      3  C   UNL     1       0.408   9.871  21.715  0.00  0.00    +0.000 A 
ATOM      4  C   UNL     1       0.905   8.620  21.318  0.00  0.00    +0.000 A 
ATOM      5  C   UNL     1       1.409   8.367  20.041  0.00  0.00    +0.000 A 
ATOM      6  C   UNL     1       1.456   9.444  19.150  0.00  0.00    +0.000 A 
ATOM      7  C   UNL     1       1.013  10.728  19.514  0.00  0.00    +0.000 A 
ATOM      8  C   UNL     1       1.099  11.806  18.461  0.00  0.00    +0.000 C 
ATOM      9  C   UNL     1       0.486  10.967  20.813  0.00  0.00    +0.000 A 
BRANCH   5  10
ATOM     10  C   UNL     1       1.851   7.010  19.677  0.00  0.00    +0.000 A 
ATOM     11  C   UNL     1       1.736   5.947  20.590  0.00  0.00    +0.000 A 
ATOM     12  C   UNL     1       2.192   4.673  20.287  0.00  0.00    +0.000 A 
ATOM     13  C   UNL     1       2.761   4.428  19.038  0.00  0.00    +0.000 A 
ATOM     14  C   UNL     1       2.866   5.454  18.102  0.00  0.00    +0.000 A 
ATOM     15  C   UNL     1       2.419   6.739  18.419  0.00  0.00    +0.000 A 
BRANCH  13  16
ATOM     16  C   UNL     1       3.243   3.124  18.719  0.00  0.00    +0.000 C 
ATOM     17  N   UNL     1       3.617   2.063  18.464  0.00  0.00    +0.000 NA
ENDBRANCH  13  16
ENDBRANCH   5  10
ENDBRANCH   1   9
BRANCH   1  18
ATOM     18  C   UNL     1      -1.473  12.606  21.030  0.00  0.00    +0.000 A 
ATOM     19  C   UNL     1      -2.147  13.477  21.861  0.00  0.00    +0.000 A 
ATOM     20  C   UNL     1      -3.514  13.487  21.736  0.00  0.00    +0.000 A 
ATOM     21  N   UNL     1      -4.188  12.763  20.822  0.00  0.00    +0.000 NA
ATOM     22  C   UNL     1      -3.452  12.035  19.972  0.00  0.00    +0.000 A 
ATOM     23  N   UNL     1      -4.124  11.343  18.968  0.00  0.00    +0.000 N 
ATOM     24  N   UNL     1      -2.114  11.913  20.062  0.00  0.00    +0.000 NA
ATOM     25  H   UNL     1      -5.115  11.283  19.143  0.00  0.00    +0.000 HD
BRANCH  23  26
ATOM     26  C   UNL     1      -3.664  11.044  17.679  0.00  0.00    +0.000 A 
ATOM     27  C   UNL     1      -4.310  11.592  16.565  0.00  0.00    +0.000 A 
ATOM     28  C   UNL     1      -3.975  11.178  15.271  0.00  0.00    +0.000 A 
ATOM     29  C   UNL     1      -2.973  10.221  15.072  0.00  0.00    +0.000 A 
ATOM     30  C   UNL     1      -2.291   9.702  16.171  0.00  0.00    +0.000 A 
ATOM     31  C   UNL     1      -2.640  10.110  17.459  0.00  0.00    +0.000 A 
BRANCH  29  32
ATOM     32  C   UNL     1      -2.670   9.752  13.755  0.00  0.00    +0.000 C 
ATOM     33  N   UNL     1      -2.411   9.367  12.689  0.00  0.00    +0.000 NA
ENDBRANCH  29  32
ENDBRANCH  23  26
ENDBRANCH   1  18
BRANCH   1  34
ATOM     34  O   UNL     1       0.822  13.297  20.435  0.00  0.00    +0.000 OA
ATOM     35  H   UNL     1       0.322  14.133  20.454  0.00  0.00    +0.000 HD
ENDBRANCH   1  34
TORSDOF 7
ENDMDL
MODEL 8
REMARK VINA RESULT:      -7.9      3.931      8.423
REMARK  Name = 
REMARK  9 active torsions:
REMARK  status: ('A' for Active; 'I' for Inactive)
REMARK    1  A    between atoms: C_1  and  C_2
REMARK    2  A    between atoms: C_4  and  C_5
REMARK    3  A    between atoms: C_8  and  C_9
REMARK    4  A    between atoms: C_14  and  C_15
REMARK    5  A    between atoms: C_16  and  C_17
REMARK    6  A    between atoms: C_17  and  O_18
REMARK    7  A    between atoms: C_17  and  C_19
REMARK    8  A    between atoms: N_24  and  C_25
REMARK    9  A    between atoms: C_28  and  C_29
REMARK                            x       y       z     vdW  Elec       q    Type
REMARK                         _______ _______ _______ _____ _____    ______ ____
ROOT
ATOM      1  C   UNL     1       5.969   4.732  17.466  0.00  0.00    +0.000 C 
ENDROOT
BRANCH   1   9
ATOM      2  C   UNL     1       8.371   5.149  19.449  0.00  0.00    +0.000 C 
ATOM      3  C   UNL     1       7.743   6.232  18.605  0.00  0.00    +0.000 A 
ATOM      4  C   UNL     1       8.296   7.507  18.795  0.00  0.00    +0.000 A 
ATOM      5  C   UNL     1       7.897   8.631  18.069  0.00  0.00    +0.000 A 
ATOM      6  C   UNL     1       6.858   8.458  17.148  0.00  0.00    +0.000 A 
ATOM      7  C   UNL     1       6.240   7.210  16.953  0.00  0.00    +0.000 A 
ATOM      8  C   UNL     1       5.141   7.144  15.920  0.00  0.00    +0.000 C 
ATOM      9  C   UNL     1       6.669   6.071  17.688  0.00  0.00    +0.000 A 
BRANCH   5  10
ATOM     10  C   UNL     1       8.571   9.924  18.278  0.00  0.00    +0.000 A 
ATOM     11  C   UNL     1       9.560  10.067  19.267  0.00  0.00    +0.000 A 
ATOM     12  C   UNL     1      10.172  11.287  19.515  0.00  0.00    +0.000 A 
ATOM     13  C   UNL     1       9.816  12.399  18.752  0.00  0.00    +0.000 A 
ATOM     14  C   UNL     1       8.857  12.284  17.748  0.00  0.00    +0.000 A 
ATOM     15  C   UNL     1       8.234  11.056  17.514  0.00  0.00    +0.000 A 
BRANCH  13  16
ATOM     16  C   UNL     1      10.430  13.662  19.005  0.00  0.00    +0.000 C 
ATOM     17  N   UNL     1      10.917  14.690  19.198  0.00  0.00    +0.000 NA
ENDBRANCH  13  16
ENDBRANCH   5  10
ENDBRANCH   1   9
BRANCH   1  18
ATOM     18  C   UNL     1       4.958   4.367  18.548  0.00  0.00    +0.000 A 
ATOM     19  C   UNL     1       5.133   3.245  19.334  0.00  0.00    +0.000 A 
ATOM     20  C   UNL     1       4.086   2.926  20.164  0.00  0.00    +0.000 A 
ATOM     21  N   UNL     1       2.974   3.675  20.287  0.00  0.00    +0.000 NA
ATOM     22  C   UNL     1       2.934   4.812  19.581  0.00  0.00    +0.000 A 
ATOM     23  N   UNL     1       1.829   5.640  19.756  0.00  0.00    +0.000 N 
ATOM     24  N   UNL     1       3.882   5.171  18.694  0.00  0.00    +0.000 NA
ATOM     25  H   UNL     1       1.070   5.170  20.223  0.00  0.00    +0.000 HD
BRANCH  23  26
ATOM     26  C   UNL     1       1.785   7.038  19.670  0.00  0.00    +0.000 A 
ATOM     27  C   UNL     1       1.305   7.787  20.751  0.00  0.00    +0.000 A 
ATOM     28  C   UNL     1       1.096   9.166  20.627  0.00  0.00    +0.000 A 
ATOM     29  C   UNL     1       1.383   9.818  19.423  0.00  0.00    +0.000 A 
ATOM     30  C   UNL     1       1.905   9.091  18.354  0.00  0.00    +0.000 A 
ATOM     31  C   UNL     1       2.098   7.715  18.482  0.00  0.00    +0.000 A 
BRANCH  29  32
ATOM     32  C   UNL     1       1.115  11.216  19.274  0.00  0.00    +0.000 C 
ATOM     33  N   UNL     1       0.910  12.353  19.148  0.00  0.00    +0.000 NA
ENDBRANCH  29  32
ENDBRANCH  23  26
ENDBRANCH   1  18
BRANCH   1  34
ATOM     34  O   UNL     1       6.985   3.743  17.285  0.00  0.00    +0.000 OA
ATOM     35  H   UNL     1       7.741   4.227  16.905  0.00  0.00    +0.000 HD
ENDBRANCH   1  34
TORSDOF 7
ENDMDL
MODEL 9
REMARK VINA RESULT:      -7.9      4.001     10.414
REMARK  Name = 
REMARK  9 active torsions:
REMARK  status: ('A' for Active; 'I' for Inactive)
REMARK    1  A    between atoms: C_1  and  C_2
REMARK    2  A    between atoms: C_4  and  C_5
REMARK    3  A    between atoms: C_8  and  C_9
REMARK    4  A    between atoms: C_14  and  C_15
REMARK    5  A    between atoms: C_16  and  C_17
REMARK    6  A    between atoms: C_17  and  O_18
REMARK    7  A    between atoms: C_17  and  C_19
REMARK    8  A    between atoms: N_24  and  C_25
REMARK    9  A    between atoms: C_28  and  C_29
REMARK                            x       y       z     vdW  Elec       q    Type
REMARK                         _______ _______ _______ _____ _____    ______ ____
ROOT
ATOM      1  C   UNL     1      -0.643  13.149  22.209  0.00  0.00    +0.000 C 
ENDROOT
BRANCH   1   9
ATOM      2  C   UNL     1      -0.759  10.234  23.378  0.00  0.00    +0.000 C 
ATOM      3  C   UNL     1      -0.113  10.619  22.068  0.00  0.00    +0.000 A 
ATOM      4  C   UNL     1       0.496   9.554  21.388  0.00  0.00    +0.000 A 
ATOM      5  C   UNL     1       1.095   9.691  20.134  0.00  0.00    +0.000 A 
ATOM      6  C   UNL     1       1.118  10.973  19.575  0.00  0.00    +0.000 A 
ATOM      7  C   UNL     1       0.562  12.081  20.238  0.00  0.00    +0.000 A 
ATOM      8  C   UNL     1       0.634  13.410  19.527  0.00  0.00    +0.000 C 
ATOM      9  C   UNL     1      -0.060  11.924  21.507  0.00  0.00    +0.000 A 
BRANCH   5  10
ATOM     10  C   UNL     1       1.656   8.511  19.452  0.00  0.00    +0.000 A 
ATOM     11  C   UNL     1       1.833   7.299  20.141  0.00  0.00    +0.000 A 
ATOM     12  C   UNL     1       2.406   6.191  19.532  0.00  0.00    +0.000 A 
ATOM     13  C   UNL     1       2.798   6.270  18.197  0.00  0.00    +0.000 A 
ATOM     14  C   UNL     1       2.613   7.450  17.479  0.00  0.00    +0.000 A 
ATOM     15  C   UNL     1       2.050   8.566  18.103  0.00  0.00    +0.000 A 
BRANCH  13  16
ATOM     16  C   UNL     1       3.398   5.142  17.563  0.00  0.00    +0.000 C 
ATOM     17  N   UNL     1       3.887   4.239  17.038  0.00  0.00    +0.000 NA
ENDBRANCH  13  16
ENDBRANCH   5  10
ENDBRANCH   1   9
BRANCH   1  18
ATOM     18  C   UNL     1      -2.138  13.345  21.987  0.00  0.00    +0.000 A 
ATOM     19  C   UNL     1      -2.864  14.218  22.772  0.00  0.00    +0.000 A 
ATOM     20  C   UNL     1      -4.225  14.198  22.590  0.00  0.00    +0.000 A 
ATOM     21  N   UNL     1      -4.845  13.442  21.663  0.00  0.00    +0.000 NA
ATOM     22  C   UNL     1      -4.060  12.714  20.860  0.00  0.00    +0.000 A 
ATOM     23  N   UNL     1      -4.675  11.988  19.843  0.00  0.00    +0.000 N 
ATOM     24  N   UNL     1      -2.724  12.621  21.008  0.00  0.00    +0.000 NA
ATOM     25  H   UNL     1      -5.671  11.911  19.978  0.00  0.00    +0.000 HD
BRANCH  23  26
ATOM     26  C   UNL     1      -4.156  11.674  18.581  0.00  0.00    +0.000 A 
ATOM     27  C   UNL     1      -4.944  11.855  17.439  0.00  0.00    +0.000 A 
ATOM     28  C   UNL     1      -4.509  11.394  16.191  0.00  0.00    +0.000 A 
ATOM     29  C   UNL     1      -3.268  10.761  16.065  0.00  0.00    +0.000 A 
ATOM     30  C   UNL     1      -2.454  10.616  17.187  0.00  0.00    +0.000 A 
ATOM     31  C   UNL     1      -2.900  11.066  18.430  0.00  0.00    +0.000 A 
BRANCH  29  32
ATOM     32  C   UNL     1      -2.846  10.235  14.802  0.00  0.00    +0.000 C 
ATOM     33  N   UNL     1      -2.515   9.800  13.777  0.00  0.00    +0.000 NA
ENDBRANCH  29  32
ENDBRANCH  23  26
ENDBRANCH   1  18
BRANCH   1  34
ATOM     34  O   UNL     1       0.141  14.279  21.819  0.00  0.00    +0.000 OA
ATOM     35  H   UNL     1       0.394  14.101  20.895  0.00  0.00    +0.000 HD
ENDBRANCH   1  34
TORSDOF 7
ENDMDL
