MODEL 1
REMARK VINA RESULT:      -8.9      0.000      0.000
REMARK  Name = 
REMARK  2 active torsions:
REMARK  status: ('A' for Active; 'I' for Inactive)
REMARK    1  A    between atoms: C_7  and  C_8
REMARK    2  A    between atoms: C_8  and  N_9
REMARK                            x       y       z     vdW  Elec       q    Type
REMARK                         _______ _______ _______ _____ _____    ______ ____
ROOT
ATOM      1  N   UNL     1       3.500   5.284  18.809  0.00  0.00    +0.000 N 
ATOM      2  C   UNL     1       2.793   4.062  18.884  0.00  0.00    +0.000 A 
ATOM      3  C   UNL     1       3.246   2.990  18.084  0.00  0.00    +0.000 A 
ATOM      4  C   UNL     1       2.496   1.826  17.901  0.00  0.00    +0.000 A 
ATOM      5  C   UNL     1       1.268   1.692  18.525  0.00  0.00    +0.000 A 
ATOM      6  C   UNL     1       0.820   2.704  19.366  0.00  0.00    +0.000 A 
ATOM      7  C   UNL     1       1.573   3.884  19.576  0.00  0.00    +0.000 A 
ATOM      8  C   UNL     1       0.955   4.858  20.561  0.00  0.00    +0.000 C 
ATOM      9  C   UNL     1       1.799   6.036  21.029  0.00  0.00    +0.000 C 
ATOM     10  C   UNL     1       2.071   6.975  19.889  0.00  0.00    +0.000 A 
ATOM     11  C   UNL     1       1.461   8.237  19.844  0.00  0.00    +0.000 A 
ATOM     12  C   UNL     1       1.690   9.096  18.769  0.00  0.00    +0.000 A 
ATOM     13  C   UNL     1       2.533   8.702  17.735  0.00  0.00    +0.000 A 
ATOM     14  C   UNL     1       3.142   7.448  17.778  0.00  0.00    +0.000 A 
ATOM     15  C   UNL     1       2.914   6.564  18.845  0.00  0.00    +0.000 A 
ENDROOT
BRANCH   1  16
ATOM     16  C   UNL     1       4.925   5.283  19.232  0.00  0.00    +0.000 C 
BRANCH  16  23
ATOM     17  N   UNL     1       8.074   8.253  17.275  0.00  0.00    +0.000 N 
ATOM     18  C   UNL     1       7.393   7.051  17.216  0.00  0.00    +0.000 A 
ATOM     19  N   UNL     1       7.540   6.317  16.129  0.00  0.00    +0.000 NA
ATOM     20  C   UNL     1       6.837   5.197  16.112  0.00  0.00    +0.000 A 
ATOM     21  N   UNL     1       6.962   4.390  14.996  0.00  0.00    +0.000 N 
ATOM     22  N   UNL     1       6.030   4.787  17.081  0.00  0.00    +0.000 NA
ATOM     23  C   UNL     1       5.937   5.605  18.134  0.00  0.00    +0.000 A 
ATOM     24  N   UNL     1       6.601   6.762  18.235  0.00  0.00    +0.000 NA
ATOM     25  H   UNL     1       8.227   8.606  16.341  0.00  0.00    +0.000 HD
ATOM     26  H   UNL     1       7.615   8.873  17.929  0.00  0.00    +0.000 HD
ATOM     27  H   UNL     1       7.839   4.576  14.528  0.00  0.00    +0.000 HD
ATOM     28  H   UNL     1       6.756   3.429  15.230  0.00  0.00    +0.000 HD
ENDBRANCH  16  23
ENDBRANCH   1  16
TORSDOF 2
ENDMDL
MODEL 2
REMARK VINA RESULT:      -8.7      0.209      1.641
REMARK  Name = 
REMARK  2 active torsions:
REMARK  status: ('A' for Active; 'I' for Inactive)
REMARK    1  A    between atoms: C_7  and  C_8
REMARK    2  A    between atoms: C_8  and  N_9
REMARK                            x       y       z     vdW  Elec       q    Type
REMARK                         _______ _______ _______ _____ _____    ______ ____
ROOT
ATOM      1  N   UNL     1       3.530   5.284  18.787  0.00  0.00    +0.000 N 
ATOM      2  C   UNL     1       2.842   4.050  18.860  0.00  0.00    +0.000 A 
ATOM      3  C   UNL     1       3.289   2.999  18.030  0.00  0.00    +0.000 A 
ATOM      4  C   UNL     1       2.551   1.826  17.846  0.00  0.00    +0.000 A 
ATOM      5  C   UNL     1       1.342   1.665  18.501  0.00  0.00    +0.000 A 
ATOM      6  C   UNL     1       0.902   2.656  19.371  0.00  0.00    +0.000 A 
ATOM      7  C   UNL     1       1.643   3.843  19.580  0.00  0.00    +0.000 A 
ATOM      8  C   UNL     1       1.039   4.792  20.597  0.00  0.00    +0.000 C 
ATOM      9  C   UNL     1       1.878   5.974  21.063  0.00  0.00    +0.000 C 
ATOM     10  C   UNL     1       2.106   6.936  19.933  0.00  0.00    +0.000 A 
ATOM     11  C   UNL     1       1.477   8.189  19.925  0.00  0.00    +0.000 A 
ATOM     12  C   UNL     1       1.666   9.069  18.860  0.00  0.00    +0.000 A 
ATOM     13  C   UNL     1       2.486   8.705  17.797  0.00  0.00    +0.000 A 
ATOM     14  C   UNL     1       3.113   7.459  17.802  0.00  0.00    +0.000 A 
ATOM     15  C   UNL     1       2.926   6.554  18.859  0.00  0.00    +0.000 A 
ENDROOT
BRANCH   1  16
ATOM     16  C   UNL     1       4.965   5.296  19.172  0.00  0.00    +0.000 C 
BRANCH  16  23
ATOM     17  N   UNL     1       7.335   4.663  15.103  0.00  0.00    +0.000 N 
ATOM     18  C   UNL     1       7.061   5.466  16.195  0.00  0.00    +0.000 A 
ATOM     19  N   UNL     1       7.768   6.573  16.334  0.00  0.00    +0.000 NA
ATOM     20  C   UNL     1       7.489   7.283  17.415  0.00  0.00    +0.000 A 
ATOM     21  N   UNL     1       8.198   8.454  17.602  0.00  0.00    +0.000 N 
ATOM     22  N   UNL     1       6.580   6.960  18.326  0.00  0.00    +0.000 NA
ATOM     23  C   UNL     1       5.927   5.816  18.105  0.00  0.00    +0.000 A 
ATOM     24  N   UNL     1       6.149   5.029  17.046  0.00  0.00    +0.000 NA
ATOM     25  H   UNL     1       8.296   4.789  14.818  0.00  0.00    +0.000 HD
ATOM     26  H   UNL     1       7.035   3.717  15.293  0.00  0.00    +0.000 HD
ATOM     27  H   UNL     1       8.554   8.791  16.717  0.00  0.00    +0.000 HD
ATOM     28  H   UNL     1       7.668   9.103  18.164  0.00  0.00    +0.000 HD
ENDBRANCH  16  23
ENDBRANCH   1  16
TORSDOF 2
ENDMDL
MODEL 3
REMARK VINA RESULT:      -8.3      1.150      1.298
REMARK  Name = 
REMARK  2 active torsions:
REMARK  status: ('A' for Active; 'I' for Inactive)
REMARK    1  A    between atoms: C_7  and  C_8
REMARK    2  A    between atoms: C_8  and  N_9
REMARK                            x       y       z     vdW  Elec       q    Type
REMARK                         _______ _______ _______ _____ _____    ______ ____
ROOT
ATOM      1  N   UNL     1       3.318   5.727  18.836  0.00  0.00    +0.000 N 
ATOM      2  C   UNL     1       2.671   4.473  18.929  0.00  0.00    +0.000 A 
ATOM      3  C   UNL     1       3.157   3.421  18.121  0.00  0.00    +0.000 A 
ATOM      4  C   UNL     1       2.460   2.222  17.956  0.00  0.00    +0.000 A 
ATOM      5  C   UNL     1       1.253   2.032  18.607  0.00  0.00    +0.000 A 
ATOM      6  C   UNL     1       0.775   3.024  19.456  0.00  0.00    +0.000 A 
ATOM      7  C   UNL     1       1.476   4.240  19.646  0.00  0.00    +0.000 A 
ATOM      8  C   UNL     1       0.834   5.186  20.642  0.00  0.00    +0.000 C 
ATOM      9  C   UNL     1       1.631   6.404  21.090  0.00  0.00    +0.000 C 
ATOM     10  C   UNL     1       1.833   7.352  19.942  0.00  0.00    +0.000 A 
ATOM     11  C   UNL     1       1.163   8.583  19.907  0.00  0.00    +0.000 A 
ATOM     12  C   UNL     1       1.329   9.448  18.826  0.00  0.00    +0.000 A 
ATOM     13  C   UNL     1       2.167   9.092  17.775  0.00  0.00    +0.000 A 
ATOM     14  C   UNL     1       2.835   7.868  17.807  0.00  0.00    +0.000 A 
ATOM     15  C   UNL     1       2.672   6.978  18.881  0.00  0.00    +0.000 A 
ENDROOT
BRANCH   1  16
ATOM     16  C   UNL     1       4.750   5.794  19.228  0.00  0.00    +0.000 C 
BRANCH  16  23
ATOM     17  N   UNL     1       8.944   3.909  18.036  0.00  0.00    +0.000 N 
ATOM     18  C   UNL     1       7.754   4.486  17.633  0.00  0.00    +0.000 A 
ATOM     19  N   UNL     1       7.612   4.764  16.350  0.00  0.00    +0.000 NA
ATOM     20  C   UNL     1       6.469   5.348  16.028  0.00  0.00    +0.000 A 
ATOM     21  N   UNL     1       6.271   5.653  14.695  0.00  0.00    +0.000 N 
ATOM     22  N   UNL     1       5.503   5.656  16.882  0.00  0.00    +0.000 NA
ATOM     23  C   UNL     1       5.746   5.349  18.159  0.00  0.00    +0.000 A 
ATOM     24  N   UNL     1       6.875   4.767  18.579  0.00  0.00    +0.000 NA
ATOM     25  H   UNL     1       9.686   4.177  17.405  0.00  0.00    +0.000 HD
ATOM     26  H   UNL     1       9.094   4.089  19.019  0.00  0.00    +0.000 HD
ATOM     27  H   UNL     1       6.847   5.061  14.112  0.00  0.00    +0.000 HD
ATOM     28  H   UNL     1       5.284   5.690  14.483  0.00  0.00    +0.000 HD
ENDBRANCH  16  23
ENDBRANCH   1  16
TORSDOF 2
ENDMDL
MODEL 4
REMARK VINA RESULT:      -8.2      1.148      1.460
REMARK  Name = 
REMARK  2 active torsions:
REMARK  status: ('A' for Active; 'I' for Inactive)
REMARK    1  A    between atoms: C_7  and  C_8
REMARK    2  A    between atoms: C_8  and  N_9
REMARK                            x       y       z     vdW  Elec       q    Type
REMARK                         _______ _______ _______ _____ _____    ______ ____
ROOT
ATOM      1  N   UNL     1       3.323   5.766  18.893  0.00  0.00    +0.000 N 
ATOM      2  C   UNL     1       2.687   4.505  18.964  0.00  0.00    +0.000 A 
ATOM      3  C   UNL     1       3.211   3.459  18.173  0.00  0.00    +0.000 A 
ATOM      4  C   UNL     1       2.532   2.253  17.985  0.00  0.00    +0.000 A 
ATOM      5  C   UNL     1       1.306   2.050  18.595  0.00  0.00    +0.000 A 
ATOM      6  C   UNL     1       0.790   3.036  19.427  0.00  0.00    +0.000 A 
ATOM      7  C   UNL     1       1.471   4.259  19.641  0.00  0.00    +0.000 A 
ATOM      8  C   UNL     1       0.786   5.198  20.615  0.00  0.00    +0.000 C 
ATOM      9  C   UNL     1       1.554   6.424  21.090  0.00  0.00    +0.000 C 
ATOM     10  C   UNL     1       1.785   7.374  19.950  0.00  0.00    +0.000 A 
ATOM     11  C   UNL     1       1.104   8.599  19.894  0.00  0.00    +0.000 A 
ATOM     12  C   UNL     1       1.296   9.466  18.819  0.00  0.00    +0.000 A 
ATOM     13  C   UNL     1       2.174   9.119  17.796  0.00  0.00    +0.000 A 
ATOM     14  C   UNL     1       2.853   7.902  17.851  0.00  0.00    +0.000 A 
ATOM     15  C   UNL     1       2.663   7.010  18.918  0.00  0.00    +0.000 A 
ENDROOT
BRANCH   1  16
ATOM     16  C   UNL     1       4.741   5.848  19.334  0.00  0.00    +0.000 C 
BRANCH  16  23
ATOM     17  N   UNL     1       6.016   5.676  14.761  0.00  0.00    +0.000 N 
ATOM     18  C   UNL     1       6.337   5.434  16.084  0.00  0.00    +0.000 A 
ATOM     19  N   UNL     1       7.468   4.799  16.334  0.00  0.00    +0.000 NA
ATOM     20  C   UNL     1       7.705   4.562  17.614  0.00  0.00    +0.000 A 
ATOM     21  N   UNL     1       8.880   3.905  17.927  0.00  0.00    +0.000 N 
ATOM     22  N   UNL     1       6.908   4.911  18.615  0.00  0.00    +0.000 NA
ATOM     23  C   UNL     1       5.781   5.536  18.260  0.00  0.00    +0.000 A 
ATOM     24  N   UNL     1       5.453   5.809  16.993  0.00  0.00    +0.000 NA
ATOM     25  H   UNL     1       6.441   4.974  14.172  0.00  0.00    +0.000 HD
ATOM     26  H   UNL     1       5.018   5.804  14.671  0.00  0.00    +0.000 HD
ATOM     27  H   UNL     1       9.557   4.030  17.186  0.00  0.00    +0.000 HD
ATOM     28  H   UNL     1       9.174   4.134  18.866  0.00  0.00    +0.000 HD
ENDBRANCH  16  23
ENDBRANCH   1  16
TORSDOF 2
ENDMDL
MODEL 5
REMARK VINA RESULT:      -7.6      2.331      5.353
REMARK  Name = 
REMARK  2 active torsions:
REMARK  status: ('A' for Active; 'I' for Inactive)
REMARK    1  A    between atoms: C_7  and  C_8
REMARK    2  A    between atoms: C_8  and  N_9
REMARK                            x       y       z     vdW  Elec       q    Type
REMARK                         _______ _______ _______ _____ _____    ______ ____
ROOT
ATOM      1  N   UNL     1       3.853   5.526  18.103  0.00  0.00    +0.000 N 
ATOM      2  C   UNL     1       2.922   4.461  18.118  0.00  0.00    +0.000 A 
ATOM      3  C   UNL     1       1.734   4.638  18.860  0.00  0.00    +0.000 A 
ATOM      4  C   UNL     1       0.862   3.582  19.137  0.00  0.00    +0.000 A 
ATOM      5  C   UNL     1       1.148   2.311  18.667  0.00  0.00    +0.000 A 
ATOM      6  C   UNL     1       2.280   2.116  17.884  0.00  0.00    +0.000 A 
ATOM      7  C   UNL     1       3.167   3.177  17.581  0.00  0.00    +0.000 A 
ATOM      8  C   UNL     1       4.321   2.793  16.676  0.00  0.00    +0.000 C 
ATOM      9  C   UNL     1       5.186   3.909  16.104  0.00  0.00    +0.000 C 
ATOM     10  C   UNL     1       5.948   4.597  17.200  0.00  0.00    +0.000 A 
ATOM     11  C   UNL     1       7.336   4.432  17.316  0.00  0.00    +0.000 A 
ATOM     12  C   UNL     1       8.038   5.047  18.352  0.00  0.00    +0.000 A 
ATOM     13  C   UNL     1       7.360   5.835  19.277  0.00  0.00    +0.000 A 
ATOM     14  C   UNL     1       5.979   6.001  19.164  0.00  0.00    +0.000 A 
ATOM     15  C   UNL     1       5.253   5.379  18.135  0.00  0.00    +0.000 A 
ENDROOT
BRANCH   1  16
ATOM     16  C   UNL     1       3.414   6.816  17.509  0.00  0.00    +0.000 C 
BRANCH  16  23
ATOM     17  N   UNL     1       0.368  10.431  17.979  0.00  0.00    +0.000 N 
ATOM     18  C   UNL     1       1.066   9.394  18.569  0.00  0.00    +0.000 A 
ATOM     19  N   UNL     1       1.002   9.282  19.883  0.00  0.00    +0.000 NA
ATOM     20  C   UNL     1       1.718   8.295  20.396  0.00  0.00    +0.000 A 
ATOM     21  N   UNL     1       1.678   8.134  21.768  0.00  0.00    +0.000 N 
ATOM     22  N   UNL     1       2.463   7.450  19.697  0.00  0.00    +0.000 NA
ATOM     23  C   UNL     1       2.475   7.653  18.376  0.00  0.00    +0.000 A 
ATOM     24  N   UNL     1       1.791   8.630  17.770  0.00  0.00    +0.000 NA
ATOM     25  H   UNL     1       0.274  11.196  18.632  0.00  0.00    +0.000 HD
ATOM     26  H   UNL     1       0.774  10.646  17.079  0.00  0.00    +0.000 HD
ATOM     27  H   UNL     1       0.833   8.542  22.143  0.00  0.00    +0.000 HD
ATOM     28  H   UNL     1       1.879   7.176  22.017  0.00  0.00    +0.000 HD
ENDBRANCH  16  23
ENDBRANCH   1  16
TORSDOF 2
ENDMDL
MODEL 6
REMARK VINA RESULT:      -7.6      2.408      5.277
REMARK  Name = 
REMARK  2 active torsions:
REMARK  status: ('A' for Active; 'I' for Inactive)
REMARK    1  A    between atoms: C_7  and  C_8
REMARK    2  A    between atoms: C_8  and  N_9
REMARK                            x       y       z     vdW  Elec       q    Type
REMARK                         _______ _______ _______ _____ _____    ______ ____
ROOT
ATOM      1  N   UNL     1       3.400   5.504  18.389  0.00  0.00    +0.000 N 
ATOM      2  C   UNL     1       2.630   4.461  18.955  0.00  0.00    +0.000 A 
ATOM      3  C   UNL     1       1.687   4.806  19.948  0.00  0.00    +0.000 A 
ATOM      4  C   UNL     1       1.045   3.846  20.735  0.00  0.00    +0.000 A 
ATOM      5  C   UNL     1       1.321   2.503  20.544  0.00  0.00    +0.000 A 
ATOM      6  C   UNL     1       2.202   2.127  19.536  0.00  0.00    +0.000 A 
ATOM      7  C   UNL     1       2.849   3.085  18.719  0.00  0.00    +0.000 A 
ATOM      8  C   UNL     1       3.737   2.495  17.640  0.00  0.00    +0.000 C 
ATOM      9  C   UNL     1       4.282   3.430  16.570  0.00  0.00    +0.000 C 
ATOM     10  C   UNL     1       5.244   4.414  17.171  0.00  0.00    +0.000 A 
ATOM     11  C   UNL     1       6.618   4.324  16.904  0.00  0.00    +0.000 A 
ATOM     12  C   UNL     1       7.513   5.220  17.487  0.00  0.00    +0.000 A 
ATOM     13  C   UNL     1       7.042   6.215  18.338  0.00  0.00    +0.000 A 
ATOM     14  C   UNL     1       5.676   6.308  18.605  0.00  0.00    +0.000 A 
ATOM     15  C   UNL     1       4.761   5.408  18.037  0.00  0.00    +0.000 A 
ENDROOT
BRANCH   1  16
ATOM     16  C   UNL     1       2.677   6.567  17.643  0.00  0.00    +0.000 C 
BRANCH  16  23
ATOM     17  N   UNL     1       1.605   8.433  21.878  0.00  0.00    +0.000 N 
ATOM     18  C   UNL     1       1.652   8.578  20.504  0.00  0.00    +0.000 A 
ATOM     19  N   UNL     1       1.119   9.669  19.984  0.00  0.00    +0.000 NA
ATOM     20  C   UNL     1       1.159   9.737  18.664  0.00  0.00    +0.000 A 
ATOM     21  N   UNL     1       0.619  10.864  18.074  0.00  0.00    +0.000 N 
ATOM     22  N   UNL     1       1.682   8.814  17.868  0.00  0.00    +0.000 NA
ATOM     23  C   UNL     1       2.184   7.741  18.486  0.00  0.00    +0.000 A 
ATOM     24  N   UNL     1       2.178   7.581  19.814  0.00  0.00    +0.000 NA
ATOM     25  H   UNL     1       0.811   8.935  22.248  0.00  0.00    +0.000 HD
ATOM     26  H   UNL     1       1.680   7.455  22.119  0.00  0.00    +0.000 HD
ATOM     27  H   UNL     1       0.609  11.632  18.732  0.00  0.00    +0.000 HD
ATOM     28  H   UNL     1       1.046  11.031  17.174  0.00  0.00    +0.000 HD
ENDBRANCH  16  23
ENDBRANCH   1  16
TORSDOF 2
ENDMDL
MODEL 7
REMARK VINA RESULT:      -7.3      1.456      1.767
REMARK  Name = 
REMARK  2 active torsions:
REMARK  status: ('A' for Active; 'I' for Inactive)
REMARK    1  A    between atoms: C_7  and  C_8
REMARK    2  A    between atoms: C_8  and  N_9
REMARK                            x       y       z     vdW  Elec       q    Type
REMARK                         _______ _______ _______ _____ _____    ______ ____
ROOT
ATOM      1  N   UNL     1       2.914   6.789  18.141  0.00  0.00    +0.000 N 
ATOM      2  C   UNL     1       2.651   5.418  18.367  0.00  0.00    +0.000 A 
ATOM      3  C   UNL     1       2.960   4.510  17.331  0.00  0.00    +0.000 A 
ATOM      4  C   UNL     1       2.532   3.180  17.350  0.00  0.00    +0.000 A 
ATOM      5  C   UNL     1       1.786   2.712  18.419  0.00  0.00    +0.000 A 
ATOM      6  C   UNL     1       1.515   3.565  19.483  0.00  0.00    +0.000 A 
ATOM      7  C   UNL     1       1.954   4.911  19.487  0.00  0.00    +0.000 A 
ATOM      8  C   UNL     1       1.610   5.680  20.748  0.00  0.00    +0.000 C 
ATOM      9  C   UNL     1       2.242   7.052  20.946  0.00  0.00    +0.000 C 
ATOM     10  C   UNL     1       1.731   8.020  19.918  0.00  0.00    +0.000 A 
ATOM     11  C   UNL     1       0.865   9.059  20.285  0.00  0.00    +0.000 A 
ATOM     12  C   UNL     1       0.367   9.939  19.325  0.00  0.00    +0.000 A 
ATOM     13  C   UNL     1       0.734   9.789  17.991  0.00  0.00    +0.000 A 
ATOM     14  C   UNL     1       1.596   8.756  17.623  0.00  0.00    +0.000 A 
ATOM     15  C   UNL     1       2.098   7.853  18.573  0.00  0.00    +0.000 A 
ENDROOT
BRANCH   1  16
ATOM     16  C   UNL     1       4.326   7.192  17.912  0.00  0.00    +0.000 C 
BRANCH  16  23
ATOM     17  N   UNL     1       7.994   4.184  18.179  0.00  0.00    +0.000 N 
ATOM     18  C   UNL     1       6.981   4.743  17.422  0.00  0.00    +0.000 A 
ATOM     19  N   UNL     1       6.937   4.441  16.137  0.00  0.00    +0.000 NA
ATOM     20  C   UNL     1       5.970   5.032  15.456  0.00  0.00    +0.000 A 
ATOM     21  N   UNL     1       5.880   4.742  14.108  0.00  0.00    +0.000 N 
ATOM     22  N   UNL     1       5.082   5.874  15.966  0.00  0.00    +0.000 NA
ATOM     23  C   UNL     1       5.216   6.128  17.271  0.00  0.00    +0.000 A 
ATOM     24  N   UNL     1       6.168   5.585  18.038  0.00  0.00    +0.000 NA
ATOM     25  H   UNL     1       8.793   3.990  17.591  0.00  0.00    +0.000 HD
ATOM     26  H   UNL     1       8.158   4.751  18.999  0.00  0.00    +0.000 HD
ATOM     27  H   UNL     1       6.316   3.851  13.913  0.00  0.00    +0.000 HD
ATOM     28  H   UNL     1       4.934   4.875  13.780  0.00  0.00    +0.000 HD
ENDBRANCH  16  23
ENDBRANCH   1  16
TORSDOF 2
ENDMDL
MODEL 8
REMARK VINA RESULT:      -7.1      2.489      5.232
REMARK  Name = 
REMARK  2 active torsions:
REMARK  status: ('A' for Active; 'I' for Inactive)
REMARK    1  A    between atoms: C_7  and  C_8
REMARK    2  A    between atoms: C_8  and  N_9
REMARK                            x       y       z     vdW  Elec       q    Type
REMARK                         _______ _______ _______ _____ _____    ______ ____
ROOT
ATOM      1  N   UNL     1       3.359   5.446  18.491  0.00  0.00    +0.000 N 
ATOM      2  C   UNL     1       2.995   4.404  19.375  0.00  0.00    +0.000 A 
ATOM      3  C   UNL     1       2.314   4.757  20.561  0.00  0.00    +0.000 A 
ATOM      4  C   UNL     1       2.115   3.851  21.606  0.00  0.00    +0.000 A 
ATOM      5  C   UNL     1       2.584   2.553  21.491  0.00  0.00    +0.000 A 
ATOM      6  C   UNL     1       3.207   2.158  20.313  0.00  0.00    +0.000 A 
ATOM      7  C   UNL     1       3.403   3.058  19.238  0.00  0.00    +0.000 A 
ATOM      8  C   UNL     1       4.055   2.443  18.014  0.00  0.00    +0.000 C 
ATOM      9  C   UNL     1       4.089   3.264  16.732  0.00  0.00    +0.000 C 
ATOM     10  C   UNL     1       4.969   4.469  16.902  0.00  0.00    +0.000 A 
ATOM     11  C   UNL     1       6.205   4.549  16.245  0.00  0.00    +0.000 A 
ATOM     12  C   UNL     1       7.035   5.655  16.428  0.00  0.00    +0.000 A 
ATOM     13  C   UNL     1       6.633   6.691  17.265  0.00  0.00    +0.000 A 
ATOM     14  C   UNL     1       5.404   6.615  17.920  0.00  0.00    +0.000 A 
ATOM     15  C   UNL     1       4.561   5.504  17.758  0.00  0.00    +0.000 A 
ENDROOT
BRANCH   1  16
ATOM     16  C   UNL     1       2.266   6.249  17.884  0.00  0.00    +0.000 C 
BRANCH  16  23
ATOM     17  N   UNL     1       1.501  10.938  17.883  0.00  0.00    +0.000 N 
ATOM     18  C   UNL     1       1.584   9.757  18.598  0.00  0.00    +0.000 A 
ATOM     19  N   UNL     1       1.498   9.831  19.914  0.00  0.00    +0.000 NA
ATOM     20  C   UNL     1       1.621   8.676  20.548  0.00  0.00    +0.000 A 
ATOM     21  N   UNL     1       1.532   8.701  21.927  0.00  0.00    +0.000 N 
ATOM     22  N   UNL     1       1.815   7.502  19.963  0.00  0.00    +0.000 NA
ATOM     23  C   UNL     1       1.902   7.533  18.630  0.00  0.00    +0.000 A 
ATOM     24  N   UNL     1       1.801   8.652  17.906  0.00  0.00    +0.000 NA
ATOM     25  H   UNL     1       1.824  11.707  18.453  0.00  0.00    +0.000 HD
ATOM     26  H   UNL     1       1.942  10.821  16.982  0.00  0.00    +0.000 HD
ATOM     27  H   UNL     1       1.021   9.520  22.229  0.00  0.00    +0.000 HD
ATOM     28  H   UNL     1       1.221   7.806  22.277  0.00  0.00    +0.000 HD
ENDBRANCH  16  23
ENDBRANCH   1  16
TORSDOF 2
ENDMDL
MODEL 9
REMARK VINA RESULT:      -7.0      6.698      8.436
REMARK  Name = 
REMARK  2 active torsions:
REMARK  status: ('A' for Active; 'I' for Inactive)
REMARK    1  A    between atoms: C_7  and  C_8
REMARK    2  A    between atoms: C_8  and  N_9
REMARK                            x       y       z     vdW  Elec       q    Type
REMARK                         _______ _______ _______ _____ _____    ______ ____
ROOT
ATOM      1  N   UNL     1      -1.280  11.814  20.004  0.00  0.00    +0.000 N 
ATOM      2  C   UNL     1      -1.816  11.383  18.769  0.00  0.00    +0.000 A 
ATOM      3  C   UNL     1      -3.049  11.937  18.359  0.00  0.00    +0.000 A 
ATOM      4  C   UNL     1      -3.780  11.420  17.286  0.00  0.00    +0.000 A 
ATOM      5  C   UNL     1      -3.293  10.334  16.580  0.00  0.00    +0.000 A 
ATOM      6  C   UNL     1      -2.055   9.802  16.921  0.00  0.00    +0.000 A 
ATOM      7  C   UNL     1      -1.293  10.322  17.995  0.00  0.00    +0.000 A 
ATOM      8  C   UNL     1       0.053   9.651  18.195  0.00  0.00    +0.000 C 
ATOM      9  C   UNL     1       1.037  10.293  19.163  0.00  0.00    +0.000 C 
ATOM     10  C   UNL     1       0.514  10.222  20.569  0.00  0.00    +0.000 A 
ATOM     11  C   UNL     1       1.111   9.370  21.510  0.00  0.00    +0.000 A 
ATOM     12  C   UNL     1       0.605   9.283  22.806  0.00  0.00    +0.000 A 
ATOM     13  C   UNL     1      -0.497  10.049  23.173  0.00  0.00    +0.000 A 
ATOM     14  C   UNL     1      -1.091  10.898  22.240  0.00  0.00    +0.000 A 
ATOM     15  C   UNL     1      -0.605  10.990  20.927  0.00  0.00    +0.000 A 
ENDROOT
BRANCH   1  16
ATOM     16  C   UNL     1      -0.928  13.252  20.139  0.00  0.00    +0.000 C 
BRANCH  16  23
ATOM     17  N   UNL     1       3.112  14.859  22.053  0.00  0.00    +0.000 N 
ATOM     18  C   UNL     1       2.443  14.380  20.942  0.00  0.00    +0.000 A 
ATOM     19  N   UNL     1       3.090  14.379  19.790  0.00  0.00    +0.000 NA
ATOM     20  C   UNL     1       2.390  13.944  18.756  0.00  0.00    +0.000 A 
ATOM     21  N   UNL     1       3.026  13.918  17.529  0.00  0.00    +0.000 N 
ATOM     22  N   UNL     1       1.132  13.527  18.807  0.00  0.00    +0.000 NA
ATOM     23  C   UNL     1       0.559  13.579  20.013  0.00  0.00    +0.000 A 
ATOM     24  N   UNL     1       1.185  14.013  21.113  0.00  0.00    +0.000 NA
ATOM     25  H   UNL     1       3.810  15.532  21.768  0.00  0.00    +0.000 HD
ATOM     26  H   UNL     1       2.443  15.162  22.747  0.00  0.00    +0.000 HD
ATOM     27  H   UNL     1       4.029  13.877  17.657  0.00  0.00    +0.000 HD
ATOM     28  H   UNL     1       2.608  13.222  16.928  0.00  0.00    +0.000 HD
ENDBRANCH  16  23
ENDBRANCH   1  16
TORSDOF 2
ENDMDL
