MODEL 1
REMARK VINA RESULT:      -8.5      0.000      0.000
REMARK  Name = 
REMARK  7 active torsions:
REMARK  status: ('A' for Active; 'I' for Inactive)
REMARK    1  A    between atoms: C_1  and  O_2
REMARK    2  A    between atoms: O_2  and  C_3
REMARK    3  A    between atoms: C_8  and  C_9
REMARK    4  A    between atoms: C_11  and  O_12
REMARK    5  A    between atoms: O_12  and  C_13
REMARK    6  A    between atoms: C_13  and  C_14
REMARK    7  A    between atoms: C_18  and  C_19
REMARK                            x       y       z     vdW  Elec       q    Type
REMARK                         _______ _______ _______ _____ _____    ______ ____
ROOT
ATOM      1  C   UNL     1       6.041   3.508  12.433  0.00  0.00    +0.000 A 
ATOM      2  C   UNL     1       7.149   4.303  12.230  0.00  0.00    +0.000 A 
ATOM      3  C   UNL     1       7.632   5.080  13.292  0.00  0.00    +0.000 A 
ATOM      4  C   UNL     1       7.070   5.050  14.567  0.00  0.00    +0.000 A 
ATOM      5  N   UNL     1       7.607   5.840  15.512  0.00  0.00    +0.000 NA
ATOM      6  C   UNL     1       7.085   5.819  16.759  0.00  0.00    +0.000 A 
ATOM      7  C   UNL     1       7.690   6.752  17.763  0.00  0.00    +0.000 C 
ATOM      8  C   UNL     1       6.050   4.972  17.117  0.00  0.00    +0.000 A 
ATOM      9  C   UNL     1       5.507   4.129  16.153  0.00  0.00    +0.000 A 
ATOM     10  C   UNL     1       5.975   4.197  14.810  0.00  0.00    +0.000 A 
ATOM     11  C   UNL     1       5.452   3.504  13.692  0.00  0.00    +0.000 A 
ENDROOT
BRANCH   1  13
ATOM     12  C   UNL     1       5.985   1.395  11.351  0.00  0.00    +0.000 C 
ATOM     13  O   UNL     1       5.420   2.677  11.550  0.00  0.00    +0.000 OA
ENDBRANCH   1  13
BRANCH   9  14
ATOM     14  O   UNL     1       4.544   3.280  16.667  0.00  0.00    +0.000 OA
BRANCH  14  15
ATOM     15  C   UNL     1       3.203   3.755  16.628  0.00  0.00    +0.000 C 
BRANCH  15  16
ATOM     16  C   UNL     1       2.730   4.315  17.940  0.00  0.00    +0.000 A 
ATOM     17  C   UNL     1       2.534   5.692  18.095  0.00  0.00    +0.000 A 
ATOM     18  C   UNL     1       2.245   6.219  19.350  0.00  0.00    +0.000 A 
ATOM     19  C   UNL     1       2.153   5.374  20.458  0.00  0.00    +0.000 A 
ATOM     20  C   UNL     1       2.349   3.992  20.321  0.00  0.00    +0.000 A 
ATOM     21  C   UNL     1       2.633   3.471  19.052  0.00  0.00    +0.000 A 
BRANCH  20  22
ATOM     22  C   UNL     1       2.293   3.059  21.503  0.00  0.00    +0.000 C 
ATOM     23  F   UNL     1       3.349   2.202  21.573  0.00  0.00    +0.000 F 
ATOM     24  F   UNL     1       2.272   3.725  22.691  0.00  0.00    +0.000 F 
ATOM     25  F   UNL     1       1.178   2.277  21.495  0.00  0.00    +0.000 F 
ENDBRANCH  20  22
ENDBRANCH  15  16
ENDBRANCH  14  15
ENDBRANCH   9  14
TORSDOF 5
ENDMDL
MODEL 2
REMARK VINA RESULT:      -8.2      4.724      6.499
REMARK  Name = 
REMARK  7 active torsions:
REMARK  status: ('A' for Active; 'I' for Inactive)
REMARK    1  A    between atoms: C_1  and  O_2
REMARK    2  A    between atoms: O_2  and  C_3
REMARK    3  A    between atoms: C_8  and  C_9
REMARK    4  A    between atoms: C_11  and  O_12
REMARK    5  A    between atoms: O_12  and  C_13
REMARK    6  A    between atoms: C_13  and  C_14
REMARK    7  A    between atoms: C_18  and  C_19
REMARK                            x       y       z     vdW  Elec       q    Type
REMARK                         _______ _______ _______ _____ _____    ______ ____
ROOT
ATOM      1  C   UNL     1       6.501   5.834  16.601  0.00  0.00    +0.000 A 
ATOM      2  C   UNL     1       6.377   4.593  16.014  0.00  0.00    +0.000 A 
ATOM      3  C   UNL     1       5.256   3.807  16.316  0.00  0.00    +0.000 A 
ATOM      4  C   UNL     1       4.228   4.245  17.149  0.00  0.00    +0.000 A 
ATOM      5  N   UNL     1       3.201   3.409  17.377  0.00  0.00    +0.000 NA
ATOM      6  C   UNL     1       2.188   3.818  18.173  0.00  0.00    +0.000 A 
ATOM      7  C   UNL     1       1.089   2.831  18.433  0.00  0.00    +0.000 C 
ATOM      8  C   UNL     1       2.138   5.088  18.722  0.00  0.00    +0.000 A 
ATOM      9  C   UNL     1       3.184   5.971  18.467  0.00  0.00    +0.000 A 
ATOM     10  C   UNL     1       4.307   5.536  17.709  0.00  0.00    +0.000 A 
ATOM     11  C   UNL     1       5.498   6.261  17.464  0.00  0.00    +0.000 A 
ENDROOT
BRANCH   1  13
ATOM     12  C   UNL     1       7.701   7.681  17.489  0.00  0.00    +0.000 C 
ATOM     13  O   UNL     1       7.494   6.752  16.441  0.00  0.00    +0.000 OA
ENDBRANCH   1  13
BRANCH   9  14
ATOM     14  O   UNL     1       2.964   7.227  19.003  0.00  0.00    +0.000 OA
BRANCH  14  15
ATOM     15  C   UNL     1       2.378   8.187  18.130  0.00  0.00    +0.000 C 
BRANCH  15  16
ATOM     16  C   UNL     1       1.322   9.028  18.792  0.00  0.00    +0.000 A 
ATOM     17  C   UNL     1       1.195   9.040  20.185  0.00  0.00    +0.000 A 
ATOM     18  C   UNL     1       0.123   9.697  20.782  0.00  0.00    +0.000 A 
ATOM     19  C   UNL     1      -0.828  10.343  19.991  0.00  0.00    +0.000 A 
ATOM     20  C   UNL     1      -0.717  10.340  18.593  0.00  0.00    +0.000 A 
ATOM     21  C   UNL     1       0.369   9.681  18.003  0.00  0.00    +0.000 A 
BRANCH  20  22
ATOM     22  C   UNL     1      -1.747  10.997  17.711  0.00  0.00    +0.000 C 
ATOM     23  F   UNL     1      -1.880  10.404  16.492  0.00  0.00    +0.000 F 
ATOM     24  F   UNL     1      -2.989  10.991  18.268  0.00  0.00    +0.000 F 
ATOM     25  F   UNL     1      -1.458  12.304  17.460  0.00  0.00    +0.000 F 
ENDBRANCH  20  22
ENDBRANCH  15  16
ENDBRANCH  14  15
ENDBRANCH   9  14
TORSDOF 5
ENDMDL
MODEL 3
REMARK VINA RESULT:      -8.2      4.115      7.067
REMARK  Name = 
REMARK  7 active torsions:
REMARK  status: ('A' for Active; 'I' for Inactive)
REMARK    1  A    between atoms: C_1  and  O_2
REMARK    2  A    between atoms: O_2  and  C_3
REMARK    3  A    between atoms: C_8  and  C_9
REMARK    4  A    between atoms: C_11  and  O_12
REMARK    5  A    between atoms: O_12  and  C_13
REMARK    6  A    between atoms: C_13  and  C_14
REMARK    7  A    between atoms: C_18  and  C_19
REMARK                            x       y       z     vdW  Elec       q    Type
REMARK                         _______ _______ _______ _____ _____    ______ ____
ROOT
ATOM      1  C   UNL     1       2.145   2.953  18.834  0.00  0.00    +0.000 A 
ATOM      2  C   UNL     1       1.428   2.852  20.007  0.00  0.00    +0.000 A 
ATOM      3  C   UNL     1       1.156   4.016  20.740  0.00  0.00    +0.000 A 
ATOM      4  C   UNL     1       1.537   5.286  20.310  0.00  0.00    +0.000 A 
ATOM      5  N   UNL     1       1.231   6.335  21.092  0.00  0.00    +0.000 NA
ATOM      6  C   UNL     1       1.580   7.577  20.689  0.00  0.00    +0.000 A 
ATOM      7  C   UNL     1       1.258   8.708  21.619  0.00  0.00    +0.000 C 
ATOM      8  C   UNL     1       2.195   7.819  19.472  0.00  0.00    +0.000 A 
ATOM      9  C   UNL     1       2.489   6.741  18.642  0.00  0.00    +0.000 A 
ATOM     10  C   UNL     1       2.216   5.415  19.082  0.00  0.00    +0.000 A 
ATOM     11  C   UNL     1       2.561   4.213  18.419  0.00  0.00    +0.000 A 
ENDROOT
BRANCH   1  13
ATOM     12  C   UNL     1       3.748   1.320  18.201  0.00  0.00    +0.000 C 
ATOM     13  O   UNL     1       2.507   1.961  17.974  0.00  0.00    +0.000 OA
ENDBRANCH   1  13
BRANCH   9  14
ATOM     14  O   UNL     1       3.020   7.133  17.427  0.00  0.00    +0.000 OA
BRANCH  14  15
ATOM     15  C   UNL     1       4.397   7.493  17.431  0.00  0.00    +0.000 C 
BRANCH  15  16
ATOM     16  C   UNL     1       5.313   6.347  17.105  0.00  0.00    +0.000 A 
ATOM     17  C   UNL     1       6.290   5.937  18.019  0.00  0.00    +0.000 A 
ATOM     18  C   UNL     1       7.232   4.980  17.652  0.00  0.00    +0.000 A 
ATOM     19  C   UNL     1       7.204   4.429  16.370  0.00  0.00    +0.000 A 
ATOM     20  C   UNL     1       6.233   4.830  15.440  0.00  0.00    +0.000 A 
ATOM     21  C   UNL     1       5.287   5.788  15.822  0.00  0.00    +0.000 A 
BRANCH  20  22
ATOM     22  C   UNL     1       6.200   4.281  14.037  0.00  0.00    +0.000 C 
ATOM     23  F   UNL     1       7.107   4.860  13.203  0.00  0.00    +0.000 F 
ATOM     24  F   UNL     1       6.454   2.943  13.995  0.00  0.00    +0.000 F 
ATOM     25  F   UNL     1       4.986   4.448  13.443  0.00  0.00    +0.000 F 
ENDBRANCH  20  22
ENDBRANCH  15  16
ENDBRANCH  14  15
ENDBRANCH   9  14
TORSDOF 5
ENDMDL
MODEL 4
REMARK VINA RESULT:      -8.2      3.918      5.969
REMARK  Name = 
REMARK  7 active torsions:
REMARK  status: ('A' for Active; 'I' for Inactive)
REMARK    1  A    between atoms: C_1  and  O_2
REMARK    2  A    between atoms: O_2  and  C_3
REMARK    3  A    between atoms: C_8  and  C_9
REMARK    4  A    between atoms: C_11  and  O_12
REMARK    5  A    between atoms: O_12  and  C_13
REMARK    6  A    between atoms: C_13  and  C_14
REMARK    7  A    between atoms: C_18  and  C_19
REMARK                            x       y       z     vdW  Elec       q    Type
REMARK                         _______ _______ _______ _____ _____    ______ ____
ROOT
ATOM      1  C   UNL     1       5.874   6.152  16.676  0.00  0.00    +0.000 A 
ATOM      2  C   UNL     1       5.823   4.947  16.010  0.00  0.00    +0.000 A 
ATOM      3  C   UNL     1       4.819   4.027  16.345  0.00  0.00    +0.000 A 
ATOM      4  C   UNL     1       3.833   4.297  17.291  0.00  0.00    +0.000 A 
ATOM      5  N   UNL     1       2.920   3.343  17.541  0.00  0.00    +0.000 NA
ATOM      6  C   UNL     1       1.947   3.587  18.447  0.00  0.00    +0.000 A 
ATOM      7  C   UNL     1       0.982   2.474  18.723  0.00  0.00    +0.000 C 
ATOM      8  C   UNL     1       1.820   4.806  19.092  0.00  0.00    +0.000 A 
ATOM      9  C   UNL     1       2.744   5.810  18.818  0.00  0.00    +0.000 A 
ATOM     10  C   UNL     1       3.832   5.549  17.938  0.00  0.00    +0.000 A 
ATOM     11  C   UNL     1       4.916   6.412  17.650  0.00  0.00    +0.000 A 
ENDROOT
BRANCH   1  13
ATOM     12  C   UNL     1       7.630   7.476  17.572  0.00  0.00    +0.000 C 
ATOM     13  O   UNL     1       6.751   7.180  16.503  0.00  0.00    +0.000 OA
ENDBRANCH   1  13
BRANCH   9  14
ATOM     14  O   UNL     1       2.448   6.997  19.463  0.00  0.00    +0.000 OA
BRANCH  14  15
ATOM     15  C   UNL     1       2.153   8.110  18.625  0.00  0.00    +0.000 C 
BRANCH  15  16
ATOM     16  C   UNL     1       1.319   9.161  19.302  0.00  0.00    +0.000 A 
ATOM     17  C   UNL     1       1.132  10.412  18.705  0.00  0.00    +0.000 A 
ATOM     18  C   UNL     1       0.489  11.430  19.403  0.00  0.00    +0.000 A 
ATOM     19  C   UNL     1       0.032  11.204  20.702  0.00  0.00    +0.000 A 
ATOM     20  C   UNL     1       0.212   9.957  21.317  0.00  0.00    +0.000 A 
ATOM     21  C   UNL     1       0.854   8.937  20.603  0.00  0.00    +0.000 A 
BRANCH  20  22
ATOM     22  C   UNL     1      -0.237   9.694  22.731  0.00  0.00    +0.000 C 
ATOM     23  F   UNL     1      -1.058   8.614  22.852  0.00  0.00    +0.000 F 
ATOM     24  F   UNL     1       0.807   9.467  23.576  0.00  0.00    +0.000 F 
ATOM     25  F   UNL     1      -0.923  10.744  23.262  0.00  0.00    +0.000 F 
ENDBRANCH  20  22
ENDBRANCH  15  16
ENDBRANCH  14  15
ENDBRANCH   9  14
TORSDOF 5
ENDMDL
MODEL 5
REMARK VINA RESULT:      -8.2      3.673      7.194
REMARK  Name = 
REMARK  7 active torsions:
REMARK  status: ('A' for Active; 'I' for Inactive)
REMARK    1  A    between atoms: C_1  and  O_2
REMARK    2  A    between atoms: O_2  and  C_3
REMARK    3  A    between atoms: C_8  and  C_9
REMARK    4  A    between atoms: C_11  and  O_12
REMARK    5  A    between atoms: O_12  and  C_13
REMARK    6  A    between atoms: C_13  and  C_14
REMARK    7  A    between atoms: C_18  and  C_19
REMARK                            x       y       z     vdW  Elec       q    Type
REMARK                         _______ _______ _______ _____ _____    ______ ____
ROOT
ATOM      1  C   UNL     1       2.129   8.066  18.511  0.00  0.00    +0.000 A 
ATOM      2  C   UNL     1       1.908   8.260  19.857  0.00  0.00    +0.000 A 
ATOM      3  C   UNL     1       1.777   7.142  20.692  0.00  0.00    +0.000 A 
ATOM      4  C   UNL     1       1.910   5.834  20.230  0.00  0.00    +0.000 A 
ATOM      5  N   UNL     1       1.760   4.833  21.115  0.00  0.00    +0.000 NA
ATOM      6  C   UNL     1       1.896   3.557  20.691  0.00  0.00    +0.000 A 
ATOM      7  C   UNL     1       1.673   2.477  21.707  0.00  0.00    +0.000 C 
ATOM      8  C   UNL     1       2.239   3.238  19.388  0.00  0.00    +0.000 A 
ATOM      9  C   UNL     1       2.426   4.269  18.471  0.00  0.00    +0.000 A 
ATOM     10  C   UNL     1       2.198   5.617  18.868  0.00  0.00    +0.000 A 
ATOM     11  C   UNL     1       2.224   6.762  18.036  0.00  0.00    +0.000 A 
ENDROOT
BRANCH   1  13
ATOM     12  C   UNL     1       2.000  10.348  17.864  0.00  0.00    +0.000 C 
ATOM     13  O   UNL     1       2.293   9.003  17.535  0.00  0.00    +0.000 OA
ENDBRANCH   1  13
BRANCH   9  14
ATOM     14  O   UNL     1       2.848   3.815  17.236  0.00  0.00    +0.000 OA
BRANCH  14  15
ATOM     15  C   UNL     1       4.139   3.214  17.195  0.00  0.00    +0.000 C 
BRANCH  15  16
ATOM     16  C   UNL     1       5.179   4.080  16.542  0.00  0.00    +0.000 A 
ATOM     17  C   UNL     1       5.748   3.707  15.320  0.00  0.00    +0.000 A 
ATOM     18  C   UNL     1       6.816   4.430  14.798  0.00  0.00    +0.000 A 
ATOM     19  C   UNL     1       7.322   5.529  15.494  0.00  0.00    +0.000 A 
ATOM     20  C   UNL     1       6.765   5.916  16.721  0.00  0.00    +0.000 A 
ATOM     21  C   UNL     1       5.686   5.186  17.235  0.00  0.00    +0.000 A 
BRANCH  20  22
ATOM     22  C   UNL     1       7.313   7.075  17.514  0.00  0.00    +0.000 C 
ATOM     23  F   UNL     1       7.933   6.703  18.668  0.00  0.00    +0.000 F 
ATOM     24  F   UNL     1       8.229   7.799  16.813  0.00  0.00    +0.000 F 
ATOM     25  F   UNL     1       6.343   7.958  17.881  0.00  0.00    +0.000 F 
ENDBRANCH  20  22
ENDBRANCH  15  16
ENDBRANCH  14  15
ENDBRANCH   9  14
TORSDOF 5
ENDMDL
MODEL 6
REMARK VINA RESULT:      -8.1      4.403      6.728
REMARK  Name = 
REMARK  7 active torsions:
REMARK  status: ('A' for Active; 'I' for Inactive)
REMARK    1  A    between atoms: C_1  and  O_2
REMARK    2  A    between atoms: O_2  and  C_3
REMARK    3  A    between atoms: C_8  and  C_9
REMARK    4  A    between atoms: C_11  and  O_12
REMARK    5  A    between atoms: O_12  and  C_13
REMARK    6  A    between atoms: C_13  and  C_14
REMARK    7  A    between atoms: C_18  and  C_19
REMARK                            x       y       z     vdW  Elec       q    Type
REMARK                         _______ _______ _______ _____ _____    ______ ____
ROOT
ATOM      1  C   UNL     1       1.985   3.336  19.423  0.00  0.00    +0.000 A 
ATOM      2  C   UNL     1       2.560   2.236  18.824  0.00  0.00    +0.000 A 
ATOM      3  C   UNL     1       3.496   2.433  17.799  0.00  0.00    +0.000 A 
ATOM      4  C   UNL     1       3.913   3.698  17.389  0.00  0.00    +0.000 A 
ATOM      5  N   UNL     1       4.812   3.774  16.393  0.00  0.00    +0.000 NA
ATOM      6  C   UNL     1       5.238   4.990  15.986  0.00  0.00    +0.000 A 
ATOM      7  C   UNL     1       6.205   5.022  14.841  0.00  0.00    +0.000 C 
ATOM      8  C   UNL     1       4.826   6.165  16.592  0.00  0.00    +0.000 A 
ATOM      9  C   UNL     1       3.918   6.094  17.645  0.00  0.00    +0.000 A 
ATOM     10  C   UNL     1       3.381   4.833  18.032  0.00  0.00    +0.000 A 
ATOM     11  C   UNL     1       2.367   4.601  18.991  0.00  0.00    +0.000 A 
ENDROOT
BRANCH   1  13
ATOM     12  C   UNL     1       1.400   2.705  21.637  0.00  0.00    +0.000 C 
ATOM     13  O   UNL     1       1.070   3.370  20.432  0.00  0.00    +0.000 OA
ENDBRANCH   1  13
BRANCH   9  14
ATOM     14  O   UNL     1       3.661   7.329  18.212  0.00  0.00    +0.000 OA
BRANCH  14  15
ATOM     15  C   UNL     1       2.610   8.085  17.620  0.00  0.00    +0.000 C 
BRANCH  15  16
ATOM     16  C   UNL     1       1.709   8.743  18.627  0.00  0.00    +0.000 A 
ATOM     17  C   UNL     1       1.708   8.321  19.961  0.00  0.00    +0.000 A 
ATOM     18  C   UNL     1       0.766   8.828  20.852  0.00  0.00    +0.000 A 
ATOM     19  C   UNL     1      -0.180   9.757  20.415  0.00  0.00    +0.000 A 
ATOM     20  C   UNL     1      -0.194  10.189  19.081  0.00  0.00    +0.000 A 
ATOM     21  C   UNL     1       0.761   9.678  18.194  0.00  0.00    +0.000 A 
BRANCH  20  22
ATOM     22  C   UNL     1      -1.226  11.162  18.571  0.00  0.00    +0.000 C 
ATOM     23  F   UNL     1      -0.694  12.321  18.093  0.00  0.00    +0.000 F 
ATOM     24  F   UNL     1      -1.971  10.645  17.555  0.00  0.00    +0.000 F 
ATOM     25  F   UNL     1      -2.115  11.530  19.535  0.00  0.00    +0.000 F 
ENDBRANCH  20  22
ENDBRANCH  15  16
ENDBRANCH  14  15
ENDBRANCH   9  14
TORSDOF 5
ENDMDL
MODEL 7
REMARK VINA RESULT:      -8.1      3.712      6.844
REMARK  Name = 
REMARK  7 active torsions:
REMARK  status: ('A' for Active; 'I' for Inactive)
REMARK    1  A    between atoms: C_1  and  O_2
REMARK    2  A    between atoms: O_2  and  C_3
REMARK    3  A    between atoms: C_8  and  C_9
REMARK    4  A    between atoms: C_11  and  O_12
REMARK    5  A    between atoms: O_12  and  C_13
REMARK    6  A    between atoms: C_13  and  C_14
REMARK    7  A    between atoms: C_18  and  C_19
REMARK                            x       y       z     vdW  Elec       q    Type
REMARK                         _______ _______ _______ _____ _____    ______ ____
ROOT
ATOM      1  C   UNL     1       2.145   7.877  18.504  0.00  0.00    +0.000 A 
ATOM      2  C   UNL     1       1.962   8.100  19.852  0.00  0.00    +0.000 A 
ATOM      3  C   UNL     1       1.809   7.001  20.707  0.00  0.00    +0.000 A 
ATOM      4  C   UNL     1       1.883   5.681  20.264  0.00  0.00    +0.000 A 
ATOM      5  N   UNL     1       1.717   4.701  21.168  0.00  0.00    +0.000 NA
ATOM      6  C   UNL     1       1.795   3.414  20.762  0.00  0.00    +0.000 A 
ATOM      7  C   UNL     1       1.556   2.360  21.800  0.00  0.00    +0.000 C 
ATOM      8  C   UNL     1       2.096   3.063  19.457  0.00  0.00    +0.000 A 
ATOM      9  C   UNL     1       2.300   4.072  18.520  0.00  0.00    +0.000 A 
ATOM     10  C   UNL     1       2.131   5.433  18.899  0.00  0.00    +0.000 A 
ATOM     11  C   UNL     1       2.181   6.564  18.049  0.00  0.00    +0.000 A 
ENDROOT
BRANCH   1  13
ATOM     12  C   UNL     1       1.978  10.136  17.789  0.00  0.00    +0.000 C 
ATOM     13  O   UNL     1       2.321   8.792  17.509  0.00  0.00    +0.000 OA
ENDBRANCH   1  13
BRANCH   9  14
ATOM     14  O   UNL     1       2.676   3.583  17.283  0.00  0.00    +0.000 OA
BRANCH  14  15
ATOM     15  C   UNL     1       4.053   3.253  17.131  0.00  0.00    +0.000 C 
BRANCH  15  16
ATOM     16  C   UNL     1       4.953   4.457  17.091  0.00  0.00    +0.000 A 
ATOM     17  C   UNL     1       4.939   5.317  15.988  0.00  0.00    +0.000 A 
ATOM     18  C   UNL     1       5.879   6.339  15.888  0.00  0.00    +0.000 A 
ATOM     19  C   UNL     1       6.838   6.505  16.889  0.00  0.00    +0.000 A 
ATOM     20  C   UNL     1       6.867   5.651  18.001  0.00  0.00    +0.000 A 
ATOM     21  C   UNL     1       5.913   4.630  18.094  0.00  0.00    +0.000 A 
BRANCH  20  22
ATOM     22  C   UNL     1       7.912   5.783  19.078  0.00  0.00    +0.000 C 
ATOM     23  F   UNL     1       8.857   4.803  19.045  0.00  0.00    +0.000 F 
ATOM     24  F   UNL     1       8.591   6.961  19.004  0.00  0.00    +0.000 F 
ATOM     25  F   UNL     1       7.376   5.741  20.330  0.00  0.00    +0.000 F 
ENDBRANCH  20  22
ENDBRANCH  15  16
ENDBRANCH  14  15
ENDBRANCH   9  14
TORSDOF 5
ENDMDL
MODEL 8
REMARK VINA RESULT:      -8.1      3.523      6.057
REMARK  Name = 
REMARK  7 active torsions:
REMARK  status: ('A' for Active; 'I' for Inactive)
REMARK    1  A    between atoms: C_1  and  O_2
REMARK    2  A    between atoms: O_2  and  C_3
REMARK    3  A    between atoms: C_8  and  C_9
REMARK    4  A    between atoms: C_11  and  O_12
REMARK    5  A    between atoms: O_12  and  C_13
REMARK    6  A    between atoms: C_13  and  C_14
REMARK    7  A    between atoms: C_18  and  C_19
REMARK                            x       y       z     vdW  Elec       q    Type
REMARK                         _______ _______ _______ _____ _____    ______ ____
ROOT
ATOM      1  C   UNL     1       1.920   3.067  19.415  0.00  0.00    +0.000 A 
ATOM      2  C   UNL     1       2.569   2.036  18.769  0.00  0.00    +0.000 A 
ATOM      3  C   UNL     1       3.509   2.343  17.775  0.00  0.00    +0.000 A 
ATOM      4  C   UNL     1       3.857   3.651  17.442  0.00  0.00    +0.000 A 
ATOM      5  N   UNL     1       4.767   3.833  16.469  0.00  0.00    +0.000 NA
ATOM      6  C   UNL     1       5.128   5.093  16.137  0.00  0.00    +0.000 A 
ATOM      7  C   UNL     1       6.110   5.244  15.015  0.00  0.00    +0.000 C 
ATOM      8  C   UNL     1       4.637   6.206  16.798  0.00  0.00    +0.000 A 
ATOM      9  C   UNL     1       3.717   6.025  17.827  0.00  0.00    +0.000 A 
ATOM     10  C   UNL     1       3.249   4.717  18.135  0.00  0.00    +0.000 A 
ATOM     11  C   UNL     1       2.234   4.374  19.059  0.00  0.00    +0.000 A 
ENDROOT
BRANCH   1  13
ATOM     12  C   UNL     1       1.437   2.635  21.700  0.00  0.00    +0.000 C 
ATOM     13  O   UNL     1       0.988   2.992  20.406  0.00  0.00    +0.000 OA
ENDBRANCH   1  13
BRANCH   9  14
ATOM     14  O   UNL     1       3.379   7.210  18.455  0.00  0.00    +0.000 OA
BRANCH  14  15
ATOM     15  C   UNL     1       2.736   8.189  17.644  0.00  0.00    +0.000 C 
BRANCH  15  16
ATOM     16  C   UNL     1       1.828   9.102  18.419  0.00  0.00    +0.000 A 
ATOM     17  C   UNL     1       1.597  10.411  17.982  0.00  0.00    +0.000 A 
ATOM     18  C   UNL     1       0.881  11.297  18.782  0.00  0.00    +0.000 A 
ATOM     19  C   UNL     1       0.393  10.881  20.021  0.00  0.00    +0.000 A 
ATOM     20  C   UNL     1       0.617   9.573  20.476  0.00  0.00    +0.000 A 
ATOM     21  C   UNL     1       1.333   8.687  19.661  0.00  0.00    +0.000 A 
BRANCH  20  22
ATOM     22  C   UNL     1       0.135   9.105  21.824  0.00  0.00    +0.000 C 
ATOM     23  F   UNL     1       1.134   8.662  22.638  0.00  0.00    +0.000 F 
ATOM     24  F   UNL     1      -0.504  10.087  22.518  0.00  0.00    +0.000 F 
ATOM     25  F   UNL     1      -0.753   8.077  21.731  0.00  0.00    +0.000 F 
ENDBRANCH  20  22
ENDBRANCH  15  16
ENDBRANCH  14  15
ENDBRANCH   9  14
TORSDOF 5
ENDMDL
MODEL 9
REMARK VINA RESULT:      -8.0      4.274      7.878
REMARK  Name = 
REMARK  7 active torsions:
REMARK  status: ('A' for Active; 'I' for Inactive)
REMARK    1  A    between atoms: C_1  and  O_2
REMARK    2  A    between atoms: O_2  and  C_3
REMARK    3  A    between atoms: C_8  and  C_9
REMARK    4  A    between atoms: C_11  and  O_12
REMARK    5  A    between atoms: O_12  and  C_13
REMARK    6  A    between atoms: C_13  and  C_14
REMARK    7  A    between atoms: C_18  and  C_19
REMARK                            x       y       z     vdW  Elec       q    Type
REMARK                         _______ _______ _______ _____ _____    ______ ____
ROOT
ATOM      1  C   UNL     1       2.238   7.740  19.149  0.00  0.00    +0.000 A 
ATOM      2  C   UNL     1       1.762   7.026  20.227  0.00  0.00    +0.000 A 
ATOM      3  C   UNL     1       1.978   5.642  20.274  0.00  0.00    +0.000 A 
ATOM      4  C   UNL     1       2.701   4.956  19.299  0.00  0.00    +0.000 A 
ATOM      5  N   UNL     1       2.845   3.627  19.439  0.00  0.00    +0.000 NA
ATOM      6  C   UNL     1       3.551   2.943  18.511  0.00  0.00    +0.000 A 
ATOM      7  C   UNL     1       3.643   1.457  18.687  0.00  0.00    +0.000 C 
ATOM      8  C   UNL     1       4.182   3.567  17.447  0.00  0.00    +0.000 A 
ATOM      9  C   UNL     1       4.063   4.947  17.312  0.00  0.00    +0.000 A 
ATOM     10  C   UNL     1       3.248   5.679  18.221  0.00  0.00    +0.000 A 
ATOM     11  C   UNL     1       2.926   7.056  18.153  0.00  0.00    +0.000 A 
ENDROOT
BRANCH   1  13
ATOM     12  C   UNL     1       1.170   9.512  17.983  0.00  0.00    +0.000 C 
ATOM     13  O   UNL     1       2.146   9.078  18.911  0.00  0.00    +0.000 OA
ENDBRANCH   1  13
BRANCH   9  14
ATOM     14  O   UNL     1       4.811   5.447  16.261  0.00  0.00    +0.000 OA
BRANCH  14  15
ATOM     15  C   UNL     1       6.098   4.868  16.077  0.00  0.00    +0.000 C 
BRANCH  15  16
ATOM     16  C   UNL     1       6.428   4.594  14.636  0.00  0.00    +0.000 A 
ATOM     17  C   UNL     1       7.594   5.114  14.063  0.00  0.00    +0.000 A 
ATOM     18  C   UNL     1       7.816   4.987  12.695  0.00  0.00    +0.000 A 
ATOM     19  C   UNL     1       6.875   4.342  11.892  0.00  0.00    +0.000 A 
ATOM     20  C   UNL     1       5.700   3.816  12.449  0.00  0.00    +0.000 A 
ATOM     21  C   UNL     1       5.489   3.943  13.827  0.00  0.00    +0.000 A 
BRANCH  20  22
ATOM     22  C   UNL     1       4.648   3.147  11.603  0.00  0.00    +0.000 C 
ATOM     23  F   UNL     1       3.468   2.949  12.253  0.00  0.00    +0.000 F 
ATOM     24  F   UNL     1       4.344   3.864  10.486  0.00  0.00    +0.000 F 
ATOM     25  F   UNL     1       5.040   1.919  11.161  0.00  0.00    +0.000 F 
ENDBRANCH  20  22
ENDBRANCH  15  16
ENDBRANCH  14  15
ENDBRANCH   9  14
TORSDOF 5
ENDMDL
