MODEL 1
REMARK VINA RESULT:      -8.4      0.000      0.000
REMARK  Name = 
REMARK  5 active torsions:
REMARK  status: ('A' for Active; 'I' for Inactive)
REMARK    1  A    between atoms: C_1  and  C_2
REMARK    2  A    between atoms: C_6  and  C_8
REMARK    3  A    between atoms: C_9  and  C_10
REMARK    4  A    between atoms: C_19  and  C_20
REMARK    5  A    between atoms: C_22  and  C_23
REMARK                            x       y       z     vdW  Elec       q    Type
REMARK                         _______ _______ _______ _____ _____    ______ ____
ROOT
ATOM      1  C   UNL     1       4.733   5.610  18.641  0.00  0.00    +0.000 A 
ATOM      2  C   UNL     1       4.453   4.317  19.206  0.00  0.00    +0.000 A 
ATOM      3  N   UNL     1       5.583   3.598  19.280  0.00  0.00    +0.000 NA
ATOM      4  O   UNL     1       6.596   4.399  18.817  0.00  0.00    +0.000 OA
ATOM      5  C   UNL     1       6.096   5.595  18.415  0.00  0.00    +0.000 A 
ATOM      6  C   UNL     1       7.088   6.556  17.898  0.00  0.00    +0.000 C 
ENDROOT
BRANCH   1  12
ATOM      7  C   UNL     1      -0.176   9.950  21.600  0.00  0.00    +0.000 C 
ATOM      8  C   UNL     1       0.588   9.393  20.451  0.00  0.00    +0.000 A 
ATOM      9  N   UNL     1       1.425   8.300  20.660  0.00  0.00    +0.000 NA
ATOM     10  C   UNL     1       2.041   7.991  19.540  0.00  0.00    +0.000 A 
ATOM     11  N   UNL     1       2.957   6.967  19.477  0.00  0.00    +0.000 N 
ATOM     12  C   UNL     1       3.801   6.702  18.415  0.00  0.00    +0.000 C 
ATOM     13  O   UNL     1       3.862   7.336  17.369  0.00  0.00    +0.000 OA
ATOM     14  S   UNL     1       1.610   8.923  18.183  0.00  0.00    +0.000 S 
ATOM     15  C   UNL     1       0.566   9.866  19.150  0.00  0.00    +0.000 A 
ATOM     16  C   UNL     1      -0.197  11.001  18.563  0.00  0.00    +0.000 C 
ATOM     17  H   UNL     1       3.084   6.489  20.356  0.00  0.00    +0.000 HD
ENDBRANCH   1  12
BRANCH   2  18
ATOM     18  C   UNL     1       3.155   3.726  19.568  0.00  0.00    +0.000 A 
ATOM     19  C   UNL     1       2.800   3.664  20.930  0.00  0.00    +0.000 A 
ATOM     20  C   UNL     1       1.573   3.135  21.343  0.00  0.00    +0.000 A 
ATOM     21  C   UNL     1       0.661   2.683  20.399  0.00  0.00    +0.000 A 
ATOM     22  C   UNL     1       0.983   2.746  19.045  0.00  0.00    +0.000 A 
ATOM     23  C   UNL     1       2.224   3.252  18.625  0.00  0.00    +0.000 A 
ATOM     24 CL   UNL     1       2.526   3.209  16.921  0.00  0.00    +0.000 Cl
ENDBRANCH   2  18
TORSDOF 2
ENDMDL
MODEL 2
REMARK VINA RESULT:      -8.2      2.089      4.203
REMARK  Name = 
REMARK  5 active torsions:
REMARK  status: ('A' for Active; 'I' for Inactive)
REMARK    1  A    between atoms: C_1  and  C_2
REMARK    2  A    between atoms: C_6  and  C_8
REMARK    3  A    between atoms: C_9  and  C_10
REMARK    4  A    between atoms: C_19  and  C_20
REMARK    5  A    between atoms: C_22  and  C_23
REMARK                            x       y       z     vdW  Elec       q    Type
REMARK                         _______ _______ _______ _____ _____    ______ ____
ROOT
ATOM      1  C   UNL     1       3.108   4.449  18.639  0.00  0.00    +0.000 A 
ATOM      2  C   UNL     1       4.403   4.353  18.019  0.00  0.00    +0.000 A 
ATOM      3  N   UNL     1       4.498   3.200  17.340  0.00  0.00    +0.000 NA
ATOM      4  O   UNL     1       3.291   2.562  17.467  0.00  0.00    +0.000 OA
ATOM      5  C   UNL     1       2.461   3.289  18.256  0.00  0.00    +0.000 A 
ATOM      6  C   UNL     1       1.121   2.713  18.469  0.00  0.00    +0.000 C 
ENDROOT
BRANCH   1  12
ATOM      7  C   UNL     1       0.607  11.189  18.577  0.00  0.00    +0.000 C 
ATOM      8  C   UNL     1       1.054   9.942  19.253  0.00  0.00    +0.000 A 
ATOM      9  N   UNL     1       1.623   8.924  18.492  0.00  0.00    +0.000 NA
ATOM     10  C   UNL     1       1.907   7.897  19.263  0.00  0.00    +0.000 A 
ATOM     11  N   UNL     1       2.446   6.738  18.755  0.00  0.00    +0.000 N 
ATOM     12  C   UNL     1       2.583   5.545  19.437  0.00  0.00    +0.000 C 
ATOM     13  O   UNL     1       2.248   5.335  20.596  0.00  0.00    +0.000 OA
ATOM     14  S   UNL     1       1.585   8.111  20.920  0.00  0.00    +0.000 S 
ATOM     15  C   UNL     1       0.955   9.666  20.607  0.00  0.00    +0.000 A 
ATOM     16  C   UNL     1       0.408  10.503  21.710  0.00  0.00    +0.000 C 
ATOM     17  H   UNL     1       2.607   6.775  17.760  0.00  0.00    +0.000 HD
ENDBRANCH   1  12
BRANCH   2  18
ATOM     18  C   UNL     1       5.557   5.257  18.141  0.00  0.00    +0.000 A 
ATOM     19  C   UNL     1       6.449   5.070  19.215  0.00  0.00    +0.000 A 
ATOM     20  C   UNL     1       7.578   5.879  19.378  0.00  0.00    +0.000 A 
ATOM     21  C   UNL     1       7.854   6.877  18.454  0.00  0.00    +0.000 A 
ATOM     22  C   UNL     1       6.993   7.075  17.376  0.00  0.00    +0.000 A 
ATOM     23  C   UNL     1       5.844   6.283  17.221  0.00  0.00    +0.000 A 
ATOM     24 CL   UNL     1       4.823   6.677  15.879  0.00  0.00    +0.000 Cl
ENDBRANCH   2  18
TORSDOF 2
ENDMDL
MODEL 3
REMARK VINA RESULT:      -8.1      1.523      3.832
REMARK  Name = 
REMARK  5 active torsions:
REMARK  status: ('A' for Active; 'I' for Inactive)
REMARK    1  A    between atoms: C_1  and  C_2
REMARK    2  A    between atoms: C_6  and  C_8
REMARK    3  A    between atoms: C_9  and  C_10
REMARK    4  A    between atoms: C_19  and  C_20
REMARK    5  A    between atoms: C_22  and  C_23
REMARK                            x       y       z     vdW  Elec       q    Type
REMARK                         _______ _______ _______ _____ _____    ______ ____
ROOT
ATOM      1  C   UNL     1       3.288   4.720  19.778  0.00  0.00    +0.000 A 
ATOM      2  C   UNL     1       4.548   4.213  19.303  0.00  0.00    +0.000 A 
ATOM      3  N   UNL     1       4.704   2.939  19.694  0.00  0.00    +0.000 NA
ATOM      4  O   UNL     1       3.567   2.590  20.377  0.00  0.00    +0.000 OA
ATOM      5  C   UNL     1       2.724   3.651  20.449  0.00  0.00    +0.000 A 
ATOM      6  C   UNL     1       1.454   3.406  21.157  0.00  0.00    +0.000 C 
ENDROOT
BRANCH   1  12
ATOM      7  C   UNL     1      -0.146  10.302  22.732  0.00  0.00    +0.000 C 
ATOM      8  C   UNL     1       0.426   9.547  21.585  0.00  0.00    +0.000 A 
ATOM      9  N   UNL     1       0.905   8.257  21.793  0.00  0.00    +0.000 NA
ATOM     10  C   UNL     1       1.408   7.782  20.674  0.00  0.00    +0.000 A 
ATOM     11  N   UNL     1       1.985   6.535  20.611  0.00  0.00    +0.000 N 
ATOM     12  C   UNL     1       2.718   6.037  19.552  0.00  0.00    +0.000 C 
ATOM     13  O   UNL     1       2.965   6.626  18.508  0.00  0.00    +0.000 OA
ATOM     14  S   UNL     1       1.274   8.802  19.318  0.00  0.00    +0.000 S 
ATOM     15  C   UNL     1       0.548  10.008  20.284  0.00  0.00    +0.000 A 
ATOM     16  C   UNL     1       0.153  11.317  19.698  0.00  0.00    +0.000 C 
ATOM     17  H   UNL     1       1.963   6.040  21.490  0.00  0.00    +0.000 HD
ENDBRANCH   1  12
BRANCH   2  18
ATOM     18  C   UNL     1       5.624   4.924  18.594  0.00  0.00    +0.000 A 
ATOM     19  C   UNL     1       6.621   5.567  19.354  0.00  0.00    +0.000 A 
ATOM     20  C   UNL     1       7.683   6.242  18.745  0.00  0.00    +0.000 A 
ATOM     21  C   UNL     1       7.787   6.265  17.361  0.00  0.00    +0.000 A 
ATOM     22  C   UNL     1       6.820   5.626  16.587  0.00  0.00    +0.000 A 
ATOM     23  C   UNL     1       5.737   4.968  17.191  0.00  0.00    +0.000 A 
ATOM     24 CL   UNL     1       4.570   4.275  16.116  0.00  0.00    +0.000 Cl
ENDBRANCH   2  18
TORSDOF 2
ENDMDL
MODEL 4
REMARK VINA RESULT:      -8.0      2.009      3.951
REMARK  Name = 
REMARK  5 active torsions:
REMARK  status: ('A' for Active; 'I' for Inactive)
REMARK    1  A    between atoms: C_1  and  C_2
REMARK    2  A    between atoms: C_6  and  C_8
REMARK    3  A    between atoms: C_9  and  C_10
REMARK    4  A    between atoms: C_19  and  C_20
REMARK    5  A    between atoms: C_22  and  C_23
REMARK                            x       y       z     vdW  Elec       q    Type
REMARK                         _______ _______ _______ _____ _____    ______ ____
ROOT
ATOM      1  C   UNL     1       3.490   4.530  19.549  0.00  0.00    +0.000 A 
ATOM      2  C   UNL     1       4.517   3.800  18.855  0.00  0.00    +0.000 A 
ATOM      3  N   UNL     1       4.688   2.598  19.426  0.00  0.00    +0.000 NA
ATOM      4  O   UNL     1       3.776   2.510  20.447  0.00  0.00    +0.000 OA
ATOM      5  C   UNL     1       3.069   3.664  20.541  0.00  0.00    +0.000 A 
ATOM      6  C   UNL     1       2.046   3.697  21.601  0.00  0.00    +0.000 C 
ENDROOT
BRANCH   1  12
ATOM      7  C   UNL     1       0.165  10.371  22.101  0.00  0.00    +0.000 C 
ATOM      8  C   UNL     1       0.746   9.539  21.012  0.00  0.00    +0.000 A 
ATOM      9  N   UNL     1       1.171   8.245  21.301  0.00  0.00    +0.000 NA
ATOM     10  C   UNL     1       1.693   7.697  20.226  0.00  0.00    +0.000 A 
ATOM     11  N   UNL     1       2.226   6.429  20.245  0.00  0.00    +0.000 N 
ATOM     12  C   UNL     1       2.975   5.852  19.238  0.00  0.00    +0.000 C 
ATOM     13  O   UNL     1       3.277   6.379  18.174  0.00  0.00    +0.000 OA
ATOM     14  S   UNL     1       1.640   8.650  18.816  0.00  0.00    +0.000 S 
ATOM     15  C   UNL     1       0.927   9.928  19.695  0.00  0.00    +0.000 A 
ATOM     16  C   UNL     1       0.599  11.218  19.031  0.00  0.00    +0.000 C 
ATOM     17  H   UNL     1       2.158   5.981  21.146  0.00  0.00    +0.000 HD
ENDBRANCH   1  12
BRANCH   2  18
ATOM     18  C   UNL     1       5.389   4.246  17.756  0.00  0.00    +0.000 A 
ATOM     19  C   UNL     1       5.061   3.868  16.440  0.00  0.00    +0.000 A 
ATOM     20  C   UNL     1       5.833   4.276  15.347  0.00  0.00    +0.000 A 
ATOM     21  C   UNL     1       6.936   5.095  15.546  0.00  0.00    +0.000 A 
ATOM     22  C   UNL     1       7.274   5.493  16.838  0.00  0.00    +0.000 A 
ATOM     23  C   UNL     1       6.518   5.067  17.942  0.00  0.00    +0.000 A 
ATOM     24 CL   UNL     1       7.085   5.575  19.497  0.00  0.00    +0.000 Cl
ENDBRANCH   2  18
TORSDOF 2
ENDMDL
MODEL 5
REMARK VINA RESULT:      -8.0      1.854      4.029
REMARK  Name = 
REMARK  5 active torsions:
REMARK  status: ('A' for Active; 'I' for Inactive)
REMARK    1  A    between atoms: C_1  and  C_2
REMARK    2  A    between atoms: C_6  and  C_8
REMARK    3  A    between atoms: C_9  and  C_10
REMARK    4  A    between atoms: C_19  and  C_20
REMARK    5  A    between atoms: C_22  and  C_23
REMARK                            x       y       z     vdW  Elec       q    Type
REMARK                         _______ _______ _______ _____ _____    ______ ____
ROOT
ATOM      1  C   UNL     1       3.124   5.052  18.516  0.00  0.00    +0.000 A 
ATOM      2  C   UNL     1       4.480   4.662  18.237  0.00  0.00    +0.000 A 
ATOM      3  N   UNL     1       4.543   3.335  18.051  0.00  0.00    +0.000 NA
ATOM      4  O   UNL     1       3.263   2.856  18.161  0.00  0.00    +0.000 OA
ATOM      5  C   UNL     1       2.411   3.869  18.457  0.00  0.00    +0.000 A 
ATOM      6  C   UNL     1       0.994   3.487  18.598  0.00  0.00    +0.000 C 
ENDROOT
BRANCH   1  12
ATOM      7  C   UNL     1       0.202   9.565  23.289  0.00  0.00    +0.000 C 
ATOM      8  C   UNL     1       0.656   9.182  21.925  0.00  0.00    +0.000 A 
ATOM      9  N   UNL     1       1.075   7.875  21.692  0.00  0.00    +0.000 NA
ATOM     10  C   UNL     1       1.478   7.752  20.446  0.00  0.00    +0.000 A 
ATOM     11  N   UNL     1       1.980   6.565  19.962  0.00  0.00    +0.000 N 
ATOM     12  C   UNL     1       2.614   6.393  18.747  0.00  0.00    +0.000 C 
ATOM     13  O   UNL     1       2.827   7.267  17.916  0.00  0.00    +0.000 OA
ATOM     14  S   UNL     1       1.315   9.143  19.480  0.00  0.00    +0.000 S 
ATOM     15  C   UNL     1       0.721  10.016  20.821  0.00  0.00    +0.000 A 
ATOM     16  C   UNL     1       0.363  11.455  20.694  0.00  0.00    +0.000 C 
ATOM     17  H   UNL     1       1.985   5.825  20.647  0.00  0.00    +0.000 HD
ENDBRANCH   1  12
BRANCH   2  18
ATOM     18  C   UNL     1       5.701   5.484  18.248  0.00  0.00    +0.000 A 
ATOM     19  C   UNL     1       6.581   5.368  19.341  0.00  0.00    +0.000 A 
ATOM     20  C   UNL     1       7.769   6.102  19.405  0.00  0.00    +0.000 A 
ATOM     21  C   UNL     1       8.116   6.950  18.362  0.00  0.00    +0.000 A 
ATOM     22  C   UNL     1       7.268   7.073  17.263  0.00  0.00    +0.000 A 
ATOM     23  C   UNL     1       6.061   6.357  17.205  0.00  0.00    +0.000 A 
ATOM     24 CL   UNL     1       5.066   6.653  15.818  0.00  0.00    +0.000 Cl
ENDBRANCH   2  18
TORSDOF 2
ENDMDL
MODEL 6
REMARK VINA RESULT:      -7.6      1.113      1.510
REMARK  Name = 
REMARK  5 active torsions:
REMARK  status: ('A' for Active; 'I' for Inactive)
REMARK    1  A    between atoms: C_1  and  C_2
REMARK    2  A    between atoms: C_6  and  C_8
REMARK    3  A    between atoms: C_9  and  C_10
REMARK    4  A    between atoms: C_19  and  C_20
REMARK    5  A    between atoms: C_22  and  C_23
REMARK                            x       y       z     vdW  Elec       q    Type
REMARK                         _______ _______ _______ _____ _____    ______ ____
ROOT
ATOM      1  C   UNL     1       4.735   5.531  18.607  0.00  0.00    +0.000 A 
ATOM      2  C   UNL     1       4.398   4.179  18.965  0.00  0.00    +0.000 A 
ATOM      3  N   UNL     1       5.518   3.457  19.126  0.00  0.00    +0.000 NA
ATOM      4  O   UNL     1       6.573   4.309  18.922  0.00  0.00    +0.000 OA
ATOM      5  C   UNL     1       6.117   5.544  18.593  0.00  0.00    +0.000 A 
ATOM      6  C   UNL     1       7.157   6.561  18.351  0.00  0.00    +0.000 C 
ENDROOT
BRANCH   1  12
ATOM      7  C   UNL     1      -0.112   9.970  21.520  0.00  0.00    +0.000 C 
ATOM      8  C   UNL     1       0.651   9.397  20.379  0.00  0.00    +0.000 A 
ATOM      9  N   UNL     1       1.464   8.287  20.595  0.00  0.00    +0.000 NA
ATOM     10  C   UNL     1       2.084   7.965  19.481  0.00  0.00    +0.000 A 
ATOM     11  N   UNL     1       2.980   6.923  19.426  0.00  0.00    +0.000 N 
ATOM     12  C   UNL     1       3.827   6.641  18.373  0.00  0.00    +0.000 C 
ATOM     13  O   UNL     1       3.910   7.272  17.327  0.00  0.00    +0.000 OA
ATOM     14  S   UNL     1       1.683   8.904  18.120  0.00  0.00    +0.000 S 
ATOM     15  C   UNL     1       0.650   9.869  19.076  0.00  0.00    +0.000 A 
ATOM     16  C   UNL     1      -0.085  11.019  18.482  0.00  0.00    +0.000 C 
ATOM     17  H   UNL     1       3.089   6.444  20.308  0.00  0.00    +0.000 HD
ENDBRANCH   1  12
BRANCH   2  18
ATOM     18  C   UNL     1       3.072   3.547  19.053  0.00  0.00    +0.000 A 
ATOM     19  C   UNL     1       2.603   2.809  17.948  0.00  0.00    +0.000 A 
ATOM     20  C   UNL     1       1.362   2.165  17.972  0.00  0.00    +0.000 A 
ATOM     21  C   UNL     1       0.574   2.223  19.113  0.00  0.00    +0.000 A 
ATOM     22  C   UNL     1       1.020   2.937  20.223  0.00  0.00    +0.000 A 
ATOM     23  C   UNL     1       2.254   3.606  20.197  0.00  0.00    +0.000 A 
ATOM     24 CL   UNL     1       2.659   4.513  21.616  0.00  0.00    +0.000 Cl
ENDBRANCH   2  18
TORSDOF 2
ENDMDL
MODEL 7
REMARK VINA RESULT:      -6.9      3.452      6.552
REMARK  Name = 
REMARK  5 active torsions:
REMARK  status: ('A' for Active; 'I' for Inactive)
REMARK    1  A    between atoms: C_1  and  C_2
REMARK    2  A    between atoms: C_6  and  C_8
REMARK    3  A    between atoms: C_9  and  C_10
REMARK    4  A    between atoms: C_19  and  C_20
REMARK    5  A    between atoms: C_22  and  C_23
REMARK                            x       y       z     vdW  Elec       q    Type
REMARK                         _______ _______ _______ _____ _____    ______ ____
ROOT
ATOM      1  C   UNL     1       3.573   4.933  19.336  0.00  0.00    +0.000 A 
ATOM      2  C   UNL     1       2.580   5.862  19.805  0.00  0.00    +0.000 A 
ATOM      3  N   UNL     1       1.846   5.294  20.774  0.00  0.00    +0.000 NA
ATOM      4  O   UNL     1       2.357   4.037  20.976  0.00  0.00    +0.000 OA
ATOM      5  C   UNL     1       3.375   3.804  20.110  0.00  0.00    +0.000 A 
ATOM      6  C   UNL     1       4.019   2.483  20.227  0.00  0.00    +0.000 C 
ENDROOT
BRANCH   1  12
ATOM      7  C   UNL     1       5.670   3.503  12.610  0.00  0.00    +0.000 C 
ATOM      8  C   UNL     1       5.858   4.080  13.968  0.00  0.00    +0.000 A 
ATOM      9  N   UNL     1       4.919   3.804  14.958  0.00  0.00    +0.000 NA
ATOM     10  C   UNL     1       5.238   4.439  16.064  0.00  0.00    +0.000 A 
ATOM     11  N   UNL     1       4.453   4.369  17.192  0.00  0.00    +0.000 N 
ATOM     12  C   UNL     1       4.588   5.154  18.320  0.00  0.00    +0.000 C 
ATOM     13  O   UNL     1       5.425   6.032  18.490  0.00  0.00    +0.000 OA
ATOM     14  S   UNL     1       6.689   5.327  16.009  0.00  0.00    +0.000 S 
ATOM     15  C   UNL     1       6.899   4.901  14.370  0.00  0.00    +0.000 A 
ATOM     16  C   UNL     1       8.067   5.404  13.596  0.00  0.00    +0.000 C 
ATOM     17  H   UNL     1       3.642   3.780  17.077  0.00  0.00    +0.000 HD
ENDBRANCH   1  12
BRANCH   2  18
ATOM     18  C   UNL     1       2.253   7.203  19.296  0.00  0.00    +0.000 A 
ATOM     19  C   UNL     1       2.536   7.499  17.948  0.00  0.00    +0.000 A 
ATOM     20  C   UNL     1       2.231   8.746  17.393  0.00  0.00    +0.000 A 
ATOM     21  C   UNL     1       1.610   9.715  18.168  0.00  0.00    +0.000 A 
ATOM     22  C   UNL     1       1.308   9.443  19.501  0.00  0.00    +0.000 A 
ATOM     23  C   UNL     1       1.635   8.202  20.071  0.00  0.00    +0.000 A 
ATOM     24 CL   UNL     1       1.269   8.017  21.754  0.00  0.00    +0.000 Cl
ENDBRANCH   2  18
TORSDOF 2
ENDMDL
MODEL 8
REMARK VINA RESULT:      -6.7      8.698     10.398
REMARK  Name = 
REMARK  5 active torsions:
REMARK  status: ('A' for Active; 'I' for Inactive)
REMARK    1  A    between atoms: C_1  and  C_2
REMARK    2  A    between atoms: C_6  and  C_8
REMARK    3  A    between atoms: C_9  and  C_10
REMARK    4  A    between atoms: C_19  and  C_20
REMARK    5  A    between atoms: C_22  and  C_23
REMARK                            x       y       z     vdW  Elec       q    Type
REMARK                         _______ _______ _______ _____ _____    ______ ____
ROOT
ATOM      1  C   UNL     1       9.929  15.240  18.148  0.00  0.00    +0.000 A 
ATOM      2  C   UNL     1      10.587  13.961  18.173  0.00  0.00    +0.000 A 
ATOM      3  N   UNL     1      11.761  14.039  17.528  0.00  0.00    +0.000 NA
ATOM      4  O   UNL     1      11.904  15.340  17.119  0.00  0.00    +0.000 OA
ATOM      5  C   UNL     1      10.809  16.061  17.467  0.00  0.00    +0.000 A 
ATOM      6  C   UNL     1      10.839  17.485  17.087  0.00  0.00    +0.000 C 
ENDROOT
BRANCH   1  12
ATOM      7  C   UNL     1       2.807  14.268  18.041  0.00  0.00    +0.000 C 
ATOM      8  C   UNL     1       4.053  14.927  18.517  0.00  0.00    +0.000 A 
ATOM      9  N   UNL     1       5.259  14.635  17.885  0.00  0.00    +0.000 NA
ATOM     10  C   UNL     1       6.240  15.278  18.478  0.00  0.00    +0.000 A 
ATOM     11  N   UNL     1       7.548  15.137  18.074  0.00  0.00    +0.000 N 
ATOM     12  C   UNL     1       8.658  15.598  18.753  0.00  0.00    +0.000 C 
ATOM     13  O   UNL     1       8.650  16.204  19.818  0.00  0.00    +0.000 OA
ATOM     14  S   UNL     1       5.780  16.306  19.754  0.00  0.00    +0.000 S 
ATOM     15  C   UNL     1       4.152  15.827  19.565  0.00  0.00    +0.000 A 
ATOM     16  C   UNL     1       3.092  16.366  20.460  0.00  0.00    +0.000 C 
ATOM     17  H   UNL     1       7.657  14.515  17.286  0.00  0.00    +0.000 HD
ENDBRANCH   1  12
BRANCH   2  18
ATOM     18  C   UNL     1      10.091  12.675  18.689  0.00  0.00    +0.000 A 
ATOM     19  C   UNL     1       9.734  11.672  17.768  0.00  0.00    +0.000 A 
ATOM     20  C   UNL     1       9.277  10.420  18.190  0.00  0.00    +0.000 A 
ATOM     21  C   UNL     1       9.193  10.134  19.546  0.00  0.00    +0.000 A 
ATOM     22  C   UNL     1       9.553  11.106  20.478  0.00  0.00    +0.000 A 
ATOM     23  C   UNL     1       9.988  12.374  20.061  0.00  0.00    +0.000 A 
ATOM     24 CL   UNL     1      10.337  13.512  21.319  0.00  0.00    +0.000 Cl
ENDBRANCH   2  18
TORSDOF 2
ENDMDL
MODEL 9
REMARK VINA RESULT:      -6.6      4.047      8.482
REMARK  Name = 
REMARK  5 active torsions:
REMARK  status: ('A' for Active; 'I' for Inactive)
REMARK    1  A    between atoms: C_1  and  C_2
REMARK    2  A    between atoms: C_6  and  C_8
REMARK    3  A    between atoms: C_9  and  C_10
REMARK    4  A    between atoms: C_19  and  C_20
REMARK    5  A    between atoms: C_22  and  C_23
REMARK                            x       y       z     vdW  Elec       q    Type
REMARK                         _______ _______ _______ _____ _____    ______ ____
ROOT
ATOM      1  C   UNL     1      -0.355  10.842  18.513  0.00  0.00    +0.000 A 
ATOM      2  C   UNL     1      -0.091  12.247  18.678  0.00  0.00    +0.000 A 
ATOM      3  N   UNL     1      -1.132  12.963  18.226  0.00  0.00    +0.000 NA
ATOM      4  O   UNL     1      -2.081  12.065  17.808  0.00  0.00    +0.000 OA
ATOM      5  C   UNL     1      -1.620  10.798  17.957  0.00  0.00    +0.000 A 
ATOM      6  C   UNL     1      -2.552   9.731  17.547  0.00  0.00    +0.000 C 
ENDROOT
BRANCH   1  12
ATOM      7  C   UNL     1       5.014   6.490  16.536  0.00  0.00    +0.000 C 
ATOM      8  C   UNL     1       3.929   6.933  17.453  0.00  0.00    +0.000 A 
ATOM      9  N   UNL     1       3.074   7.954  17.047  0.00  0.00    +0.000 NA
ATOM     10  C   UNL     1       2.220   8.229  18.009  0.00  0.00    +0.000 A 
ATOM     11  N   UNL     1       1.284   9.228  17.882  0.00  0.00    +0.000 N 
ATOM     12  C   UNL     1       0.493   9.727  18.899  0.00  0.00    +0.000 C 
ATOM     13  O   UNL     1       0.502   9.356  20.066  0.00  0.00    +0.000 OA
ATOM     14  S   UNL     1       2.340   7.253  19.398  0.00  0.00    +0.000 S 
ATOM     15  C   UNL     1       3.672   6.430  18.717  0.00  0.00    +0.000 A 
ATOM     16  C   UNL     1       4.368   5.353  19.472  0.00  0.00    +0.000 C 
ATOM     17  H   UNL     1       1.319   9.698  16.990  0.00  0.00    +0.000 HD
ENDBRANCH   1  12
BRANCH   2  18
ATOM     18  C   UNL     1       1.137  12.909  19.145  0.00  0.00    +0.000 A 
ATOM     19  C   UNL     1       2.146  13.198  18.206  0.00  0.00    +0.000 A 
ATOM     20  C   UNL     1       3.329  13.845  18.577  0.00  0.00    +0.000 A 
ATOM     21  C   UNL     1       3.516  14.243  19.894  0.00  0.00    +0.000 A 
ATOM     22  C   UNL     1       2.527  13.980  20.841  0.00  0.00    +0.000 A 
ATOM     23  C   UNL     1       1.348  13.308  20.479  0.00  0.00    +0.000 A 
ATOM     24 CL   UNL     1       0.233  12.982  21.763  0.00  0.00    +0.000 Cl
ENDBRANCH   2  18
TORSDOF 2
ENDMDL
