MODEL 1
REMARK VINA RESULT:      -7.1      0.000      0.000
REMARK  Name = 
REMARK  11 active torsions:
REMARK  status: ('A' for Active; 'I' for Inactive)
REMARK    1  A    between atoms: C_1  and  C_2
REMARK    2  A    between atoms: C_2  and  C_3
REMARK    3  A    between atoms: C_2  and  C_4
REMARK    4  A    between atoms: C_2  and  O_5
REMARK    5  A    between atoms: O_5  and  C_6
REMARK    6  A    between atoms: N_8  and  C_9
REMARK    7  A    between atoms: C_9  and  C_10
REMARK    8  A    between atoms: C_14  and  N_15
REMARK    9  A    between atoms: C_16  and  C_18
REMARK   10  A    between atoms: C_25  and  C_26
REMARK   11  A    between atoms: C_26  and  O_28
REMARK                            x       y       z     vdW  Elec       q    Type
REMARK                         _______ _______ _______ _____ _____    ______ ____
ROOT
ATOM      1  C   UNL     1       2.235   5.639  18.287  0.00  0.00    +0.000 C 
ATOM      2  O   UNL     1       1.092   5.170  18.357  0.00  0.00    +0.000 OA
ATOM      3  N   UNL     1       3.301   4.860  18.665  0.00  0.00    +0.000 N 
ATOM      4  C   UNL     1       4.698   5.258  18.802  0.00  0.00    +0.000 C 
ATOM      5  C   UNL     1       5.469   4.006  18.374  0.00  0.00    +0.000 C 
ATOM      6  C   UNL     1       4.586   2.852  18.853  0.00  0.00    +0.000 C 
ATOM      7  C   UNL     1       3.159   3.422  18.932  0.00  0.00    +0.000 C 
ENDROOT
BRANCH   5   8
ATOM      8  N   UNL     1       5.655   3.953  16.926  0.00  0.00    +0.000 N 
ATOM      9  C   UNL     1       6.821   4.428  16.355  0.00  0.00    +0.000 C 
ATOM     10  O   UNL     1       7.756   4.870  17.016  0.00  0.00    +0.000 OA
ATOM     11  H   UNL     1       4.836   3.863  16.338  0.00  0.00    +0.000 HD
BRANCH   9  12
ATOM     12  C   UNL     1       6.883   4.425  14.866  0.00  0.00    +0.000 A 
ATOM     13  C   UNL     1       6.018   3.575  14.165  0.00  0.00    +0.000 A 
ATOM     14  C   UNL     1       6.049   3.535  12.771  0.00  0.00    +0.000 A 
ATOM     15  C   UNL     1       6.938   4.351  12.070  0.00  0.00    +0.000 A 
ATOM     16  C   UNL     1       7.786   5.215  12.761  0.00  0.00    +0.000 A 
ATOM     17  C   UNL     1       7.758   5.259  14.157  0.00  0.00    +0.000 A 
ENDBRANCH   9  12
ENDBRANCH   5   8
BRANCH   7  18
ATOM     18  C   UNL     1       2.497   3.123  20.293  0.00  0.00    +0.000 C 
ATOM     19  O   UNL     1       3.104   2.934  21.337  0.00  0.00    +0.000 OA
BRANCH  18  20
ATOM     20  O   UNL     1       1.149   3.003  20.230  0.00  0.00    +0.000 OA
ATOM     21  H   UNL     1       0.846   2.061  20.266  0.00  0.00    +0.000 HD
ENDBRANCH  18  20
ENDBRANCH   7  18
BRANCH   1  22
ATOM     22  C   UNL     1       2.461   7.088  17.849  0.00  0.00    +0.000 C 
BRANCH  22  25
ATOM     23  C   UNL     1       1.825   9.362  18.487  0.00  0.00    +0.000 C 
ATOM     24  O   UNL     1       2.134   9.806  17.392  0.00  0.00    +0.000 OA
ATOM     25  N   UNL     1       2.002   8.052  18.827  0.00  0.00    +0.000 N 
ATOM     26  H   UNL     1       1.695   7.760  19.742  0.00  0.00    +0.000 HD
BRANCH  23  27
ATOM     27  O   UNL     1       1.261  10.063  19.498  0.00  0.00    +0.000 OA
BRANCH  27  29
ATOM     28  C   UNL     1      -0.843  10.853  20.526  0.00  0.00    +0.000 C 
ATOM     29  C   UNL     1       0.007  10.764  19.249  0.00  0.00    +0.000 C 
ATOM     30  C   UNL     1      -0.765  10.118  18.090  0.00  0.00    +0.000 C 
ATOM     31  C   UNL     1       0.371  12.201  18.835  0.00  0.00    +0.000 C 
ENDBRANCH  27  29
ENDBRANCH  23  27
ENDBRANCH  22  25
ENDBRANCH   1  22
TORSDOF 8
ENDMDL
MODEL 2
REMARK VINA RESULT:      -7.0      0.964      1.529
REMARK  Name = 
REMARK  11 active torsions:
REMARK  status: ('A' for Active; 'I' for Inactive)
REMARK    1  A    between atoms: C_1  and  C_2
REMARK    2  A    between atoms: C_2  and  C_3
REMARK    3  A    between atoms: C_2  and  C_4
REMARK    4  A    between atoms: C_2  and  O_5
REMARK    5  A    between atoms: O_5  and  C_6
REMARK    6  A    between atoms: N_8  and  C_9
REMARK    7  A    between atoms: C_9  and  C_10
REMARK    8  A    between atoms: C_14  and  N_15
REMARK    9  A    between atoms: C_16  and  C_18
REMARK   10  A    between atoms: C_25  and  C_26
REMARK   11  A    between atoms: C_26  and  O_28
REMARK                            x       y       z     vdW  Elec       q    Type
REMARK                         _______ _______ _______ _____ _____    ______ ____
ROOT
ATOM      1  C   UNL     1       2.292   5.793  19.222  0.00  0.00    +0.000 C 
ATOM      2  O   UNL     1       1.087   5.517  19.278  0.00  0.00    +0.000 OA
ATOM      3  N   UNL     1       3.214   4.823  19.532  0.00  0.00    +0.000 N 
ATOM      4  C   UNL     1       4.659   4.972  19.674  0.00  0.00    +0.000 C 
ATOM      5  C   UNL     1       5.207   3.641  19.154  0.00  0.00    +0.000 C 
ATOM      6  C   UNL     1       4.145   2.621  19.567  0.00  0.00    +0.000 C 
ATOM      7  C   UNL     1       2.834   3.414  19.705  0.00  0.00    +0.000 C 
ENDROOT
BRANCH   5   8
ATOM      8  N   UNL     1       5.377   3.656  17.702  0.00  0.00    +0.000 N 
ATOM      9  C   UNL     1       6.476   4.274  17.136  0.00  0.00    +0.000 C 
ATOM     10  O   UNL     1       7.366   4.795  17.800  0.00  0.00    +0.000 OA
ATOM     11  H   UNL     1       4.565   3.497  17.121  0.00  0.00    +0.000 HD
BRANCH   9  12
ATOM     12  C   UNL     1       6.516   4.327  15.647  0.00  0.00    +0.000 A 
ATOM     13  C   UNL     1       7.529   5.075  15.034  0.00  0.00    +0.000 A 
ATOM     14  C   UNL     1       7.598   5.158  13.643  0.00  0.00    +0.000 A 
ATOM     15  C   UNL     1       6.663   4.484  12.858  0.00  0.00    +0.000 A 
ATOM     16  C   UNL     1       5.665   3.719  13.461  0.00  0.00    +0.000 A 
ATOM     17  C   UNL     1       5.592   3.633  14.853  0.00  0.00    +0.000 A 
ENDBRANCH   9  12
ENDBRANCH   5   8
BRANCH   7  18
ATOM     18  C   UNL     1       2.136   3.138  21.054  0.00  0.00    +0.000 C 
ATOM     19  O   UNL     1       2.714   2.986  22.119  0.00  0.00    +0.000 OA
BRANCH  18  20
ATOM     20  O   UNL     1       0.793   2.993  20.953  0.00  0.00    +0.000 OA
ATOM     21  H   UNL     1       0.513   2.599  20.090  0.00  0.00    +0.000 HD
ENDBRANCH  18  20
ENDBRANCH   7  18
BRANCH   1  22
ATOM     22  C   UNL     1       2.756   7.210  18.879  0.00  0.00    +0.000 C 
BRANCH  22  25
ATOM     23  C   UNL     1       1.469   9.191  18.248  0.00  0.00    +0.000 C 
ATOM     24  O   UNL     1       2.098   9.328  17.209  0.00  0.00    +0.000 OA
ATOM     25  N   UNL     1       1.755   8.217  19.159  0.00  0.00    +0.000 N 
ATOM     26  H   UNL     1       1.169   8.155  19.979  0.00  0.00    +0.000 HD
BRANCH  23  27
ATOM     27  O   UNL     1       0.413   9.942  18.641  0.00  0.00    +0.000 OA
BRANCH  27  29
ATOM     28  C   UNL     1       1.900  11.916  18.621  0.00  0.00    +0.000 C 
ATOM     29  C   UNL     1       0.666  11.244  19.244  0.00  0.00    +0.000 C 
ATOM     30  C   UNL     1       0.785  11.131  20.771  0.00  0.00    +0.000 C 
ATOM     31  C   UNL     1      -0.553  12.130  18.927  0.00  0.00    +0.000 C 
ENDBRANCH  27  29
ENDBRANCH  23  27
ENDBRANCH  22  25
ENDBRANCH   1  22
TORSDOF 8
ENDMDL
MODEL 3
REMARK VINA RESULT:      -7.0      0.809      1.116
REMARK  Name = 
REMARK  11 active torsions:
REMARK  status: ('A' for Active; 'I' for Inactive)
REMARK    1  A    between atoms: C_1  and  C_2
REMARK    2  A    between atoms: C_2  and  C_3
REMARK    3  A    between atoms: C_2  and  C_4
REMARK    4  A    between atoms: C_2  and  O_5
REMARK    5  A    between atoms: O_5  and  C_6
REMARK    6  A    between atoms: N_8  and  C_9
REMARK    7  A    between atoms: C_9  and  C_10
REMARK    8  A    between atoms: C_14  and  N_15
REMARK    9  A    between atoms: C_16  and  C_18
REMARK   10  A    between atoms: C_25  and  C_26
REMARK   11  A    between atoms: C_26  and  O_28
REMARK                            x       y       z     vdW  Elec       q    Type
REMARK                         _______ _______ _______ _____ _____    ______ ____
ROOT
ATOM      1  C   UNL     1       2.529   5.885  18.357  0.00  0.00    +0.000 C 
ATOM      2  O   UNL     1       1.410   5.387  18.536  0.00  0.00    +0.000 OA
ATOM      3  N   UNL     1       3.641   5.197  18.779  0.00  0.00    +0.000 N 
ATOM      4  C   UNL     1       5.025   5.659  18.804  0.00  0.00    +0.000 C 
ATOM      5  C   UNL     1       5.828   4.391  18.499  0.00  0.00    +0.000 C 
ATOM      6  C   UNL     1       5.013   3.275  19.154  0.00  0.00    +0.000 C 
ATOM      7  C   UNL     1       3.568   3.799  19.227  0.00  0.00    +0.000 C 
ENDROOT
BRANCH   5   8
ATOM      8  N   UNL     1       5.957   4.166  17.061  0.00  0.00    +0.000 N 
ATOM      9  C   UNL     1       6.852   4.911  16.316  0.00  0.00    +0.000 C 
ATOM     10  O   UNL     1       7.596   5.752  16.812  0.00  0.00    +0.000 OA
ATOM     11  H   UNL     1       5.200   3.703  16.575  0.00  0.00    +0.000 HD
BRANCH   9  12
ATOM     12  C   UNL     1       6.847   4.682  14.844  0.00  0.00    +0.000 A 
ATOM     13  C   UNL     1       5.871   3.834  14.305  0.00  0.00    +0.000 A 
ATOM     14  C   UNL     1       5.836   3.585  12.933  0.00  0.00    +0.000 A 
ATOM     15  C   UNL     1       6.768   4.191  12.091  0.00  0.00    +0.000 A 
ATOM     16  C   UNL     1       7.728   5.054  12.617  0.00  0.00    +0.000 A 
ATOM     17  C   UNL     1       7.767   5.307  13.991  0.00  0.00    +0.000 A 
ENDBRANCH   9  12
ENDBRANCH   5   8
BRANCH   7  18
ATOM     18  C   UNL     1       2.974   3.649  20.643  0.00  0.00    +0.000 C 
ATOM     19  O   UNL     1       2.770   2.582  21.204  0.00  0.00    +0.000 OA
BRANCH  18  20
ATOM     20  O   UNL     1       2.608   4.823  21.209  0.00  0.00    +0.000 OA
ATOM     21  H   UNL     1       1.710   5.125  20.922  0.00  0.00    +0.000 HD
ENDBRANCH  18  20
ENDBRANCH   7  18
BRANCH   1  22
ATOM     22  C   UNL     1       2.678   7.275  17.736  0.00  0.00    +0.000 C 
BRANCH  22  25
ATOM     23  C   UNL     1       1.612   9.474  17.828  0.00  0.00    +0.000 C 
ATOM     24  O   UNL     1       2.672  10.049  17.631  0.00  0.00    +0.000 OA
ATOM     25  N   UNL     1       1.521   8.119  17.953  0.00  0.00    +0.000 N 
ATOM     26  H   UNL     1       0.604   7.720  18.087  0.00  0.00    +0.000 HD
BRANCH  23  27
ATOM     27  O   UNL     1       0.397  10.063  17.931  0.00  0.00    +0.000 OA
BRANCH  27  29
ATOM     28  C   UNL     1       0.760  12.297  18.922  0.00  0.00    +0.000 C 
ATOM     29  C   UNL     1       0.125  10.908  19.087  0.00  0.00    +0.000 C 
ATOM     30  C   UNL     1       0.572  10.225  20.388  0.00  0.00    +0.000 C 
ATOM     31  C   UNL     1      -1.401  11.101  19.152  0.00  0.00    +0.000 C 
ENDBRANCH  27  29
ENDBRANCH  23  27
ENDBRANCH  22  25
ENDBRANCH   1  22
TORSDOF 8
ENDMDL
MODEL 4
REMARK VINA RESULT:      -7.0      0.745      1.009
REMARK  Name = 
REMARK  11 active torsions:
REMARK  status: ('A' for Active; 'I' for Inactive)
REMARK    1  A    between atoms: C_1  and  C_2
REMARK    2  A    between atoms: C_2  and  C_3
REMARK    3  A    between atoms: C_2  and  C_4
REMARK    4  A    between atoms: C_2  and  O_5
REMARK    5  A    between atoms: O_5  and  C_6
REMARK    6  A    between atoms: N_8  and  C_9
REMARK    7  A    between atoms: C_9  and  C_10
REMARK    8  A    between atoms: C_14  and  N_15
REMARK    9  A    between atoms: C_16  and  C_18
REMARK   10  A    between atoms: C_25  and  C_26
REMARK   11  A    between atoms: C_26  and  O_28
REMARK                            x       y       z     vdW  Elec       q    Type
REMARK                         _______ _______ _______ _____ _____    ______ ____
ROOT
ATOM      1  C   UNL     1       2.221   5.472  18.559  0.00  0.00    +0.000 C 
ATOM      2  O   UNL     1       1.096   4.963  18.649  0.00  0.00    +0.000 OA
ATOM      3  N   UNL     1       3.319   4.739  18.938  0.00  0.00    +0.000 N 
ATOM      4  C   UNL     1       4.702   5.189  19.053  0.00  0.00    +0.000 C 
ATOM      5  C   UNL     1       5.512   3.958  18.639  0.00  0.00    +0.000 C 
ATOM      6  C   UNL     1       4.677   2.782  19.147  0.00  0.00    +0.000 C 
ATOM      7  C   UNL     1       3.231   3.301  19.232  0.00  0.00    +0.000 C 
ENDROOT
BRANCH   5   8
ATOM      8  N   UNL     1       5.685   3.886  17.190  0.00  0.00    +0.000 N 
ATOM      9  C   UNL     1       6.770   4.496  16.587  0.00  0.00    +0.000 C 
ATOM     10  O   UNL     1       7.645   5.080  17.219  0.00  0.00    +0.000 OA
ATOM     11  H   UNL     1       4.879   3.670  16.619  0.00  0.00    +0.000 HD
BRANCH   9  12
ATOM     12  C   UNL     1       6.813   4.455  15.098  0.00  0.00    +0.000 A 
ATOM     13  C   UNL     1       5.898   3.634  14.427  0.00  0.00    +0.000 A 
ATOM     14  C   UNL     1       5.910   3.561  13.034  0.00  0.00    +0.000 A 
ATOM     15  C   UNL     1       6.829   4.315  12.304  0.00  0.00    +0.000 A 
ATOM     16  C   UNL     1       7.728   5.151  12.965  0.00  0.00    +0.000 A 
ATOM     17  C   UNL     1       7.720   5.228  14.360  0.00  0.00    +0.000 A 
ENDBRANCH   9  12
ENDBRANCH   5   8
BRANCH   7  18
ATOM     18  C   UNL     1       2.594   3.003  20.605  0.00  0.00    +0.000 C 
ATOM     19  O   UNL     1       3.210   2.636  21.595  0.00  0.00    +0.000 OA
BRANCH  18  20
ATOM     20  O   UNL     1       1.243   3.103  20.614  0.00  0.00    +0.000 OA
ATOM     21  H   UNL     1       0.803   2.400  20.075  0.00  0.00    +0.000 HD
ENDBRANCH  18  20
ENDBRANCH   7  18
BRANCH   1  22
ATOM     22  C   UNL     1       2.390   6.920  18.094  0.00  0.00    +0.000 C 
BRANCH  22  25
ATOM     23  C   UNL     1       1.601   9.073  18.943  0.00  0.00    +0.000 C 
ATOM     24  O   UNL     1       1.244   9.435  17.831  0.00  0.00    +0.000 OA
ATOM     25  N   UNL     1       2.225   7.881  19.165  0.00  0.00    +0.000 N 
ATOM     26  H   UNL     1       2.463   7.645  20.116  0.00  0.00    +0.000 HD
BRANCH  23  27
ATOM     27  O   UNL     1       1.425   9.761  20.095  0.00  0.00    +0.000 OA
BRANCH  27  29
ATOM     28  C   UNL     1      -0.051  11.088  21.569  0.00  0.00    +0.000 C 
ATOM     29  C   UNL     1       0.082   9.861  20.653  0.00  0.00    +0.000 C 
ATOM     30  C   UNL     1      -0.315   8.563  21.372  0.00  0.00    +0.000 C 
ATOM     31  C   UNL     1      -0.882  10.061  19.469  0.00  0.00    +0.000 C 
ENDBRANCH  27  29
ENDBRANCH  23  27
ENDBRANCH  22  25
ENDBRANCH   1  22
TORSDOF 8
ENDMDL
MODEL 5
REMARK VINA RESULT:      -6.9      4.961      8.147
REMARK  Name = 
REMARK  11 active torsions:
REMARK  status: ('A' for Active; 'I' for Inactive)
REMARK    1  A    between atoms: C_1  and  C_2
REMARK    2  A    between atoms: C_2  and  C_3
REMARK    3  A    between atoms: C_2  and  C_4
REMARK    4  A    between atoms: C_2  and  O_5
REMARK    5  A    between atoms: O_5  and  C_6
REMARK    6  A    between atoms: N_8  and  C_9
REMARK    7  A    between atoms: C_9  and  C_10
REMARK    8  A    between atoms: C_14  and  N_15
REMARK    9  A    between atoms: C_16  and  C_18
REMARK   10  A    between atoms: C_25  and  C_26
REMARK   11  A    between atoms: C_26  and  O_28
REMARK                            x       y       z     vdW  Elec       q    Type
REMARK                         _______ _______ _______ _____ _____    ______ ____
ROOT
ATOM      1  C   UNL     1       7.828   7.785  18.025  0.00  0.00    +0.000 C 
ATOM      2  O   UNL     1       8.655   7.215  18.748  0.00  0.00    +0.000 OA
ATOM      3  N   UNL     1       6.786   7.060  17.501  0.00  0.00    +0.000 N 
ATOM      4  C   UNL     1       5.798   7.492  16.518  0.00  0.00    +0.000 C 
ATOM      5  C   UNL     1       4.526   6.755  16.947  0.00  0.00    +0.000 C 
ATOM      6  C   UNL     1       5.041   5.425  17.499  0.00  0.00    +0.000 C 
ATOM      7  C   UNL     1       6.489   5.691  17.946  0.00  0.00    +0.000 C 
ENDROOT
BRANCH   5   8
ATOM      8  N   UNL     1       3.791   7.494  17.970  0.00  0.00    +0.000 N 
ATOM      9  C   UNL     1       2.512   7.108  18.325  0.00  0.00    +0.000 C 
ATOM     10  O   UNL     1       1.952   6.127  17.845  0.00  0.00    +0.000 OA
ATOM     11  H   UNL     1       4.083   8.438  18.186  0.00  0.00    +0.000 HD
BRANCH   9  12
ATOM     12  C   UNL     1       1.802   7.977  19.306  0.00  0.00    +0.000 A 
ATOM     13  C   UNL     1       1.285   9.200  18.860  0.00  0.00    +0.000 A 
ATOM     14  C   UNL     1       0.621  10.048  19.748  0.00  0.00    +0.000 A 
ATOM     15  C   UNL     1       0.460   9.672  21.082  0.00  0.00    +0.000 A 
ATOM     16  C   UNL     1       0.953   8.446  21.527  0.00  0.00    +0.000 A 
ATOM     17  C   UNL     1       1.618   7.594  20.642  0.00  0.00    +0.000 A 
ENDBRANCH   9  12
ENDBRANCH   5   8
BRANCH   7  18
ATOM     18  C   UNL     1       7.468   4.644  17.373  0.00  0.00    +0.000 C 
ATOM     19  O   UNL     1       7.513   4.300  16.202  0.00  0.00    +0.000 OA
BRANCH  18  20
ATOM     20  O   UNL     1       8.247   4.054  18.311  0.00  0.00    +0.000 OA
ATOM     21  H   UNL     1       7.755   3.388  18.854  0.00  0.00    +0.000 HD
ENDBRANCH  18  20
ENDBRANCH   7  18
BRANCH   1  22
ATOM     22  C   UNL     1       7.993   9.263  17.661  0.00  0.00    +0.000 C 
BRANCH  22  25
ATOM     23  C   UNL     1       9.058  11.311  18.468  0.00  0.00    +0.000 C 
ATOM     24  O   UNL     1       8.453  12.000  17.661  0.00  0.00    +0.000 OA
ATOM     25  N   UNL     1       8.943   9.952  18.508  0.00  0.00    +0.000 N 
ATOM     26  H   UNL     1       9.456   9.458  19.223  0.00  0.00    +0.000 HD
BRANCH  23  27
ATOM     27  O   UNL     1       9.895  11.765  19.430  0.00  0.00    +0.000 OA
BRANCH  27  29
ATOM     28  C   UNL     1      11.373  12.258  17.512  0.00  0.00    +0.000 C 
ATOM     29  C   UNL     1      11.165  12.358  19.031  0.00  0.00    +0.000 C 
ATOM     30  C   UNL     1      12.333  11.736  19.810  0.00  0.00    +0.000 C 
ATOM     31  C   UNL     1      11.096  13.853  19.391  0.00  0.00    +0.000 C 
ENDBRANCH  27  29
ENDBRANCH  23  27
ENDBRANCH  22  25
ENDBRANCH   1  22
TORSDOF 8
ENDMDL
MODEL 6
REMARK VINA RESULT:      -6.9      0.198      1.369
REMARK  Name = 
REMARK  11 active torsions:
REMARK  status: ('A' for Active; 'I' for Inactive)
REMARK    1  A    between atoms: C_1  and  C_2
REMARK    2  A    between atoms: C_2  and  C_3
REMARK    3  A    between atoms: C_2  and  C_4
REMARK    4  A    between atoms: C_2  and  O_5
REMARK    5  A    between atoms: O_5  and  C_6
REMARK    6  A    between atoms: N_8  and  C_9
REMARK    7  A    between atoms: C_9  and  C_10
REMARK    8  A    between atoms: C_14  and  N_15
REMARK    9  A    between atoms: C_16  and  C_18
REMARK   10  A    between atoms: C_25  and  C_26
REMARK   11  A    between atoms: C_26  and  O_28
REMARK                            x       y       z     vdW  Elec       q    Type
REMARK                         _______ _______ _______ _____ _____    ______ ____
ROOT
ATOM      1  C   UNL     1       2.277   5.487  18.414  0.00  0.00    +0.000 C 
ATOM      2  O   UNL     1       1.134   5.020  18.499  0.00  0.00    +0.000 OA
ATOM      3  N   UNL     1       3.346   4.708  18.783  0.00  0.00    +0.000 N 
ATOM      4  C   UNL     1       4.745   5.104  18.903  0.00  0.00    +0.000 C 
ATOM      5  C   UNL     1       5.509   3.849  18.473  0.00  0.00    +0.000 C 
ATOM      6  C   UNL     1       4.629   2.698  18.966  0.00  0.00    +0.000 C 
ATOM      7  C   UNL     1       3.204   3.271  19.058  0.00  0.00    +0.000 C 
ENDROOT
BRANCH   5   8
ATOM      8  N   UNL     1       5.679   3.789  17.023  0.00  0.00    +0.000 N 
ATOM      9  C   UNL     1       6.749   4.423  16.421  0.00  0.00    +0.000 C 
ATOM     10  O   UNL     1       7.614   5.020  17.053  0.00  0.00    +0.000 OA
ATOM     11  H   UNL     1       4.875   3.560  16.453  0.00  0.00    +0.000 HD
BRANCH   9  12
ATOM     12  C   UNL     1       6.789   4.393  14.931  0.00  0.00    +0.000 A 
ATOM     13  C   UNL     1       7.729   5.196  14.273  0.00  0.00    +0.000 A 
ATOM     14  C   UNL     1       7.794   5.204  12.879  0.00  0.00    +0.000 A 
ATOM     15  C   UNL     1       6.928   4.401  12.137  0.00  0.00    +0.000 A 
ATOM     16  C   UNL     1       6.005   3.582  12.786  0.00  0.00    +0.000 A 
ATOM     17  C   UNL     1       5.936   3.571  14.182  0.00  0.00    +0.000 A 
ENDBRANCH   9  12
ENDBRANCH   5   8
BRANCH   7  18
ATOM     18  C   UNL     1       2.556   2.980  20.428  0.00  0.00    +0.000 C 
ATOM     19  O   UNL     1       1.359   3.051  20.662  0.00  0.00    +0.000 OA
BRANCH  18  20
ATOM     20  O   UNL     1       3.451   2.709  21.408  0.00  0.00    +0.000 OA
ATOM     21  H   UNL     1       3.056   2.762  22.314  0.00  0.00    +0.000 HD
ENDBRANCH  18  20
ENDBRANCH   7  18
BRANCH   1  22
ATOM     22  C   UNL     1       2.501   6.934  17.968  0.00  0.00    +0.000 C 
BRANCH  22  25
ATOM     23  C   UNL     1       1.817   9.208  18.553  0.00  0.00    +0.000 C 
ATOM     24  O   UNL     1       2.171   9.645  17.468  0.00  0.00    +0.000 OA
ATOM     25  N   UNL     1       1.990   7.903  18.914  0.00  0.00    +0.000 N 
ATOM     26  H   UNL     1       1.645   7.617  19.817  0.00  0.00    +0.000 HD
BRANCH  23  27
ATOM     27  O   UNL     1       1.202   9.914  19.530  0.00  0.00    +0.000 OA
BRANCH  27  29
ATOM     28  C   UNL     1      -0.827  10.049  18.126  0.00  0.00    +0.000 C 
ATOM     29  C   UNL     1       0.052  10.739  19.180  0.00  0.00    +0.000 C 
ATOM     30  C   UNL     1       0.495  12.139  18.730  0.00  0.00    +0.000 C 
ATOM     31  C   UNL     1      -0.793  10.897  20.457  0.00  0.00    +0.000 C 
ENDBRANCH  27  29
ENDBRANCH  23  27
ENDBRANCH  22  25
ENDBRANCH   1  22
TORSDOF 8
ENDMDL
MODEL 7
REMARK VINA RESULT:      -6.8      0.970      1.339
REMARK  Name = 
REMARK  11 active torsions:
REMARK  status: ('A' for Active; 'I' for Inactive)
REMARK    1  A    between atoms: C_1  and  C_2
REMARK    2  A    between atoms: C_2  and  C_3
REMARK    3  A    between atoms: C_2  and  C_4
REMARK    4  A    between atoms: C_2  and  O_5
REMARK    5  A    between atoms: O_5  and  C_6
REMARK    6  A    between atoms: N_8  and  C_9
REMARK    7  A    between atoms: C_9  and  C_10
REMARK    8  A    between atoms: C_14  and  N_15
REMARK    9  A    between atoms: C_16  and  C_18
REMARK   10  A    between atoms: C_25  and  C_26
REMARK   11  A    between atoms: C_26  and  O_28
REMARK                            x       y       z     vdW  Elec       q    Type
REMARK                         _______ _______ _______ _____ _____    ______ ____
ROOT
ATOM      1  C   UNL     1       2.534   6.508  18.285  0.00  0.00    +0.000 C 
ATOM      2  O   UNL     1       1.358   6.148  18.421  0.00  0.00    +0.000 OA
ATOM      3  N   UNL     1       3.542   5.641  18.631  0.00  0.00    +0.000 N 
ATOM      4  C   UNL     1       4.975   5.911  18.693  0.00  0.00    +0.000 C 
ATOM      5  C   UNL     1       5.605   4.584  18.260  0.00  0.00    +0.000 C 
ATOM      6  C   UNL     1       4.645   3.526  18.807  0.00  0.00    +0.000 C 
ATOM      7  C   UNL     1       3.281   4.227  18.939  0.00  0.00    +0.000 C 
ENDROOT
BRANCH   5   8
ATOM      8  N   UNL     1       5.714   4.486  16.806  0.00  0.00    +0.000 N 
ATOM      9  C   UNL     1       6.957   4.444  16.202  0.00  0.00    +0.000 C 
ATOM     10  O   UNL     1       8.008   4.447  16.834  0.00  0.00    +0.000 OA
ATOM     11  H   UNL     1       4.917   4.754  16.244  0.00  0.00    +0.000 HD
BRANCH   9  12
ATOM     12  C   UNL     1       6.973   4.443  14.711  0.00  0.00    +0.000 A 
ATOM     13  C   UNL     1       6.099   3.580  14.036  0.00  0.00    +0.000 A 
ATOM     14  C   UNL     1       6.088   3.542  12.642  0.00  0.00    +0.000 A 
ATOM     15  C   UNL     1       6.941   4.372  11.915  0.00  0.00    +0.000 A 
ATOM     16  C   UNL     1       7.797   5.249  12.580  0.00  0.00    +0.000 A 
ATOM     17  C   UNL     1       7.812   5.292  13.976  0.00  0.00    +0.000 A 
ENDBRANCH   9  12
ENDBRANCH   5   8
BRANCH   7  18
ATOM     18  C   UNL     1       2.663   4.019  20.338  0.00  0.00    +0.000 C 
ATOM     19  O   UNL     1       2.163   2.974  20.730  0.00  0.00    +0.000 OA
BRANCH  18  20
ATOM     20  O   UNL     1       2.640   5.139  21.097  0.00  0.00    +0.000 OA
ATOM     21  H   UNL     1       2.310   5.931  20.604  0.00  0.00    +0.000 HD
ENDBRANCH  18  20
ENDBRANCH   7  18
BRANCH   1  22
ATOM     22  C   UNL     1       2.871   7.921  17.803  0.00  0.00    +0.000 C 
BRANCH  22  25
ATOM     23  C   UNL     1       1.211   9.348  18.893  0.00  0.00    +0.000 C 
ATOM     24  O   UNL     1       1.632   9.068  20.006  0.00  0.00    +0.000 OA
ATOM     25  N   UNL     1       1.715   8.792  17.754  0.00  0.00    +0.000 N 
ATOM     26  H   UNL     1       1.330   9.097  16.873  0.00  0.00    +0.000 HD
BRANCH  23  27
ATOM     27  O   UNL     1       0.226  10.235  18.617  0.00  0.00    +0.000 OA
BRANCH  27  29
ATOM     28  C   UNL     1      -0.648  12.526  18.311  0.00  0.00    +0.000 C 
ATOM     29  C   UNL     1       0.440  11.640  18.937  0.00  0.00    +0.000 C 
ATOM     30  C   UNL     1       1.851  12.090  18.529  0.00  0.00    +0.000 C 
ATOM     31  C   UNL     1       0.324  11.775  20.466  0.00  0.00    +0.000 C 
ENDBRANCH  27  29
ENDBRANCH  23  27
ENDBRANCH  22  25
ENDBRANCH   1  22
TORSDOF 8
ENDMDL
MODEL 8
REMARK VINA RESULT:      -6.7      0.846      1.542
REMARK  Name = 
REMARK  11 active torsions:
REMARK  status: ('A' for Active; 'I' for Inactive)
REMARK    1  A    between atoms: C_1  and  C_2
REMARK    2  A    between atoms: C_2  and  C_3
REMARK    3  A    between atoms: C_2  and  C_4
REMARK    4  A    between atoms: C_2  and  O_5
REMARK    5  A    between atoms: O_5  and  C_6
REMARK    6  A    between atoms: N_8  and  C_9
REMARK    7  A    between atoms: C_9  and  C_10
REMARK    8  A    between atoms: C_14  and  N_15
REMARK    9  A    between atoms: C_16  and  C_18
REMARK   10  A    between atoms: C_25  and  C_26
REMARK   11  A    between atoms: C_26  and  O_28
REMARK                            x       y       z     vdW  Elec       q    Type
REMARK                         _______ _______ _______ _____ _____    ______ ____
ROOT
ATOM      1  C   UNL     1       2.485   6.125  18.251  0.00  0.00    +0.000 C 
ATOM      2  O   UNL     1       1.299   5.784  18.350  0.00  0.00    +0.000 OA
ATOM      3  N   UNL     1       3.466   5.252  18.655  0.00  0.00    +0.000 N 
ATOM      4  C   UNL     1       4.899   5.503  18.765  0.00  0.00    +0.000 C 
ATOM      5  C   UNL     1       5.526   4.158  18.386  0.00  0.00    +0.000 C 
ATOM      6  C   UNL     1       4.530   3.127  18.919  0.00  0.00    +0.000 C 
ATOM      7  C   UNL     1       3.173   3.850  18.984  0.00  0.00    +0.000 C 
ENDROOT
BRANCH   5   8
ATOM      8  N   UNL     1       5.689   4.026  16.940  0.00  0.00    +0.000 N 
ATOM      9  C   UNL     1       6.793   4.569  16.311  0.00  0.00    +0.000 C 
ATOM     10  O   UNL     1       7.693   5.142  16.917  0.00  0.00    +0.000 OA
ATOM     11  H   UNL     1       4.872   3.820  16.380  0.00  0.00    +0.000 HD
BRANCH   9  12
ATOM     12  C   UNL     1       6.827   4.471  14.824  0.00  0.00    +0.000 A 
ATOM     13  C   UNL     1       7.760   5.248  14.126  0.00  0.00    +0.000 A 
ATOM     14  C   UNL     1       7.820   5.193  12.733  0.00  0.00    +0.000 A 
ATOM     15  C   UNL     1       6.955   4.354  12.032  0.00  0.00    +0.000 A 
ATOM     16  C   UNL     1       6.039   3.561  12.721  0.00  0.00    +0.000 A 
ATOM     17  C   UNL     1       5.976   3.612  14.116  0.00  0.00    +0.000 A 
ENDBRANCH   9  12
ENDBRANCH   5   8
BRANCH   7  18
ATOM     18  C   UNL     1       2.498   3.681  20.361  0.00  0.00    +0.000 C 
ATOM     19  O   UNL     1       2.520   4.515  21.255  0.00  0.00    +0.000 OA
BRANCH  18  20
ATOM     20  O   UNL     1       1.929   2.466  20.545  0.00  0.00    +0.000 OA
ATOM     21  H   UNL     1       1.827   1.959  19.702  0.00  0.00    +0.000 HD
ENDBRANCH  18  20
ENDBRANCH   7  18
BRANCH   1  22
ATOM     22  C   UNL     1       2.860   7.522  17.751  0.00  0.00    +0.000 C 
BRANCH  22  25
ATOM     23  C   UNL     1       1.355   9.311  18.469  0.00  0.00    +0.000 C 
ATOM     24  O   UNL     1       0.667   9.199  17.466  0.00  0.00    +0.000 OA
ATOM     25  N   UNL     1       2.485   8.573  18.674  0.00  0.00    +0.000 N 
ATOM     26  H   UNL     1       2.981   8.706  19.541  0.00  0.00    +0.000 HD
BRANCH  23  27
ATOM     27  O   UNL     1       1.110  10.138  19.512  0.00  0.00    +0.000 OA
BRANCH  27  29
ATOM     28  C   UNL     1       2.224  11.946  18.247  0.00  0.00    +0.000 C 
ATOM     29  C   UNL     1       1.156  11.578  19.289  0.00  0.00    +0.000 C 
ATOM     30  C   UNL     1       1.360  12.335  20.609  0.00  0.00    +0.000 C 
ATOM     31  C   UNL     1      -0.212  11.987  18.714  0.00  0.00    +0.000 C 
ENDBRANCH  27  29
ENDBRANCH  23  27
ENDBRANCH  22  25
ENDBRANCH   1  22
TORSDOF 8
ENDMDL
MODEL 9
REMARK VINA RESULT:      -6.7      0.769      1.340
REMARK  Name = 
REMARK  11 active torsions:
REMARK  status: ('A' for Active; 'I' for Inactive)
REMARK    1  A    between atoms: C_1  and  C_2
REMARK    2  A    between atoms: C_2  and  C_3
REMARK    3  A    between atoms: C_2  and  C_4
REMARK    4  A    between atoms: C_2  and  O_5
REMARK    5  A    between atoms: O_5  and  C_6
REMARK    6  A    between atoms: N_8  and  C_9
REMARK    7  A    between atoms: C_9  and  C_10
REMARK    8  A    between atoms: C_14  and  N_15
REMARK    9  A    between atoms: C_16  and  C_18
REMARK   10  A    between atoms: C_25  and  C_26
REMARK   11  A    between atoms: C_26  and  O_28
REMARK                            x       y       z     vdW  Elec       q    Type
REMARK                         _______ _______ _______ _____ _____    ______ ____
ROOT
ATOM      1  C   UNL     1       2.400   6.085  18.219  0.00  0.00    +0.000 C 
ATOM      2  O   UNL     1       1.206   5.766  18.281  0.00  0.00    +0.000 OA
ATOM      3  N   UNL     1       3.354   5.185  18.626  0.00  0.00    +0.000 N 
ATOM      4  C   UNL     1       4.788   5.405  18.777  0.00  0.00    +0.000 C 
ATOM      5  C   UNL     1       5.399   4.057  18.383  0.00  0.00    +0.000 C 
ATOM      6  C   UNL     1       4.370   3.034  18.869  0.00  0.00    +0.000 C 
ATOM      7  C   UNL     1       3.026   3.781  18.916  0.00  0.00    +0.000 C 
ENDROOT
BRANCH   5   8
ATOM      8  N   UNL     1       5.594   3.953  16.939  0.00  0.00    +0.000 N 
ATOM      9  C   UNL     1       6.727   4.482  16.350  0.00  0.00    +0.000 C 
ATOM     10  O   UNL     1       7.626   5.018  16.991  0.00  0.00    +0.000 OA
ATOM     11  H   UNL     1       4.787   3.781  16.354  0.00  0.00    +0.000 HD
BRANCH   9  12
ATOM     12  C   UNL     1       6.797   4.417  14.862  0.00  0.00    +0.000 A 
ATOM     13  C   UNL     1       7.749   5.206  14.205  0.00  0.00    +0.000 A 
ATOM     14  C   UNL     1       7.842   5.182  12.813  0.00  0.00    +0.000 A 
ATOM     15  C   UNL     1       6.991   4.361  12.072  0.00  0.00    +0.000 A 
ATOM     16  C   UNL     1       6.055   3.557  12.722  0.00  0.00    +0.000 A 
ATOM     17  C   UNL     1       5.959   3.578  14.115  0.00  0.00    +0.000 A 
ENDBRANCH   9  12
ENDBRANCH   5   8
BRANCH   7  18
ATOM     18  C   UNL     1       2.314   3.596  20.273  0.00  0.00    +0.000 C 
ATOM     19  O   UNL     1       2.884   3.436  21.343  0.00  0.00    +0.000 OA
BRANCH  18  20
ATOM     20  O   UNL     1       0.965   3.540  20.178  0.00  0.00    +0.000 OA
ATOM     21  H   UNL     1       0.612   2.619  20.259  0.00  0.00    +0.000 HD
ENDBRANCH  18  20
ENDBRANCH   7  18
BRANCH   1  22
ATOM     22  C   UNL     1       2.814   7.486  17.760  0.00  0.00    +0.000 C 
BRANCH  22  25
ATOM     23  C   UNL     1       1.459   9.330  18.620  0.00  0.00    +0.000 C 
ATOM     24  O   UNL     1       0.733   9.318  17.637  0.00  0.00    +0.000 OA
ATOM     25  N   UNL     1       2.540   8.509  18.747  0.00  0.00    +0.000 N 
ATOM     26  H   UNL     1       3.072   8.562  19.602  0.00  0.00    +0.000 HD
BRANCH  23  27
ATOM     27  O   UNL     1       1.304  10.116  19.711  0.00  0.00    +0.000 OA
BRANCH  27  29
ATOM     28  C   UNL     1      -0.027  11.137  21.526  0.00  0.00    +0.000 C 
ATOM     29  C   UNL     1       0.060  10.029  20.465  0.00  0.00    +0.000 C 
ATOM     30  C   UNL     1      -0.116   8.633  21.081  0.00  0.00    +0.000 C 
ATOM     31  C   UNL     1      -1.089  10.254  19.465  0.00  0.00    +0.000 C 
ENDBRANCH  27  29
ENDBRANCH  23  27
ENDBRANCH  22  25
ENDBRANCH   1  22
TORSDOF 8
ENDMDL
