MODEL 1
REMARK VINA RESULT:      -7.5      0.000      0.000
REMARK  Name = 
REMARK  8 active torsions:
REMARK  status: ('A' for Active; 'I' for Inactive)
REMARK    1  A    between atoms: C_2  and  C_3
REMARK    2  A    between atoms: C_3  and  C_4
REMARK    3  A    between atoms: C_4  and  N_5
REMARK    4  A    between atoms: C_7  and  C_8
REMARK    5  A    between atoms: N_12  and  C_13
REMARK    6  A    between atoms: C_22  and  C_23
REMARK    7  A    between atoms: N_25  and  C_26
REMARK    8  A    between atoms: C_26  and  C_27
REMARK                            x       y       z     vdW  Elec       q    Type
REMARK                         _______ _______ _______ _____ _____    ______ ____
ROOT
ATOM      1  C   UNL     1       6.194   5.032  17.413  0.00  0.00    +0.000 C 
ATOM      2  C   UNL     1       6.217   3.730  16.575  0.00  0.00    +0.000 C 
ATOM      3  C   UNL     1       5.049   3.686  15.570  0.00  0.00    +0.000 C 
ATOM      4  C   UNL     1       5.173   4.821  14.539  0.00  0.00    +0.000 C 
ATOM      5  C   UNL     1       5.161   6.166  15.272  0.00  0.00    +0.000 C 
ATOM      6  C   UNL     1       6.164   6.254  16.426  0.00  0.00    +0.000 C 
ENDROOT
BRANCH   1   7
ATOM      7  N   UNL     1       5.019   4.954  18.315  0.00  0.00    +0.000 N 
ATOM      8  C   UNL     1       4.782   4.015  19.285  0.00  0.00    +0.000 A 
ATOM      9  C   UNL     1       3.572   4.342  19.867  0.00  0.00    +0.000 A 
ATOM     10  C   UNL     1       3.178   5.531  19.197  0.00  0.00    +0.000 A 
ATOM     11  N   UNL     1       2.057   6.235  19.479  0.00  0.00    +0.000 N 
ATOM     12  N   UNL     1       4.082   5.894  18.281  0.00  0.00    +0.000 NA
ATOM     13  H   UNL     1       1.331   5.811  20.053  0.00  0.00    +0.000 HD
BRANCH  11  14
ATOM     14  C   UNL     1       1.902   7.628  19.312  0.00  0.00    +0.000 A 
ATOM     15  C   UNL     1       1.419   8.414  20.362  0.00  0.00    +0.000 A 
ATOM     16  C   UNL     1       1.174   9.778  20.169  0.00  0.00    +0.000 A 
ATOM     17  C   UNL     1       1.423  10.372  18.930  0.00  0.00    +0.000 A 
ATOM     18  C   UNL     1       1.909   9.602  17.880  0.00  0.00    +0.000 A 
ATOM     19  C   UNL     1       2.138   8.242  18.073  0.00  0.00    +0.000 A 
ENDBRANCH  11  14
BRANCH   9  20
ATOM     20  C   UNL     1       2.893   3.638  20.933  0.00  0.00    +0.000 C 
ATOM     21  N   UNL     1       3.357   2.376  21.196  0.00  0.00    +0.000 N 
ATOM     22  O   UNL     1       1.989   4.128  21.599  0.00  0.00    +0.000 OA
ATOM     23  H   UNL     1       4.253   2.063  20.851  0.00  0.00    +0.000 HD
ATOM     24  H   UNL     1       2.977   1.917  22.013  0.00  0.00    +0.000 HD
ENDBRANCH   9  20
ENDBRANCH   1   7
BRANCH   4  25
ATOM     25  C   UNL     1       6.362   4.504  13.619  0.00  0.00    +0.000 C 
ATOM     26  O   UNL     1       7.406   5.155  13.681  0.00  0.00    +0.000 OA
ATOM     27  N   UNL     1       6.269   3.433  12.771  0.00  0.00    +0.000 N 
ATOM     28  H   UNL     1       5.393   2.950  12.614  0.00  0.00    +0.000 HD
BRANCH  27  29
ATOM     29  C   UNL     1       7.389   3.154  11.861  0.00  0.00    +0.000 C 
BRANCH  29  30
ATOM     30  C   UNL     1       7.302   1.859  11.058  0.00  0.00    +0.000 C 
ATOM     31  F   UNL     1       7.948   0.849  11.691  0.00  0.00    +0.000 F 
ATOM     32  F   UNL     1       6.018   1.473  10.885  0.00  0.00    +0.000 F 
ATOM     33  F   UNL     1       7.859   1.998   9.835  0.00  0.00    +0.000 F 
ENDBRANCH  29  30
ENDBRANCH  27  29
ENDBRANCH   4  25
BRANCH   1  34
ATOM     34  C   UNL     1       7.412   5.190  18.359  0.00  0.00    +0.000 C 
BRANCH  34  36
ATOM     35  N   UNL     1       8.290   7.657  18.546  0.00  0.00    +0.000 NA
ATOM     36  C   UNL     1       7.910   6.567  18.459  0.00  0.00    +0.000 C 
ENDBRANCH  34  36
ENDBRANCH   1  34
TORSDOF 8
ENDMDL
MODEL 2
REMARK VINA RESULT:      -7.0      1.219      1.510
REMARK  Name = 
REMARK  8 active torsions:
REMARK  status: ('A' for Active; 'I' for Inactive)
REMARK    1  A    between atoms: C_2  and  C_3
REMARK    2  A    between atoms: C_3  and  C_4
REMARK    3  A    between atoms: C_4  and  N_5
REMARK    4  A    between atoms: C_7  and  C_8
REMARK    5  A    between atoms: N_12  and  C_13
REMARK    6  A    between atoms: C_22  and  C_23
REMARK    7  A    between atoms: N_25  and  C_26
REMARK    8  A    between atoms: C_26  and  C_27
REMARK                            x       y       z     vdW  Elec       q    Type
REMARK                         _______ _______ _______ _____ _____    ______ ____
ROOT
ATOM      1  C   UNL     1       5.598   5.304  18.392  0.00  0.00    +0.000 C 
ATOM      2  C   UNL     1       5.703   4.060  17.475  0.00  0.00    +0.000 C 
ATOM      3  C   UNL     1       4.624   4.078  16.375  0.00  0.00    +0.000 C 
ATOM      4  C   UNL     1       4.823   5.280  15.434  0.00  0.00    +0.000 C 
ATOM      5  C   UNL     1       4.737   6.573  16.251  0.00  0.00    +0.000 C 
ATOM      6  C   UNL     1       5.640   6.589  17.489  0.00  0.00    +0.000 C 
ENDROOT
BRANCH   1   7
ATOM      7  N   UNL     1       4.352   5.162  19.185  0.00  0.00    +0.000 N 
ATOM      8  C   UNL     1       3.973   4.085  19.943  0.00  0.00    +0.000 A 
ATOM      9  C   UNL     1       2.746   4.401  20.497  0.00  0.00    +0.000 A 
ATOM     10  C   UNL     1       2.492   5.721  20.038  0.00  0.00    +0.000 A 
ATOM     11  N   UNL     1       1.405   6.455  20.374  0.00  0.00    +0.000 N 
ATOM     12  N   UNL     1       3.491   6.168  19.267  0.00  0.00    +0.000 NA
ATOM     13  H   UNL     1       0.608   5.996  20.810  0.00  0.00    +0.000 HD
BRANCH  11  14
ATOM     14  C   UNL     1       1.363   7.863  20.463  0.00  0.00    +0.000 A 
ATOM     15  C   UNL     1       1.168   8.486  21.699  0.00  0.00    +0.000 A 
ATOM     16  C   UNL     1       1.030   9.876  21.776  0.00  0.00    +0.000 A 
ATOM     17  C   UNL     1       1.101  10.657  20.621  0.00  0.00    +0.000 A 
ATOM     18  C   UNL     1       1.302  10.051  19.387  0.00  0.00    +0.000 A 
ATOM     19  C   UNL     1       1.425   8.665  19.313  0.00  0.00    +0.000 A 
ENDBRANCH  11  14
BRANCH   9  20
ATOM     20  C   UNL     1       1.937   3.575  21.365  0.00  0.00    +0.000 C 
ATOM     21  N   UNL     1       0.749   3.148  20.833  0.00  0.00    +0.000 N 
ATOM     22  O   UNL     1       2.284   3.230  22.488  0.00  0.00    +0.000 OA
ATOM     23  H   UNL     1       0.570   3.194  19.840  0.00  0.00    +0.000 HD
ATOM     24  H   UNL     1       0.227   2.474  21.377  0.00  0.00    +0.000 HD
ENDBRANCH   9  20
ENDBRANCH   1   7
BRANCH   4  25
ATOM     25  C   UNL     1       6.088   5.028  14.599  0.00  0.00    +0.000 C 
ATOM     26  O   UNL     1       7.125   5.661  14.808  0.00  0.00    +0.000 OA
ATOM     27  N   UNL     1       6.067   4.034  13.658  0.00  0.00    +0.000 N 
ATOM     28  H   UNL     1       5.206   3.575  13.385  0.00  0.00    +0.000 HD
BRANCH  27  29
ATOM     29  C   UNL     1       7.262   3.821  12.830  0.00  0.00    +0.000 C 
BRANCH  29  30
ATOM     30  C   UNL     1       7.035   3.164  11.471  0.00  0.00    +0.000 C 
ATOM     31  F   UNL     1       7.214   4.053  10.464  0.00  0.00    +0.000 F 
ATOM     32  F   UNL     1       7.896   2.142  11.268  0.00  0.00    +0.000 F 
ATOM     33  F   UNL     1       5.780   2.673  11.364  0.00  0.00    +0.000 F 
ENDBRANCH  29  30
ENDBRANCH  27  29
ENDBRANCH   4  25
BRANCH   1  34
ATOM     34  C   UNL     1       6.731   5.403  19.445  0.00  0.00    +0.000 C 
BRANCH  34  36
ATOM     35  N   UNL     1       8.541   7.222  18.890  0.00  0.00    +0.000 NA
ATOM     36  C   UNL     1       7.747   6.414  19.130  0.00  0.00    +0.000 C 
ENDBRANCH  34  36
ENDBRANCH   1  34
TORSDOF 8
ENDMDL
MODEL 3
REMARK VINA RESULT:      -6.7      6.863     10.082
REMARK  Name = 
REMARK  8 active torsions:
REMARK  status: ('A' for Active; 'I' for Inactive)
REMARK    1  A    between atoms: C_2  and  C_3
REMARK    2  A    between atoms: C_3  and  C_4
REMARK    3  A    between atoms: C_4  and  N_5
REMARK    4  A    between atoms: C_7  and  C_8
REMARK    5  A    between atoms: N_12  and  C_13
REMARK    6  A    between atoms: C_22  and  C_23
REMARK    7  A    between atoms: N_25  and  C_26
REMARK    8  A    between atoms: C_26  and  C_27
REMARK                            x       y       z     vdW  Elec       q    Type
REMARK                         _______ _______ _______ _____ _____    ______ ____
ROOT
ATOM      1  C   UNL     1      -0.490  12.573  20.700  0.00  0.00    +0.000 C 
ATOM      2  C   UNL     1       0.246  11.257  21.056  0.00  0.00    +0.000 C 
ATOM      3  C   UNL     1      -0.479  10.030  20.471  0.00  0.00    +0.000 C 
ATOM      4  C   UNL     1      -0.481  10.078  18.933  0.00  0.00    +0.000 C 
ATOM      5  C   UNL     1      -1.193  11.354  18.474  0.00  0.00    +0.000 C 
ATOM      6  C   UNL     1      -0.673  12.631  19.141  0.00  0.00    +0.000 C 
ENDROOT
BRANCH   1   7
ATOM      7  N   UNL     1      -1.765  12.582  21.460  0.00  0.00    +0.000 N 
ATOM      8  C   UNL     1      -1.925  12.796  22.804  0.00  0.00    +0.000 A 
ATOM      9  C   UNL     1      -3.281  12.712  23.061  0.00  0.00    +0.000 A 
ATOM     10  C   UNL     1      -3.859  12.484  21.784  0.00  0.00    +0.000 A 
ATOM     11  N   UNL     1      -5.188  12.377  21.551  0.00  0.00    +0.000 N 
ATOM     12  N   UNL     1      -2.923  12.435  20.829  0.00  0.00    +0.000 NA
ATOM     13  H   UNL     1      -5.824  12.244  22.334  0.00  0.00    +0.000 HD
BRANCH  11  14
ATOM     14  C   UNL     1      -5.840  12.733  20.350  0.00  0.00    +0.000 A 
ATOM     15  C   UNL     1      -6.039  14.078  20.028  0.00  0.00    +0.000 A 
ATOM     16  C   UNL     1      -6.769  14.432  18.887  0.00  0.00    +0.000 A 
ATOM     17  C   UNL     1      -7.293  13.445  18.051  0.00  0.00    +0.000 A 
ATOM     18  C   UNL     1      -7.097  12.103  18.357  0.00  0.00    +0.000 A 
ATOM     19  C   UNL     1      -6.382  11.756  19.501  0.00  0.00    +0.000 A 
ENDBRANCH  11  14
BRANCH   9  20
ATOM     20  C   UNL     1      -3.942  12.856  24.339  0.00  0.00    +0.000 C 
ATOM     21  N   UNL     1      -3.660  14.009  25.022  0.00  0.00    +0.000 N 
ATOM     22  O   UNL     1      -4.736  12.037  24.786  0.00  0.00    +0.000 OA
ATOM     23  H   UNL     1      -3.232  14.800  24.565  0.00  0.00    +0.000 HD
ATOM     24  H   UNL     1      -4.203  14.182  25.858  0.00  0.00    +0.000 HD
ENDBRANCH   9  20
ENDBRANCH   1   7
BRANCH   4  25
ATOM     25  C   UNL     1       0.955   9.829  18.445  0.00  0.00    +0.000 C 
ATOM     26  O   UNL     1       1.713  10.767  18.195  0.00  0.00    +0.000 OA
ATOM     27  N   UNL     1       1.405   8.539  18.360  0.00  0.00    +0.000 N 
ATOM     28  H   UNL     1       0.779   7.748  18.448  0.00  0.00    +0.000 HD
BRANCH  27  29
ATOM     29  C   UNL     1       2.764   8.298  17.853  0.00  0.00    +0.000 C 
BRANCH  29  30
ATOM     30  C   UNL     1       3.350   6.915  18.123  0.00  0.00    +0.000 C 
ATOM     31  F   UNL     1       2.636   5.951  17.494  0.00  0.00    +0.000 F 
ATOM     32  F   UNL     1       4.625   6.827  17.684  0.00  0.00    +0.000 F 
ATOM     33  F   UNL     1       3.349   6.628  19.444  0.00  0.00    +0.000 F 
ENDBRANCH  29  30
ENDBRANCH  27  29
ENDBRANCH   4  25
BRANCH   1  34
ATOM     34  C   UNL     1       0.256  13.852  21.159  0.00  0.00    +0.000 C 
BRANCH  34  36
ATOM     35  N   UNL     1       2.746  13.992  20.340  0.00  0.00    +0.000 NA
ATOM     36  C   UNL     1       1.645  13.927  20.694  0.00  0.00    +0.000 C 
ENDBRANCH  34  36
ENDBRANCH   1  34
TORSDOF 8
ENDMDL
MODEL 4
REMARK VINA RESULT:      -6.6      5.872      9.689
REMARK  Name = 
REMARK  8 active torsions:
REMARK  status: ('A' for Active; 'I' for Inactive)
REMARK    1  A    between atoms: C_2  and  C_3
REMARK    2  A    between atoms: C_3  and  C_4
REMARK    3  A    between atoms: C_4  and  N_5
REMARK    4  A    between atoms: C_7  and  C_8
REMARK    5  A    between atoms: N_12  and  C_13
REMARK    6  A    between atoms: C_22  and  C_23
REMARK    7  A    between atoms: N_25  and  C_26
REMARK    8  A    between atoms: C_26  and  C_27
REMARK                            x       y       z     vdW  Elec       q    Type
REMARK                         _______ _______ _______ _____ _____    ______ ____
ROOT
ATOM      1  C   UNL     1       1.289   8.684  20.204  0.00  0.00    +0.000 C 
ATOM      2  C   UNL     1      -0.235   8.690  20.483  0.00  0.00    +0.000 C 
ATOM      3  C   UNL     1      -0.540   8.324  21.948  0.00  0.00    +0.000 C 
ATOM      4  C   UNL     1       0.041   9.378  22.907  0.00  0.00    +0.000 C 
ATOM      5  C   UNL     1       1.558   9.451  22.709  0.00  0.00    +0.000 C 
ATOM      6  C   UNL     1       1.987   9.626  21.248  0.00  0.00    +0.000 C 
ENDROOT
BRANCH   1   7
ATOM      7  N   UNL     1       1.741   7.272  20.266  0.00  0.00    +0.000 N 
ATOM      8  C   UNL     1       1.072   6.213  20.822  0.00  0.00    +0.000 A 
ATOM      9  C   UNL     1       1.874   5.100  20.645  0.00  0.00    +0.000 A 
ATOM     10  C   UNL     1       2.995   5.594  19.927  0.00  0.00    +0.000 A 
ATOM     11  N   UNL     1       4.027   4.832  19.496  0.00  0.00    +0.000 N 
ATOM     12  N   UNL     1       2.879   6.905  19.688  0.00  0.00    +0.000 NA
ATOM     13  H   UNL     1       4.141   3.890  19.864  0.00  0.00    +0.000 HD
BRANCH  11  14
ATOM     14  C   UNL     1       4.811   5.088  18.351  0.00  0.00    +0.000 A 
ATOM     15  C   UNL     1       4.321   4.783  17.078  0.00  0.00    +0.000 A 
ATOM     16  C   UNL     1       5.133   4.946  15.950  0.00  0.00    +0.000 A 
ATOM     17  C   UNL     1       6.436   5.429  16.082  0.00  0.00    +0.000 A 
ATOM     18  C   UNL     1       6.933   5.743  17.341  0.00  0.00    +0.000 A 
ATOM     19  C   UNL     1       6.126   5.566  18.462  0.00  0.00    +0.000 A 
ENDBRANCH  11  14
BRANCH   9  20
ATOM     20  C   UNL     1       1.601   3.746  21.075  0.00  0.00    +0.000 C 
ATOM     21  N   UNL     1       0.667   3.069  20.336  0.00  0.00    +0.000 N 
ATOM     22  O   UNL     1       2.181   3.202  22.008  0.00  0.00    +0.000 OA
ATOM     23  H   UNL     1       0.382   3.394  19.424  0.00  0.00    +0.000 HD
ATOM     24  H   UNL     1       0.552   2.087  20.546  0.00  0.00    +0.000 HD
ENDBRANCH   9  20
ENDBRANCH   1   7
BRANCH   4  25
ATOM     25  C   UNL     1      -0.777  10.670  22.751  0.00  0.00    +0.000 C 
ATOM     26  O   UNL     1      -1.823  10.840  23.380  0.00  0.00    +0.000 OA
ATOM     27  N   UNL     1      -0.286  11.665  21.951  0.00  0.00    +0.000 N 
ATOM     28  H   UNL     1       0.506  11.516  21.337  0.00  0.00    +0.000 HD
BRANCH  27  29
ATOM     29  C   UNL     1      -1.087  12.884  21.768  0.00  0.00    +0.000 C 
BRANCH  29  30
ATOM     30  C   UNL     1      -1.798  13.030  20.425  0.00  0.00    +0.000 C 
ATOM     31  F   UNL     1      -3.117  13.288  20.597  0.00  0.00    +0.000 F 
ATOM     32  F   UNL     1      -1.277  14.045  19.700  0.00  0.00    +0.000 F 
ATOM     33  F   UNL     1      -1.695  11.902  19.687  0.00  0.00    +0.000 F 
ENDBRANCH  29  30
ENDBRANCH  27  29
ENDBRANCH   4  25
BRANCH   1  34
ATOM     34  C   UNL     1       1.667   9.160  18.777  0.00  0.00    +0.000 C 
BRANCH  34  36
ATOM     35  N   UNL     1       1.351  11.741  18.417  0.00  0.00    +0.000 NA
ATOM     36  C   UNL     1       1.489  10.601  18.568  0.00  0.00    +0.000 C 
ENDBRANCH  34  36
ENDBRANCH   1  34
TORSDOF 8
ENDMDL
MODEL 5
REMARK VINA RESULT:      -6.6      6.914     10.156
REMARK  Name = 
REMARK  8 active torsions:
REMARK  status: ('A' for Active; 'I' for Inactive)
REMARK    1  A    between atoms: C_2  and  C_3
REMARK    2  A    between atoms: C_3  and  C_4
REMARK    3  A    between atoms: C_4  and  N_5
REMARK    4  A    between atoms: C_7  and  C_8
REMARK    5  A    between atoms: N_12  and  C_13
REMARK    6  A    between atoms: C_22  and  C_23
REMARK    7  A    between atoms: N_25  and  C_26
REMARK    8  A    between atoms: C_26  and  C_27
REMARK                            x       y       z     vdW  Elec       q    Type
REMARK                         _______ _______ _______ _____ _____    ______ ____
ROOT
ATOM      1  C   UNL     1      -0.713  12.644  20.461  0.00  0.00    +0.000 C 
ATOM      2  C   UNL     1       0.169  11.470  20.954  0.00  0.00    +0.000 C 
ATOM      3  C   UNL     1      -0.449  10.107  20.583  0.00  0.00    +0.000 C 
ATOM      4  C   UNL     1      -0.518   9.936  19.056  0.00  0.00    +0.000 C 
ATOM      5  C   UNL     1      -1.376  11.059  18.465  0.00  0.00    +0.000 C 
ATOM      6  C   UNL     1      -0.964  12.463  18.922  0.00  0.00    +0.000 C 
ENDROOT
BRANCH   1   7
ATOM      7  N   UNL     1      -1.951  12.638  21.281  0.00  0.00    +0.000 N 
ATOM      8  C   UNL     1      -2.047  12.825  22.635  0.00  0.00    +0.000 A 
ATOM      9  C   UNL     1      -3.389  12.736  22.954  0.00  0.00    +0.000 A 
ATOM     10  C   UNL     1      -4.027  12.533  21.701  0.00  0.00    +0.000 A 
ATOM     11  N   UNL     1      -5.366  12.430  21.530  0.00  0.00    +0.000 N 
ATOM     12  N   UNL     1      -3.138  12.503  20.702  0.00  0.00    +0.000 NA
ATOM     13  H   UNL     1      -5.964  12.281  22.340  0.00  0.00    +0.000 HD
BRANCH  11  14
ATOM     14  C   UNL     1      -6.074  12.809  20.369  0.00  0.00    +0.000 A 
ATOM     15  C   UNL     1      -6.631  11.836  19.534  0.00  0.00    +0.000 A 
ATOM     16  C   UNL     1      -7.250  12.205  18.334  0.00  0.00    +0.000 A 
ATOM     17  C   UNL     1      -7.329  13.548  17.965  0.00  0.00    +0.000 A 
ATOM     18  C   UNL     1      -6.785  14.526  18.789  0.00  0.00    +0.000 A 
ATOM     19  C   UNL     1      -6.158  14.153  19.975  0.00  0.00    +0.000 A 
ENDBRANCH  11  14
BRANCH   9  20
ATOM     20  C   UNL     1      -3.989  12.854  24.265  0.00  0.00    +0.000 C 
ATOM     21  N   UNL     1      -3.696  14.006  24.945  0.00  0.00    +0.000 N 
ATOM     22  O   UNL     1      -4.744  12.016  24.742  0.00  0.00    +0.000 OA
ATOM     23  H   UNL     1      -3.306  14.810  24.475  0.00  0.00    +0.000 HD
ATOM     24  H   UNL     1      -4.200  14.161  25.808  0.00  0.00    +0.000 HD
ENDBRANCH   9  20
ENDBRANCH   1   7
BRANCH   4  25
ATOM     25  C   UNL     1       0.915   9.760  18.529  0.00  0.00    +0.000 C 
ATOM     26  O   UNL     1       1.619  10.736  18.262  0.00  0.00    +0.000 OA
ATOM     27  N   UNL     1       1.427   8.495  18.428  0.00  0.00    +0.000 N 
ATOM     28  H   UNL     1       0.844   7.673  18.530  0.00  0.00    +0.000 HD
BRANCH  27  29
ATOM     29  C   UNL     1       2.782   8.323  17.884  0.00  0.00    +0.000 C 
BRANCH  29  30
ATOM     30  C   UNL     1       3.394   6.931  18.021  0.00  0.00    +0.000 C 
ATOM     31  F   UNL     1       4.600   6.867  17.407  0.00  0.00    +0.000 F 
ATOM     32  F   UNL     1       3.581   6.602  19.318  0.00  0.00    +0.000 F 
ATOM     33  F   UNL     1       2.602   5.987  17.466  0.00  0.00    +0.000 F 
ENDBRANCH  29  30
ENDBRANCH  27  29
ENDBRANCH   4  25
BRANCH   1  34
ATOM     34  C   UNL     1      -0.086  14.042  20.699  0.00  0.00    +0.000 C 
BRANCH  34  36
ATOM     35  N   UNL     1       2.430  14.202  19.966  0.00  0.00    +0.000 NA
ATOM     36  C   UNL     1       1.318  14.139  20.285  0.00  0.00    +0.000 C 
ENDBRANCH  34  36
ENDBRANCH   1  34
TORSDOF 8
ENDMDL
MODEL 6
REMARK VINA RESULT:      -6.6      7.008     10.488
REMARK  Name = 
REMARK  8 active torsions:
REMARK  status: ('A' for Active; 'I' for Inactive)
REMARK    1  A    between atoms: C_2  and  C_3
REMARK    2  A    between atoms: C_3  and  C_4
REMARK    3  A    between atoms: C_4  and  N_5
REMARK    4  A    between atoms: C_7  and  C_8
REMARK    5  A    between atoms: N_12  and  C_13
REMARK    6  A    between atoms: C_22  and  C_23
REMARK    7  A    between atoms: N_25  and  C_26
REMARK    8  A    between atoms: C_26  and  C_27
REMARK                            x       y       z     vdW  Elec       q    Type
REMARK                         _______ _______ _______ _____ _____    ______ ____
ROOT
ATOM      1  C   UNL     1       1.346   8.771  20.158  0.00  0.00    +0.000 C 
ATOM      2  C   UNL     1      -0.175   8.859  20.441  0.00  0.00    +0.000 C 
ATOM      3  C   UNL     1      -0.494   8.528  21.912  0.00  0.00    +0.000 C 
ATOM      4  C   UNL     1       0.145   9.563  22.855  0.00  0.00    +0.000 C 
ATOM      5  C   UNL     1       1.663   9.556  22.651  0.00  0.00    +0.000 C 
ATOM      6  C   UNL     1       2.095   9.690  21.188  0.00  0.00    +0.000 C 
ENDROOT
BRANCH   1   7
ATOM      7  N   UNL     1       1.725   7.338  20.237  0.00  0.00    +0.000 N 
ATOM      8  C   UNL     1       0.975   6.312  20.748  0.00  0.00    +0.000 A 
ATOM      9  C   UNL     1       1.730   5.161  20.610  0.00  0.00    +0.000 A 
ATOM     10  C   UNL     1       2.913   5.603  19.959  0.00  0.00    +0.000 A 
ATOM     11  N   UNL     1       3.930   4.793  19.583  0.00  0.00    +0.000 N 
ATOM     12  N   UNL     1       2.874   6.919  19.721  0.00  0.00    +0.000 NA
ATOM     13  H   UNL     1       3.977   3.845  19.951  0.00  0.00    +0.000 HD
BRANCH  11  14
ATOM     14  C   UNL     1       4.789   5.014  18.485  0.00  0.00    +0.000 A 
ATOM     15  C   UNL     1       6.087   5.492  18.691  0.00  0.00    +0.000 A 
ATOM     16  C   UNL     1       6.907   5.803  17.600  0.00  0.00    +0.000 A 
ATOM     17  C   UNL     1       6.443   5.626  16.296  0.00  0.00    +0.000 A 
ATOM     18  C   UNL     1       5.157   5.145  16.077  0.00  0.00    +0.000 A 
ATOM     19  C   UNL     1       4.340   4.850  17.166  0.00  0.00    +0.000 A 
ENDBRANCH  11  14
BRANCH   9  20
ATOM     20  C   UNL     1       1.369   3.821  21.016  0.00  0.00    +0.000 C 
ATOM     21  N   UNL     1       0.409   3.212  20.251  0.00  0.00    +0.000 N 
ATOM     22  O   UNL     1       1.898   3.231  21.950  0.00  0.00    +0.000 OA
ATOM     23  H   UNL     1       0.161   3.566  19.339  0.00  0.00    +0.000 HD
ATOM     24  H   UNL     1       0.231   2.236  20.445  0.00  0.00    +0.000 HD
ENDBRANCH   9  20
ENDBRANCH   1   7
BRANCH   4  25
ATOM     25  C   UNL     1      -0.607  10.893  22.685  0.00  0.00    +0.000 C 
ATOM     26  O   UNL     1      -0.134  11.808  22.008  0.00  0.00    +0.000 OA
ATOM     27  N   UNL     1      -1.850  11.021  23.242  0.00  0.00    +0.000 N 
ATOM     28  H   UNL     1      -2.216  10.337  23.894  0.00  0.00    +0.000 HD
BRANCH  27  29
ATOM     29  C   UNL     1      -2.551  12.307  23.116  0.00  0.00    +0.000 C 
BRANCH  29  30
ATOM     30  C   UNL     1      -3.791  12.489  23.987  0.00  0.00    +0.000 C 
ATOM     31  F   UNL     1      -4.890  12.721  23.228  0.00  0.00    +0.000 F 
ATOM     32  F   UNL     1      -4.037  11.387  24.730  0.00  0.00    +0.000 F 
ATOM     33  F   UNL     1      -3.651  13.533  24.833  0.00  0.00    +0.000 F 
ENDBRANCH  29  30
ENDBRANCH  27  29
ENDBRANCH   4  25
BRANCH   1  34
ATOM     34  C   UNL     1       1.742   9.209  18.724  0.00  0.00    +0.000 C 
BRANCH  34  36
ATOM     35  N   UNL     1       1.754  11.809  18.367  0.00  0.00    +0.000 NA
ATOM     36  C   UNL     1       1.740  10.663  18.527  0.00  0.00    +0.000 C 
ENDBRANCH  34  36
ENDBRANCH   1  34
TORSDOF 8
ENDMDL
MODEL 7
REMARK VINA RESULT:      -6.6      9.756     12.132
REMARK  Name = 
REMARK  8 active torsions:
REMARK  status: ('A' for Active; 'I' for Inactive)
REMARK    1  A    between atoms: C_2  and  C_3
REMARK    2  A    between atoms: C_3  and  C_4
REMARK    3  A    between atoms: C_4  and  N_5
REMARK    4  A    between atoms: C_7  and  C_8
REMARK    5  A    between atoms: N_12  and  C_13
REMARK    6  A    between atoms: C_22  and  C_23
REMARK    7  A    between atoms: N_25  and  C_26
REMARK    8  A    between atoms: C_26  and  C_27
REMARK                            x       y       z     vdW  Elec       q    Type
REMARK                         _______ _______ _______ _____ _____    ______ ____
ROOT
ATOM      1  C   UNL     1      -0.555  13.203  20.724  0.00  0.00    +0.000 C 
ATOM      2  C   UNL     1      -0.860  14.210  19.587  0.00  0.00    +0.000 C 
ATOM      3  C   UNL     1      -1.127  15.623  20.142  0.00  0.00    +0.000 C 
ATOM      4  C   UNL     1       0.126  16.181  20.839  0.00  0.00    +0.000 C 
ATOM      5  C   UNL     1       0.515  15.249  21.990  0.00  0.00    +0.000 C 
ATOM      6  C   UNL     1       0.625  13.775  21.587  0.00  0.00    +0.000 C 
ENDROOT
BRANCH   1   7
ATOM      7  N   UNL     1      -1.816  13.000  21.480  0.00  0.00    +0.000 N 
ATOM      8  C   UNL     1      -2.008  13.166  22.827  0.00  0.00    +0.000 A 
ATOM      9  C   UNL     1      -3.334  12.866  23.079  0.00  0.00    +0.000 A 
ATOM     10  C   UNL     1      -3.869  12.569  21.797  0.00  0.00    +0.000 A 
ATOM     11  N   UNL     1      -5.164  12.257  21.559  0.00  0.00    +0.000 N 
ATOM     12  N   UNL     1      -2.936  12.681  20.844  0.00  0.00    +0.000 NA
ATOM     13  H   UNL     1      -5.771  12.014  22.339  0.00  0.00    +0.000 HD
BRANCH  11  14
ATOM     14  C   UNL     1      -5.863  12.524  20.362  0.00  0.00    +0.000 A 
ATOM     15  C   UNL     1      -6.315  11.472  19.560  0.00  0.00    +0.000 A 
ATOM     16  C   UNL     1      -6.924  11.733  18.327  0.00  0.00    +0.000 A 
ATOM     17  C   UNL     1      -7.099  13.047  17.892  0.00  0.00    +0.000 A 
ATOM     18  C   UNL     1      -6.660  14.103  18.682  0.00  0.00    +0.000 A 
ATOM     19  C   UNL     1      -6.043  13.837  19.902  0.00  0.00    +0.000 A 
ENDBRANCH  11  14
BRANCH   9  20
ATOM     20  C   UNL     1      -4.010  12.885  24.358  0.00  0.00    +0.000 C 
ATOM     21  N   UNL     1      -3.752  13.975  25.145  0.00  0.00    +0.000 N 
ATOM     22  O   UNL     1      -4.797  12.018  24.720  0.00  0.00    +0.000 OA
ATOM     23  H   UNL     1      -3.331  14.810  24.765  0.00  0.00    +0.000 HD
ATOM     24  H   UNL     1      -4.306  14.065  25.986  0.00  0.00    +0.000 HD
ENDBRANCH   9  20
ENDBRANCH   1   7
BRANCH   4  25
ATOM     25  C   UNL     1       1.178  16.484  19.760  0.00  0.00    +0.000 C 
ATOM     26  O   UNL     1       0.911  17.202  18.795  0.00  0.00    +0.000 OA
ATOM     27  N   UNL     1       2.448  16.000  19.926  0.00  0.00    +0.000 N 
ATOM     28  H   UNL     1       2.670  15.320  20.643  0.00  0.00    +0.000 HD
BRANCH  27  29
ATOM     29  C   UNL     1       3.443  16.254  18.875  0.00  0.00    +0.000 C 
BRANCH  29  30
ATOM     30  C   UNL     1       3.540  15.206  17.769  0.00  0.00    +0.000 C 
ATOM     31  F   UNL     1       4.748  14.592  17.784  0.00  0.00    +0.000 F 
ATOM     32  F   UNL     1       2.597  14.249  17.914  0.00  0.00    +0.000 F 
ATOM     33  F   UNL     1       3.380  15.762  16.548  0.00  0.00    +0.000 F 
ENDBRANCH  29  30
ENDBRANCH  27  29
ENDBRANCH   4  25
BRANCH   1  34
ATOM     34  C   UNL     1      -0.162  11.790  20.221  0.00  0.00    +0.000 C 
BRANCH  34  36
ATOM     35  N   UNL     1       0.879  10.251  22.074  0.00  0.00    +0.000 NA
ATOM     36  C   UNL     1       0.427  10.935  21.257  0.00  0.00    +0.000 C 
ENDBRANCH  34  36
ENDBRANCH   1  34
TORSDOF 8
ENDMDL
MODEL 8
REMARK VINA RESULT:      -6.6      6.998     10.499
REMARK  Name = 
REMARK  8 active torsions:
REMARK  status: ('A' for Active; 'I' for Inactive)
REMARK    1  A    between atoms: C_2  and  C_3
REMARK    2  A    between atoms: C_3  and  C_4
REMARK    3  A    between atoms: C_4  and  N_5
REMARK    4  A    between atoms: C_7  and  C_8
REMARK    5  A    between atoms: N_12  and  C_13
REMARK    6  A    between atoms: C_22  and  C_23
REMARK    7  A    between atoms: N_25  and  C_26
REMARK    8  A    between atoms: C_26  and  C_27
REMARK                            x       y       z     vdW  Elec       q    Type
REMARK                         _______ _______ _______ _____ _____    ______ ____
ROOT
ATOM      1  C   UNL     1       1.338   8.675  20.067  0.00  0.00    +0.000 C 
ATOM      2  C   UNL     1      -0.201   8.721  20.239  0.00  0.00    +0.000 C 
ATOM      3  C   UNL     1      -0.615   8.394  21.688  0.00  0.00    +0.000 C 
ATOM      4  C   UNL     1      -0.078   9.457  22.662  0.00  0.00    +0.000 C 
ATOM      5  C   UNL     1       1.450   9.494  22.568  0.00  0.00    +0.000 C 
ATOM      6  C   UNL     1       1.983   9.627  21.138  0.00  0.00    +0.000 C 
ENDROOT
BRANCH   1   7
ATOM      7  N   UNL     1       1.753   7.256  20.191  0.00  0.00    +0.000 N 
ATOM      8  C   UNL     1       1.044   6.234  20.767  0.00  0.00    +0.000 A 
ATOM      9  C   UNL     1       1.821   5.096  20.650  0.00  0.00    +0.000 A 
ATOM     10  C   UNL     1       2.971   5.537  19.943  0.00  0.00    +0.000 A 
ATOM     11  N   UNL     1       3.994   4.735  19.566  0.00  0.00    +0.000 N 
ATOM     12  N   UNL     1       2.894   6.841  19.655  0.00  0.00    +0.000 NA
ATOM     13  H   UNL     1       4.075   3.804  19.970  0.00  0.00    +0.000 HD
BRANCH  11  14
ATOM     14  C   UNL     1       4.812   4.931  18.433  0.00  0.00    +0.000 A 
ATOM     15  C   UNL     1       4.318   4.668  17.152  0.00  0.00    +0.000 A 
ATOM     16  C   UNL     1       5.156   4.769  16.036  0.00  0.00    +0.000 A 
ATOM     17  C   UNL     1       6.491   5.147  16.188  0.00  0.00    +0.000 A 
ATOM     18  C   UNL     1       6.994   5.417  17.455  0.00  0.00    +0.000 A 
ATOM     19  C   UNL     1       6.159   5.302  18.564  0.00  0.00    +0.000 A 
ENDBRANCH  11  14
BRANCH   9  20
ATOM     20  C   UNL     1       1.504   3.766  21.120  0.00  0.00    +0.000 C 
ATOM     21  N   UNL     1       0.559   3.093  20.392  0.00  0.00    +0.000 N 
ATOM     22  O   UNL     1       2.057   3.237  22.077  0.00  0.00    +0.000 OA
ATOM     23  H   UNL     1       0.294   3.396  19.467  0.00  0.00    +0.000 HD
ATOM     24  H   UNL     1       0.413   2.122  20.632  0.00  0.00    +0.000 HD
ENDBRANCH   9  20
ENDBRANCH   1   7
BRANCH   4  25
ATOM     25  C   UNL     1      -0.854  10.762  22.422  0.00  0.00    +0.000 C 
ATOM     26  O   UNL     1      -0.708  11.407  21.382  0.00  0.00    +0.000 OA
ATOM     27  N   UNL     1      -1.770  11.163  23.357  0.00  0.00    +0.000 N 
ATOM     28  H   UNL     1      -1.832  10.722  24.266  0.00  0.00    +0.000 HD
BRANCH  27  29
ATOM     29  C   UNL     1      -2.481  12.432  23.149  0.00  0.00    +0.000 C 
BRANCH  29  30
ATOM     30  C   UNL     1      -3.773  12.620  23.939  0.00  0.00    +0.000 C 
ATOM     31  F   UNL     1      -3.669  13.658  24.804  0.00  0.00    +0.000 F 
ATOM     32  F   UNL     1      -4.818  12.876  23.121  0.00  0.00    +0.000 F 
ATOM     33  F   UNL     1      -4.076  11.517  24.660  0.00  0.00    +0.000 F 
ENDBRANCH  29  30
ENDBRANCH  27  29
ENDBRANCH   4  25
BRANCH   1  34
ATOM     34  C   UNL     1       1.824   9.111  18.661  0.00  0.00    +0.000 C 
BRANCH  34  36
ATOM     35  N   UNL     1       1.827  11.712  18.310  0.00  0.00    +0.000 NA
ATOM     36  C   UNL     1       1.821  10.564  18.457  0.00  0.00    +0.000 C 
ENDBRANCH  34  36
ENDBRANCH   1  34
TORSDOF 8
ENDMDL
MODEL 9
REMARK VINA RESULT:      -6.5      8.011     11.027
REMARK  Name = 
REMARK  8 active torsions:
REMARK  status: ('A' for Active; 'I' for Inactive)
REMARK    1  A    between atoms: C_2  and  C_3
REMARK    2  A    between atoms: C_3  and  C_4
REMARK    3  A    between atoms: C_4  and  N_5
REMARK    4  A    between atoms: C_7  and  C_8
REMARK    5  A    between atoms: N_12  and  C_13
REMARK    6  A    between atoms: C_22  and  C_23
REMARK    7  A    between atoms: N_25  and  C_26
REMARK    8  A    between atoms: C_26  and  C_27
REMARK                            x       y       z     vdW  Elec       q    Type
REMARK                         _______ _______ _______ _____ _____    ______ ____
ROOT
ATOM      1  C   UNL     1       0.218  11.507  19.626  0.00  0.00    +0.000 C 
ATOM      2  C   UNL     1       1.136  12.380  18.736  0.00  0.00    +0.000 C 
ATOM      3  C   UNL     1       0.870  13.882  18.955  0.00  0.00    +0.000 C 
ATOM      4  C   UNL     1       1.213  14.293  20.398  0.00  0.00    +0.000 C 
ATOM      5  C   UNL     1       0.351  13.478  21.367  0.00  0.00    +0.000 C 
ATOM      6  C   UNL     1       0.392  11.967  21.117  0.00  0.00    +0.000 C 
ENDROOT
BRANCH   1   7
ATOM      7  N   UNL     1      -1.164  11.650  19.105  0.00  0.00    +0.000 N 
ATOM      8  C   UNL     1      -1.640  11.223  17.893  0.00  0.00    +0.000 A 
ATOM      9  C   UNL     1      -2.977  11.572  17.846  0.00  0.00    +0.000 A 
ATOM     10  C   UNL     1      -3.221  12.174  19.110  0.00  0.00    +0.000 A 
ATOM     11  N   UNL     1      -4.425  12.633  19.522  0.00  0.00    +0.000 N 
ATOM     12  N   UNL     1      -2.114  12.186  19.862  0.00  0.00    +0.000 NA
ATOM     13  H   UNL     1      -5.172  12.758  18.842  0.00  0.00    +0.000 HD
BRANCH  11  14
ATOM     14  C   UNL     1      -4.868  12.681  20.861  0.00  0.00    +0.000 A 
ATOM     15  C   UNL     1      -6.206  12.423  21.171  0.00  0.00    +0.000 A 
ATOM     16  C   UNL     1      -6.668  12.563  22.484  0.00  0.00    +0.000 A 
ATOM     17  C   UNL     1      -5.794  12.949  23.502  0.00  0.00    +0.000 A 
ATOM     18  C   UNL     1      -4.459  13.202  23.209  0.00  0.00    +0.000 A 
ATOM     19  C   UNL     1      -4.008  13.074  21.898  0.00  0.00    +0.000 A 
ENDBRANCH  11  14
BRANCH   9  20
ATOM     20  C   UNL     1      -3.906  11.343  16.761  0.00  0.00    +0.000 C 
ATOM     21  N   UNL     1      -3.345  11.250  15.515  0.00  0.00    +0.000 N 
ATOM     22  O   UNL     1      -5.112  11.196  16.922  0.00  0.00    +0.000 OA
ATOM     23  H   UNL     1      -2.354  11.101  15.394  0.00  0.00    +0.000 HD
ATOM     24  H   UNL     1      -3.961  10.971  14.763  0.00  0.00    +0.000 HD
ENDBRANCH   9  20
ENDBRANCH   1   7
BRANCH   4  25
ATOM     25  C   UNL     1       2.740  14.239  20.561  0.00  0.00    +0.000 C 
ATOM     26  O   UNL     1       3.262  13.564  21.450  0.00  0.00    +0.000 OA
ATOM     27  N   UNL     1       3.521  14.901  19.652  0.00  0.00    +0.000 N 
ATOM     28  H   UNL     1       3.127  15.552  18.983  0.00  0.00    +0.000 HD
BRANCH  27  29
ATOM     29  C   UNL     1       4.980  14.886  19.831  0.00  0.00    +0.000 C 
BRANCH  29  30
ATOM     30  C   UNL     1       5.818  15.093  18.572  0.00  0.00    +0.000 C 
ATOM     31  F   UNL     1       5.119  14.757  17.461  0.00  0.00    +0.000 F 
ATOM     32  F   UNL     1       6.195  16.384  18.439  0.00  0.00    +0.000 F 
ATOM     33  F   UNL     1       6.937  14.337  18.595  0.00  0.00    +0.000 F 
ENDBRANCH  29  30
ENDBRANCH  27  29
ENDBRANCH   4  25
BRANCH   1  34
ATOM     34  C   UNL     1       0.520   9.989  19.538  0.00  0.00    +0.000 C 
BRANCH  34  36
ATOM     35  N   UNL     1       2.126   9.353  17.561  0.00  0.00    +0.000 NA
ATOM     36  C   UNL     1       1.421   9.627  18.438  0.00  0.00    +0.000 C 
ENDBRANCH  34  36
ENDBRANCH   1  34
TORSDOF 8
ENDMDL
