MODEL 1
REMARK VINA RESULT:      -8.1      0.000      0.000
REMARK  Name = 
REMARK  4 active torsions:
REMARK  status: ('A' for Active; 'I' for Inactive)
REMARK    1  A    between atoms: C_1  and  O_2
REMARK    2  A    between atoms: O_2  and  C_3
REMARK    3  A    between atoms: C_8  and  O_9
REMARK    4  A    between atoms: O_9  and  C_10
REMARK                            x       y       z     vdW  Elec       q    Type
REMARK                         _______ _______ _______ _____ _____    ______ ____
ROOT
ATOM      1  C   UNL     1       3.669   4.361  19.408  0.00  0.00    +0.000 A 
ATOM      2  C   UNL     1       3.740   5.448  18.525  0.00  0.00    +0.000 A 
ATOM      3  C   UNL     1       2.988   6.611  18.744  0.00  0.00    +0.000 A 
ATOM      4  C   UNL     1       2.099   6.693  19.825  0.00  0.00    +0.000 A 
ATOM      5  C   UNL     1       1.947   5.544  20.617  0.00  0.00    +0.000 A 
ATOM      6  C   UNL     1       2.724   4.388  20.435  0.00  0.00    +0.000 A 
ATOM      7  C   UNL     1       1.411   7.957  20.138  0.00  0.00    +0.000 A 
ATOM      8  C   UNL     1       0.857   8.249  21.392  0.00  0.00    +0.000 A 
ATOM      9  C   UNL     1       0.260   9.485  21.642  0.00  0.00    +0.000 A 
ATOM     10  C   UNL     1      -0.308   9.781  22.888  0.00  0.00    +0.000 A 
ATOM     11  C   UNL     1      -0.899  11.022  23.117  0.00  0.00    +0.000 A 
ATOM     12  C   UNL     1      -0.926  11.977  22.104  0.00  0.00    +0.000 A 
ATOM     13  C   UNL     1      -0.361  11.692  20.860  0.00  0.00    +0.000 A 
ATOM     14  C   UNL     1       0.236  10.443  20.617  0.00  0.00    +0.000 A 
ATOM     15  C   UNL     1       0.810  10.117  19.386  0.00  0.00    +0.000 A 
ATOM     16  N   UNL     1       1.384   8.909  19.163  0.00  0.00    +0.000 N 
ATOM     17  C   UNL     1       1.914   8.624  17.802  0.00  0.00    +0.000 C 
ATOM     18  C   UNL     1       3.200   7.823  17.885  0.00  0.00    +0.000 C 
ENDROOT
BRANCH   1  20
ATOM     19  C   UNL     1       3.911   2.157  18.582  0.00  0.00    +0.000 C 
ATOM     20  O   UNL     1       4.487   3.278  19.259  0.00  0.00    +0.000 OA
ENDBRANCH   1  20
BRANCH   6  21
ATOM     21  O   UNL     1       2.433   3.446  21.382  0.00  0.00    +0.000 OA
ATOM     22  C   UNL     1       1.245   2.678  21.270  0.00  0.00    +0.000 C 
ENDBRANCH   6  21
TORSDOF 2
ENDMDL
MODEL 2
REMARK VINA RESULT:      -7.8      2.783      6.675
REMARK  Name = 
REMARK  4 active torsions:
REMARK  status: ('A' for Active; 'I' for Inactive)
REMARK    1  A    between atoms: C_1  and  O_2
REMARK    2  A    between atoms: O_2  and  C_3
REMARK    3  A    between atoms: C_8  and  O_9
REMARK    4  A    between atoms: O_9  and  C_10
REMARK                            x       y       z     vdW  Elec       q    Type
REMARK                         _______ _______ _______ _____ _____    ______ ____
ROOT
ATOM      1  C   UNL     1       0.563  11.223  20.556  0.00  0.00    +0.000 A 
ATOM      2  C   UNL     1       1.070  10.859  19.301  0.00  0.00    +0.000 A 
ATOM      3  C   UNL     1       1.516   9.554  19.050  0.00  0.00    +0.000 A 
ATOM      4  C   UNL     1       1.522   8.592  20.070  0.00  0.00    +0.000 A 
ATOM      5  C   UNL     1       1.136   9.017  21.351  0.00  0.00    +0.000 A 
ATOM      6  C   UNL     1       0.646  10.308  21.607  0.00  0.00    +0.000 A 
ATOM      7  C   UNL     1       1.861   7.189  19.778  0.00  0.00    +0.000 A 
ATOM      8  C   UNL     1       1.496   6.115  20.604  0.00  0.00    +0.000 A 
ATOM      9  C   UNL     1       1.804   4.803  20.248  0.00  0.00    +0.000 A 
ATOM     10  C   UNL     1       1.457   3.724  21.074  0.00  0.00    +0.000 A 
ATOM     11  C   UNL     1       1.773   2.420  20.700  0.00  0.00    +0.000 A 
ATOM     12  C   UNL     1       2.437   2.182  19.499  0.00  0.00    +0.000 A 
ATOM     13  C   UNL     1       2.786   3.249  18.670  0.00  0.00    +0.000 A 
ATOM     14  C   UNL     1       2.474   4.569  19.038  0.00  0.00    +0.000 A 
ATOM     15  C   UNL     1       2.808   5.664  18.238  0.00  0.00    +0.000 A 
ATOM     16  N   UNL     1       2.501   6.934  18.602  0.00  0.00    +0.000 N 
ATOM     17  C   UNL     1       2.950   8.045  17.721  0.00  0.00    +0.000 C 
ATOM     18  C   UNL     1       1.899   9.138  17.659  0.00  0.00    +0.000 C 
ENDROOT
BRANCH   1  20
ATOM     19  C   UNL     1       0.952  13.496  21.085  0.00  0.00    +0.000 C 
ATOM     20  O   UNL     1       0.022  12.459  20.765  0.00  0.00    +0.000 OA
ENDBRANCH   1  20
BRANCH   6  21
ATOM     21  O   UNL     1       0.269  10.441  22.915  0.00  0.00    +0.000 OA
ATOM     22  C   UNL     1      -1.109  10.453  23.253  0.00  0.00    +0.000 C 
ENDBRANCH   6  21
TORSDOF 2
ENDMDL
MODEL 3
REMARK VINA RESULT:      -7.6      2.779      6.596
REMARK  Name = 
REMARK  4 active torsions:
REMARK  status: ('A' for Active; 'I' for Inactive)
REMARK    1  A    between atoms: C_1  and  O_2
REMARK    2  A    between atoms: O_2  and  C_3
REMARK    3  A    between atoms: C_8  and  O_9
REMARK    4  A    between atoms: O_9  and  C_10
REMARK                            x       y       z     vdW  Elec       q    Type
REMARK                         _______ _______ _______ _____ _____    ______ ____
ROOT
ATOM      1  C   UNL     1      -0.068  10.882  19.889  0.00  0.00    +0.000 A 
ATOM      2  C   UNL     1       0.676  10.488  18.768  0.00  0.00    +0.000 A 
ATOM      3  C   UNL     1       1.384   9.278  18.756  0.00  0.00    +0.000 A 
ATOM      4  C   UNL     1       1.414   8.457  19.893  0.00  0.00    +0.000 A 
ATOM      5  C   UNL     1       0.773   8.937  21.045  0.00  0.00    +0.000 A 
ATOM      6  C   UNL     1       0.025  10.126  21.059  0.00  0.00    +0.000 A 
ATOM      7  C   UNL     1       2.041   7.125  19.842  0.00  0.00    +0.000 A 
ATOM      8  C   UNL     1       1.761   6.100  20.757  0.00  0.00    +0.000 A 
ATOM      9  C   UNL     1       2.351   4.844  20.627  0.00  0.00    +0.000 A 
ATOM     10  C   UNL     1       2.088   3.817  21.545  0.00  0.00    +0.000 A 
ATOM     11  C   UNL     1       2.687   2.568  21.396  0.00  0.00    +0.000 A 
ATOM     12  C   UNL     1       3.552   2.334  20.331  0.00  0.00    +0.000 A 
ATOM     13  C   UNL     1       3.819   3.349  19.411  0.00  0.00    +0.000 A 
ATOM     14  C   UNL     1       3.222   4.614  19.551  0.00  0.00    +0.000 A 
ATOM     15  C   UNL     1       3.465   5.657  18.655  0.00  0.00    +0.000 A 
ATOM     16  N   UNL     1       2.883   6.873  18.800  0.00  0.00    +0.000 N 
ATOM     17  C   UNL     1       3.247   7.945  17.835  0.00  0.00    +0.000 C 
ATOM     18  C   UNL     1       2.035   8.793  17.494  0.00  0.00    +0.000 C 
ENDROOT
BRANCH   1  20
ATOM     19  C   UNL     1      -2.132  11.843  19.245  0.00  0.00    +0.000 C 
ATOM     20  O   UNL     1      -0.849  12.001  19.857  0.00  0.00    +0.000 OA
ENDBRANCH   1  20
BRANCH   6  21
ATOM     21  O   UNL     1      -0.558  10.327  22.279  0.00  0.00    +0.000 OA
ATOM     22  C   UNL     1      -0.175   9.523  23.383  0.00  0.00    +0.000 C 
ENDBRANCH   6  21
TORSDOF 2
ENDMDL
MODEL 4
REMARK VINA RESULT:      -7.6      3.066      7.371
REMARK  Name = 
REMARK  4 active torsions:
REMARK  status: ('A' for Active; 'I' for Inactive)
REMARK    1  A    between atoms: C_1  and  O_2
REMARK    2  A    between atoms: O_2  and  C_3
REMARK    3  A    between atoms: C_8  and  O_9
REMARK    4  A    between atoms: O_9  and  C_10
REMARK                            x       y       z     vdW  Elec       q    Type
REMARK                         _______ _______ _______ _____ _____    ______ ____
ROOT
ATOM      1  C   UNL     1       0.912   9.112  20.893  0.00  0.00    +0.000 A 
ATOM      2  C   UNL     1       1.031   7.761  21.250  0.00  0.00    +0.000 A 
ATOM      3  C   UNL     1       1.683   6.844  20.413  0.00  0.00    +0.000 A 
ATOM      4  C   UNL     1       2.183   7.246  19.166  0.00  0.00    +0.000 A 
ATOM      5  C   UNL     1       1.933   8.570  18.774  0.00  0.00    +0.000 A 
ATOM      6  C   UNL     1       1.320   9.510  19.619  0.00  0.00    +0.000 A 
ATOM      7  C   UNL     1       2.985   6.323  18.345  0.00  0.00    +0.000 A 
ATOM      8  C   UNL     1       3.851   6.745  17.327  0.00  0.00    +0.000 A 
ATOM      9  C   UNL     1       4.622   5.825  16.616  0.00  0.00    +0.000 A 
ATOM     10  C   UNL     1       5.480   6.236  15.587  0.00  0.00    +0.000 A 
ATOM     11  C   UNL     1       6.243   5.300  14.889  0.00  0.00    +0.000 A 
ATOM     12  C   UNL     1       6.155   3.950  15.215  0.00  0.00    +0.000 A 
ATOM     13  C   UNL     1       5.305   3.531  16.240  0.00  0.00    +0.000 A 
ATOM     14  C   UNL     1       4.529   4.465  16.949  0.00  0.00    +0.000 A 
ATOM     15  C   UNL     1       3.664   4.088  17.978  0.00  0.00    +0.000 A 
ATOM     16  N   UNL     1       2.921   4.998  18.656  0.00  0.00    +0.000 N 
ATOM     17  C   UNL     1       1.980   4.501  19.695  0.00  0.00    +0.000 C 
ATOM     18  C   UNL     1       1.947   5.444  20.884  0.00  0.00    +0.000 C 
ENDROOT
BRANCH   1  20
ATOM     19  C   UNL     1       0.043   9.524  23.055  0.00  0.00    +0.000 C 
ATOM     20  O   UNL     1       0.382  10.024  21.759  0.00  0.00    +0.000 OA
ENDBRANCH   1  20
BRANCH   6  21
ATOM     21  O   UNL     1       1.265  10.741  19.028  0.00  0.00    +0.000 OA
ATOM     22  C   UNL     1       0.008  11.302  18.684  0.00  0.00    +0.000 C 
ENDBRANCH   6  21
TORSDOF 2
ENDMDL
MODEL 5
REMARK VINA RESULT:      -7.4      4.939      8.085
REMARK  Name = 
REMARK  4 active torsions:
REMARK  status: ('A' for Active; 'I' for Inactive)
REMARK    1  A    between atoms: C_1  and  O_2
REMARK    2  A    between atoms: O_2  and  C_3
REMARK    3  A    between atoms: C_8  and  O_9
REMARK    4  A    between atoms: O_9  and  C_10
REMARK                            x       y       z     vdW  Elec       q    Type
REMARK                         _______ _______ _______ _____ _____    ______ ____
ROOT
ATOM      1  C   UNL     1       2.995   4.040  19.978  0.00  0.00    +0.000 A 
ATOM      2  C   UNL     1       4.042   4.970  19.905  0.00  0.00    +0.000 A 
ATOM      3  C   UNL     1       4.873   5.039  18.778  0.00  0.00    +0.000 A 
ATOM      4  C   UNL     1       4.714   4.136  17.717  0.00  0.00    +0.000 A 
ATOM      5  C   UNL     1       3.748   3.131  17.872  0.00  0.00    +0.000 A 
ATOM      6  C   UNL     1       2.880   3.075  18.975  0.00  0.00    +0.000 A 
ATOM      7  C   UNL     1       5.493   4.291  16.476  0.00  0.00    +0.000 A 
ATOM      8  C   UNL     1       5.118   3.725  15.250  0.00  0.00    +0.000 A 
ATOM      9  C   UNL     1       5.872   3.948  14.098  0.00  0.00    +0.000 A 
ATOM     10  C   UNL     1       5.512   3.374  12.870  0.00  0.00    +0.000 A 
ATOM     11  C   UNL     1       6.279   3.610  11.731  0.00  0.00    +0.000 A 
ATOM     12  C   UNL     1       7.408   4.421  11.808  0.00  0.00    +0.000 A 
ATOM     13  C   UNL     1       7.773   4.998  13.025  0.00  0.00    +0.000 A 
ATOM     14  C   UNL     1       7.009   4.765  14.182  0.00  0.00    +0.000 A 
ATOM     15  C   UNL     1       7.341   5.320  15.419  0.00  0.00    +0.000 A 
ATOM     16  N   UNL     1       6.596   5.090  16.529  0.00  0.00    +0.000 N 
ATOM     17  C   UNL     1       7.058   5.670  17.818  0.00  0.00    +0.000 C 
ATOM     18  C   UNL     1       5.879   6.146  18.646  0.00  0.00    +0.000 C 
ENDROOT
BRANCH   1  20
ATOM     19  C   UNL     1       2.210   2.942  21.922  0.00  0.00    +0.000 C 
ATOM     20  O   UNL     1       2.116   4.050  21.022  0.00  0.00    +0.000 OA
ENDBRANCH   1  20
BRANCH   6  21
ATOM     21  O   UNL     1       1.987   2.049  18.847  0.00  0.00    +0.000 OA
ATOM     22  C   UNL     1       0.612   2.333  18.641  0.00  0.00    +0.000 C 
ENDBRANCH   6  21
TORSDOF 2
ENDMDL
MODEL 6
REMARK VINA RESULT:      -7.2      5.409      7.183
REMARK  Name = 
REMARK  4 active torsions:
REMARK  status: ('A' for Active; 'I' for Inactive)
REMARK    1  A    between atoms: C_1  and  O_2
REMARK    2  A    between atoms: O_2  and  C_3
REMARK    3  A    between atoms: C_8  and  O_9
REMARK    4  A    between atoms: O_9  and  C_10
REMARK                            x       y       z     vdW  Elec       q    Type
REMARK                         _______ _______ _______ _____ _____    ______ ____
ROOT
ATOM      1  C   UNL     1       6.998   4.708  13.901  0.00  0.00    +0.000 A 
ATOM      2  C   UNL     1       7.439   5.125  15.165  0.00  0.00    +0.000 A 
ATOM      3  C   UNL     1       6.603   5.046  16.287  0.00  0.00    +0.000 A 
ATOM      4  C   UNL     1       5.278   4.601  16.161  0.00  0.00    +0.000 A 
ATOM      5  C   UNL     1       4.820   4.317  14.866  0.00  0.00    +0.000 A 
ATOM      6  C   UNL     1       5.658   4.351  13.739  0.00  0.00    +0.000 A 
ATOM      7  C   UNL     1       4.441   4.388  17.354  0.00  0.00    +0.000 A 
ATOM      8  C   UNL     1       3.299   3.575  17.364  0.00  0.00    +0.000 A 
ATOM      9  C   UNL     1       2.574   3.374  18.538  0.00  0.00    +0.000 A 
ATOM     10  C   UNL     1       1.422   2.574  18.555  0.00  0.00    +0.000 A 
ATOM     11  C   UNL     1       0.713   2.385  19.739  0.00  0.00    +0.000 A 
ATOM     12  C   UNL     1       1.147   2.991  20.915  0.00  0.00    +0.000 A 
ATOM     13  C   UNL     1       2.293   3.788  20.909  0.00  0.00    +0.000 A 
ATOM     14  C   UNL     1       3.016   3.987  19.720  0.00  0.00    +0.000 A 
ATOM     15  C   UNL     1       4.166   4.779  19.670  0.00  0.00    +0.000 A 
ATOM     16  N   UNL     1       4.856   4.964  18.517  0.00  0.00    +0.000 N 
ATOM     17  C   UNL     1       6.033   5.874  18.542  0.00  0.00    +0.000 C 
ATOM     18  C   UNL     1       7.143   5.338  17.657  0.00  0.00    +0.000 C 
ENDROOT
BRANCH   1  20
ATOM     19  C   UNL     1       8.558   5.890  12.571  0.00  0.00    +0.000 C 
ATOM     20  O   UNL     1       7.849   4.676  12.834  0.00  0.00    +0.000 OA
ENDBRANCH   1  20
BRANCH   6  21
ATOM     21  O   UNL     1       4.987   3.960  12.614  0.00  0.00    +0.000 OA
ATOM     22  C   UNL     1       5.356   2.758  11.956  0.00  0.00    +0.000 C 
ENDBRANCH   6  21
TORSDOF 2
ENDMDL
MODEL 7
REMARK VINA RESULT:      -7.1      4.734      6.939
REMARK  Name = 
REMARK  4 active torsions:
REMARK  status: ('A' for Active; 'I' for Inactive)
REMARK    1  A    between atoms: C_1  and  O_2
REMARK    2  A    between atoms: O_2  and  C_3
REMARK    3  A    between atoms: C_8  and  O_9
REMARK    4  A    between atoms: O_9  and  C_10
REMARK                            x       y       z     vdW  Elec       q    Type
REMARK                         _______ _______ _______ _____ _____    ______ ____
ROOT
ATOM      1  C   UNL     1       7.287   5.178  14.229  0.00  0.00    +0.000 A 
ATOM      2  C   UNL     1       7.105   6.121  15.251  0.00  0.00    +0.000 A 
ATOM      3  C   UNL     1       6.045   6.007  16.162  0.00  0.00    +0.000 A 
ATOM      4  C   UNL     1       5.102   4.976  16.036  0.00  0.00    +0.000 A 
ATOM      5  C   UNL     1       5.230   4.125  14.927  0.00  0.00    +0.000 A 
ATOM      6  C   UNL     1       6.310   4.200  14.032  0.00  0.00    +0.000 A 
ATOM      7  C   UNL     1       4.069   4.773  17.065  0.00  0.00    +0.000 A 
ATOM      8  C   UNL     1       3.379   3.566  17.244  0.00  0.00    +0.000 A 
ATOM      9  C   UNL     1       2.445   3.420  18.269  0.00  0.00    +0.000 A 
ATOM     10  C   UNL     1       1.740   2.221  18.446  0.00  0.00    +0.000 A 
ATOM     11  C   UNL     1       0.811   2.096  19.478  0.00  0.00    +0.000 A 
ATOM     12  C   UNL     1       0.581   3.164  20.340  0.00  0.00    +0.000 A 
ATOM     13  C   UNL     1       1.279   4.361  20.173  0.00  0.00    +0.000 A 
ATOM     14  C   UNL     1       2.217   4.500  19.134  0.00  0.00    +0.000 A 
ATOM     15  C   UNL     1       2.934   5.681  18.931  0.00  0.00    +0.000 A 
ATOM     16  N   UNL     1       3.837   5.804  17.926  0.00  0.00    +0.000 N 
ATOM     17  C   UNL     1       4.509   7.118  17.744  0.00  0.00    +0.000 C 
ATOM     18  C   UNL     1       5.961   6.927  17.345  0.00  0.00    +0.000 C 
ENDROOT
BRANCH   1  20
ATOM     19  C   UNL     1       8.229   5.975  12.210  0.00  0.00    +0.000 C 
ATOM     20  O   UNL     1       8.384   5.224  13.417  0.00  0.00    +0.000 OA
ENDBRANCH   1  20
BRANCH   6  21
ATOM     21  O   UNL     1       6.238   3.214  13.089  0.00  0.00    +0.000 OA
ATOM     22  C   UNL     1       5.270   3.297  12.056  0.00  0.00    +0.000 C 
ENDBRANCH   6  21
TORSDOF 2
ENDMDL
MODEL 8
REMARK VINA RESULT:      -6.9      2.507      6.754
REMARK  Name = 
REMARK  4 active torsions:
REMARK  status: ('A' for Active; 'I' for Inactive)
REMARK    1  A    between atoms: C_1  and  O_2
REMARK    2  A    between atoms: O_2  and  C_3
REMARK    3  A    between atoms: C_8  and  O_9
REMARK    4  A    between atoms: O_9  and  C_10
REMARK                            x       y       z     vdW  Elec       q    Type
REMARK                         _______ _______ _______ _____ _____    ______ ____
ROOT
ATOM      1  C   UNL     1       0.259  10.139  20.360  0.00  0.00    +0.000 A 
ATOM      2  C   UNL     1       1.048  10.070  19.203  0.00  0.00    +0.000 A 
ATOM      3  C   UNL     1       1.707   8.885  18.845  0.00  0.00    +0.000 A 
ATOM      4  C   UNL     1       1.642   7.754  19.671  0.00  0.00    +0.000 A 
ATOM      5  C   UNL     1       0.957   7.890  20.888  0.00  0.00    +0.000 A 
ATOM      6  C   UNL     1       0.256   9.055  21.240  0.00  0.00    +0.000 A 
ATOM      7  C   UNL     1       2.218   6.471  19.235  0.00  0.00    +0.000 A 
ATOM      8  C   UNL     1       1.847   5.231  19.774  0.00  0.00    +0.000 A 
ATOM      9  C   UNL     1       2.394   4.045  19.284  0.00  0.00    +0.000 A 
ATOM     10  C   UNL     1       2.039   2.801  19.826  0.00  0.00    +0.000 A 
ATOM     11  C   UNL     1       2.597   1.628  19.322  0.00  0.00    +0.000 A 
ATOM     12  C   UNL     1       3.510   1.687  18.273  0.00  0.00    +0.000 A 
ATOM     13  C   UNL     1       3.868   2.919  17.726  0.00  0.00    +0.000 A 
ATOM     14  C   UNL     1       3.314   4.110  18.227  0.00  0.00    +0.000 A 
ATOM     15  C   UNL     1       3.647   5.364  17.710  0.00  0.00    +0.000 A 
ATOM     16  N   UNL     1       3.106   6.506  18.201  0.00  0.00    +0.000 N 
ATOM     17  C   UNL     1       3.565   7.802  17.633  0.00  0.00    +0.000 C 
ATOM     18  C   UNL     1       2.409   8.779  17.523  0.00  0.00    +0.000 C 
ENDROOT
BRANCH   1  20
ATOM     19  C   UNL     1      -1.351  11.701  19.606  0.00  0.00    +0.000 C 
ATOM     20  O   UNL     1      -0.475  11.254  20.645  0.00  0.00    +0.000 OA
ENDBRANCH   1  20
BRANCH   6  21
ATOM     21  O   UNL     1      -0.386   8.902  22.437  0.00  0.00    +0.000 OA
ATOM     22  C   UNL     1       0.134   9.528  23.599  0.00  0.00    +0.000 C 
ENDBRANCH   6  21
TORSDOF 2
ENDMDL
MODEL 9
REMARK VINA RESULT:      -6.8      4.291      8.147
REMARK  Name = 
REMARK  4 active torsions:
REMARK  status: ('A' for Active; 'I' for Inactive)
REMARK    1  A    between atoms: C_1  and  O_2
REMARK    2  A    between atoms: O_2  and  C_3
REMARK    3  A    between atoms: C_8  and  O_9
REMARK    4  A    between atoms: O_9  and  C_10
REMARK                            x       y       z     vdW  Elec       q    Type
REMARK                         _______ _______ _______ _____ _____    ______ ____
ROOT
ATOM      1  C   UNL     1       2.636   5.067  19.705  0.00  0.00    +0.000 A 
ATOM      2  C   UNL     1       3.915   5.639  19.659  0.00  0.00    +0.000 A 
ATOM      3  C   UNL     1       4.759   5.442  18.557  0.00  0.00    +0.000 A 
ATOM      4  C   UNL     1       4.365   4.615  17.495  0.00  0.00    +0.000 A 
ATOM      5  C   UNL     1       3.138   3.948  17.626  0.00  0.00    +0.000 A 
ATOM      6  C   UNL     1       2.263   4.169  18.703  0.00  0.00    +0.000 A 
ATOM      7  C   UNL     1       5.188   4.513  16.278  0.00  0.00    +0.000 A 
ATOM      8  C   UNL     1       4.693   4.070  15.043  0.00  0.00    +0.000 A 
ATOM      9  C   UNL     1       5.510   4.041  13.913  0.00  0.00    +0.000 A 
ATOM     10  C   UNL     1       5.028   3.587  12.677  0.00  0.00    +0.000 A 
ATOM     11  C   UNL     1       5.861   3.567  11.560  0.00  0.00    +0.000 A 
ATOM     12  C   UNL     1       7.179   4.002  11.667  0.00  0.00    +0.000 A 
ATOM     13  C   UNL     1       7.667   4.458  12.893  0.00  0.00    +0.000 A 
ATOM     14  C   UNL     1       6.837   4.481  14.027  0.00  0.00    +0.000 A 
ATOM     15  C   UNL     1       7.287   4.926  15.272  0.00  0.00    +0.000 A 
ATOM     16  N   UNL     1       6.478   4.944  16.359  0.00  0.00    +0.000 N 
ATOM     17  C   UNL     1       7.058   5.375  17.659  0.00  0.00    +0.000 C 
ATOM     18  C   UNL     1       6.054   6.194  18.450  0.00  0.00    +0.000 C 
ENDROOT
BRANCH   1  20
ATOM     19  C   UNL     1       1.430   6.735  20.872  0.00  0.00    +0.000 C 
ATOM     20  O   UNL     1       1.772   5.354  20.722  0.00  0.00    +0.000 OA
ENDBRANCH   1  20
BRANCH   6  21
ATOM     21  O   UNL     1       1.107   3.457  18.553  0.00  0.00    +0.000 OA
ATOM     22  C   UNL     1       0.976   2.187  19.172  0.00  0.00    +0.000 C 
ENDBRANCH   6  21
TORSDOF 2
ENDMDL
