MODEL 1
REMARK VINA RESULT:      -8.5      0.000      0.000
REMARK  Name = 
REMARK  4 active torsions:
REMARK  status: ('A' for Active; 'I' for Inactive)
REMARK    1  A    between atoms: C_1  and  N_2
REMARK    2  A    between atoms: N_5  and  C_6
REMARK    3  A    between atoms: C_9  and  N_10
REMARK    4  A    between atoms: N_17  and  C_18
REMARK                            x       y       z     vdW  Elec       q    Type
REMARK                         _______ _______ _______ _____ _____    ______ ____
ROOT
ATOM      1  N   UNL     1       1.761   6.687  20.937  0.00  0.00    +0.000 N 
ATOM      2  C   UNL     1       2.071   5.481  20.316  0.00  0.00    +0.000 A 
ATOM      3  N   UNL     1       2.225   4.439  21.140  0.00  0.00    +0.000 NA
ATOM      4  C   UNL     1       2.981   3.434  20.679  0.00  0.00    +0.000 A 
ATOM      5  C   UNL     1       3.595   3.483  19.451  0.00  0.00    +0.000 A 
ATOM      6  C   UNL     1       3.067   4.381  18.538  0.00  0.00    +0.000 A 
ATOM      7  N   UNL     1       2.326   5.405  18.997  0.00  0.00    +0.000 NA
ATOM      8  N   UNL     1       3.643   4.508  17.249  0.00  0.00    +0.000 N 
ATOM      9  C   UNL     1       3.843   3.262  16.492  0.00  0.00    +0.000 C 
ATOM     10  C   UNL     1       4.822   5.298  17.157  0.00  0.00    +0.000 A 
ATOM     11  C   UNL     1       4.958   6.149  16.045  0.00  0.00    +0.000 A 
ATOM     12  C   UNL     1       6.003   7.064  15.965  0.00  0.00    +0.000 A 
ATOM     13  C   UNL     1       6.917   7.148  17.011  0.00  0.00    +0.000 A 
ATOM     14  C   UNL     1       6.811   6.288  18.108  0.00  0.00    +0.000 A 
ATOM     15  C   UNL     1       5.793   5.330  18.187  0.00  0.00    +0.000 A 
ATOM     16  C   UNL     1       5.804   4.392  19.384  0.00  0.00    +0.000 C 
ATOM     17  O   UNL     1       6.570   4.616  20.307  0.00  0.00    +0.000 OA
ATOM     18  N   UNL     1       5.009   3.216  19.396  0.00  0.00    +0.000 N 
ATOM     19  H   UNL     1       1.758   6.574  21.939  0.00  0.00    +0.000 HD
ATOM     20  H   UNL     1       5.215   2.718  18.549  0.00  0.00    +0.000 HD
ENDROOT
BRANCH   1  24
ATOM     21  C   UNL     1       0.823  10.487  19.335  0.00  0.00    +0.000 A 
ATOM     22  C   UNL     1       0.674  10.204  20.699  0.00  0.00    +0.000 A 
ATOM     23  C   UNL     1       1.082   8.979  21.245  0.00  0.00    +0.000 A 
ATOM     24  C   UNL     1       1.641   7.987  20.436  0.00  0.00    +0.000 A 
ATOM     25  C   UNL     1       1.888   8.311  19.104  0.00  0.00    +0.000 A 
ATOM     26  C   UNL     1       1.478   9.529  18.563  0.00  0.00    +0.000 A 
BRANCH  21  31
ATOM     27  C   UNL     1      -0.862  15.630  19.907  0.00  0.00    +0.000 C 
ATOM     28  N   UNL     1      -0.541  14.411  19.176  0.00  0.00    +0.000 NA
ATOM     29  C   UNL     1      -1.353  13.269  19.650  0.00  0.00    +0.000 C 
ATOM     30  C   UNL     1      -1.084  12.005  18.816  0.00  0.00    +0.000 C 
ATOM     31  N   UNL     1       0.347  11.664  18.792  0.00  0.00    +0.000 N 
ATOM     32  C   UNL     1       1.266  12.779  18.513  0.00  0.00    +0.000 C 
ATOM     33  C   UNL     1       0.889  14.051  19.320  0.00  0.00    +0.000 C 
ENDBRANCH  21  31
ENDBRANCH   1  24
TORSDOF 2
ENDMDL
MODEL 2
REMARK VINA RESULT:      -8.4      2.370      4.306
REMARK  Name = 
REMARK  4 active torsions:
REMARK  status: ('A' for Active; 'I' for Inactive)
REMARK    1  A    between atoms: C_1  and  N_2
REMARK    2  A    between atoms: N_5  and  C_6
REMARK    3  A    between atoms: C_9  and  N_10
REMARK    4  A    between atoms: N_17  and  C_18
REMARK                            x       y       z     vdW  Elec       q    Type
REMARK                         _______ _______ _______ _____ _____    ______ ____
ROOT
ATOM      1  N   UNL     1       3.739   7.419  17.362  0.00  0.00    +0.000 N 
ATOM      2  C   UNL     1       4.490   6.267  17.569  0.00  0.00    +0.000 A 
ATOM      3  N   UNL     1       5.087   5.772  16.479  0.00  0.00    +0.000 NA
ATOM      4  C   UNL     1       5.380   4.465  16.513  0.00  0.00    +0.000 A 
ATOM      5  C   UNL     1       5.055   3.669  17.586  0.00  0.00    +0.000 A 
ATOM      6  C   UNL     1       4.822   4.323  18.784  0.00  0.00    +0.000 A 
ATOM      7  N   UNL     1       4.505   5.630  18.754  0.00  0.00    +0.000 NA
ATOM      8  N   UNL     1       4.470   3.585  19.942  0.00  0.00    +0.000 N 
ATOM      9  C   UNL     1       5.338   2.447  20.286  0.00  0.00    +0.000 C 
ATOM     10  C   UNL     1       3.112   3.176  20.043  0.00  0.00    +0.000 A 
ATOM     11  C   UNL     1       2.493   3.253  21.305  0.00  0.00    +0.000 A 
ATOM     12  C   UNL     1       1.130   3.022  21.452  0.00  0.00    +0.000 A 
ATOM     13  C   UNL     1       0.364   2.725  20.328  0.00  0.00    +0.000 A 
ATOM     14  C   UNL     1       0.970   2.615  19.073  0.00  0.00    +0.000 A 
ATOM     15  C   UNL     1       2.348   2.801  18.911  0.00  0.00    +0.000 A 
ATOM     16  C   UNL     1       2.925   2.587  17.520  0.00  0.00    +0.000 C 
ATOM     17  O   UNL     1       2.164   2.447  16.577  0.00  0.00    +0.000 OA
ATOM     18  N   UNL     1       4.325   2.456  17.324  0.00  0.00    +0.000 N 
ATOM     19  H   UNL     1       3.729   7.659  16.382  0.00  0.00    +0.000 HD
ATOM     20  H   UNL     1       4.641   1.742  17.956  0.00  0.00    +0.000 HD
ENDROOT
BRANCH   1  24
ATOM     21  C   UNL     1       0.757   9.267  19.724  0.00  0.00    +0.000 A 
ATOM     22  C   UNL     1       1.445   8.128  20.163  0.00  0.00    +0.000 A 
ATOM     23  C   UNL     1       2.503   7.579  19.425  0.00  0.00    +0.000 A 
ATOM     24  C   UNL     1       2.898   8.145  18.211  0.00  0.00    +0.000 A 
ATOM     25  C   UNL     1       2.286   9.338  17.831  0.00  0.00    +0.000 A 
ATOM     26  C   UNL     1       1.231   9.880  18.566  0.00  0.00    +0.000 A 
BRANCH  21  31
ATOM     27  C   UNL     1      -1.456  12.853  23.167  0.00  0.00    +0.000 C 
ATOM     28  N   UNL     1      -1.447  11.710  22.265  0.00  0.00    +0.000 NA
ATOM     29  C   UNL     1      -0.507  10.666  22.727  0.00  0.00    +0.000 C 
ATOM     30  C   UNL     1      -0.568   9.419  21.830  0.00  0.00    +0.000 C 
ATOM     31  N   UNL     1      -0.334   9.755  20.416  0.00  0.00    +0.000 N 
ATOM     32  C   UNL     1      -1.087  10.908  19.899  0.00  0.00    +0.000 C 
ATOM     33  C   UNL     1      -1.059  12.103  20.891  0.00  0.00    +0.000 C 
ENDBRANCH  21  31
ENDBRANCH   1  24
TORSDOF 2
ENDMDL
MODEL 3
REMARK VINA RESULT:      -8.2      4.904     10.934
REMARK  Name = 
REMARK  4 active torsions:
REMARK  status: ('A' for Active; 'I' for Inactive)
REMARK    1  A    between atoms: C_1  and  N_2
REMARK    2  A    between atoms: N_5  and  C_6
REMARK    3  A    between atoms: C_9  and  N_10
REMARK    4  A    between atoms: N_17  and  C_18
REMARK                            x       y       z     vdW  Elec       q    Type
REMARK                         _______ _______ _______ _____ _____    ______ ____
ROOT
ATOM      1  N   UNL     1      -4.006  11.852  16.998  0.00  0.00    +0.000 N 
ATOM      2  C   UNL     1      -5.144  11.967  17.790  0.00  0.00    +0.000 A 
ATOM      3  N   UNL     1      -6.212  12.491  17.180  0.00  0.00    +0.000 NA
ATOM      4  C   UNL     1      -7.120  13.066  17.980  0.00  0.00    +0.000 A 
ATOM      5  C   UNL     1      -6.950  13.149  19.341  0.00  0.00    +0.000 A 
ATOM      6  C   UNL     1      -6.053  12.256  19.901  0.00  0.00    +0.000 A 
ATOM      7  N   UNL     1      -5.125  11.692  19.107  0.00  0.00    +0.000 NA
ATOM      8  N   UNL     1      -5.804  12.275  21.296  0.00  0.00    +0.000 N 
ATOM      9  C   UNL     1      -6.985  12.238  22.175  0.00  0.00    +0.000 C 
ATOM     10  C   UNL     1      -4.911  13.276  21.766  0.00  0.00    +0.000 A 
ATOM     11  C   UNL     1      -3.990  12.918  22.769  0.00  0.00    +0.000 A 
ATOM     12  C   UNL     1      -2.985  13.792  23.166  0.00  0.00    +0.000 A 
ATOM     13  C   UNL     1      -2.879  15.035  22.548  0.00  0.00    +0.000 A 
ATOM     14  C   UNL     1      -3.804  15.416  21.572  0.00  0.00    +0.000 A 
ATOM     15  C   UNL     1      -4.850  14.567  21.190  0.00  0.00    +0.000 A 
ATOM     16  C   UNL     1      -5.849  15.100  20.173  0.00  0.00    +0.000 C 
ATOM     17  O   UNL     1      -5.609  16.150  19.599  0.00  0.00    +0.000 OA
ATOM     18  N   UNL     1      -7.089  14.444  19.957  0.00  0.00    +0.000 N 
ATOM     19  H   UNL     1      -4.174  12.246  16.084  0.00  0.00    +0.000 HD
ATOM     20  H   UNL     1      -7.519  14.333  20.857  0.00  0.00    +0.000 HD
ENDROOT
BRANCH   1  24
ATOM     21  C   UNL     1      -0.282  10.392  18.372  0.00  0.00    +0.000 A 
ATOM     22  C   UNL     1      -1.078   9.661  17.479  0.00  0.00    +0.000 A 
ATOM     23  C   UNL     1      -2.260  10.190  16.945  0.00  0.00    +0.000 A 
ATOM     24  C   UNL     1      -2.696  11.469  17.302  0.00  0.00    +0.000 A 
ATOM     25  C   UNL     1      -1.850  12.234  18.102  0.00  0.00    +0.000 A 
ATOM     26  C   UNL     1      -0.676  11.703  18.635  0.00  0.00    +0.000 A 
BRANCH  21  31
ATOM     27  C   UNL     1       2.552   6.032  19.977  0.00  0.00    +0.000 C 
ATOM     28  N   UNL     1       2.297   7.454  19.784  0.00  0.00    +0.000 NA
ATOM     29  C   UNL     1       1.065   7.880  20.481  0.00  0.00    +0.000 C 
ATOM     30  C   UNL     1       0.846   9.397  20.359  0.00  0.00    +0.000 C 
ATOM     31  N   UNL     1       0.838   9.833  18.954  0.00  0.00    +0.000 N 
ATOM     32  C   UNL     1       1.928   9.310  18.115  0.00  0.00    +0.000 C 
ATOM     33  C   UNL     1       2.155   7.792  18.349  0.00  0.00    +0.000 C 
ENDBRANCH  21  31
ENDBRANCH   1  24
TORSDOF 2
ENDMDL
MODEL 4
REMARK VINA RESULT:      -8.1      0.878      1.339
REMARK  Name = 
REMARK  4 active torsions:
REMARK  status: ('A' for Active; 'I' for Inactive)
REMARK    1  A    between atoms: C_1  and  N_2
REMARK    2  A    between atoms: N_5  and  C_6
REMARK    3  A    between atoms: C_9  and  N_10
REMARK    4  A    between atoms: N_17  and  C_18
REMARK                            x       y       z     vdW  Elec       q    Type
REMARK                         _______ _______ _______ _____ _____    ______ ____
ROOT
ATOM      1  N   UNL     1       1.672   6.649  20.872  0.00  0.00    +0.000 N 
ATOM      2  C   UNL     1       2.065   5.397  20.406  0.00  0.00    +0.000 A 
ATOM      3  N   UNL     1       2.393   4.514  21.355  0.00  0.00    +0.000 NA
ATOM      4  C   UNL     1       3.217   3.527  20.976  0.00  0.00    +0.000 A 
ATOM      5  C   UNL     1       3.726   3.446  19.703  0.00  0.00    +0.000 A 
ATOM      6  C   UNL     1       3.036   4.138  18.722  0.00  0.00    +0.000 A 
ATOM      7  N   UNL     1       2.224   5.144  19.095  0.00  0.00    +0.000 NA
ATOM      8  N   UNL     1       3.494   4.121  17.381  0.00  0.00    +0.000 N 
ATOM      9  C   UNL     1       3.770   2.798  16.797  0.00  0.00    +0.000 C 
ATOM     10  C   UNL     1       4.569   4.997  17.069  0.00  0.00    +0.000 A 
ATOM     11  C   UNL     1       4.527   5.677  15.837  0.00  0.00    +0.000 A 
ATOM     12  C   UNL     1       5.456   6.664  15.530  0.00  0.00    +0.000 A 
ATOM     13  C   UNL     1       6.434   6.996  16.465  0.00  0.00    +0.000 A 
ATOM     14  C   UNL     1       6.506   6.308  17.679  0.00  0.00    +0.000 A 
ATOM     15  C   UNL     1       5.607   5.280  17.989  0.00  0.00    +0.000 A 
ATOM     16  C   UNL     1       5.812   4.542  19.303  0.00  0.00    +0.000 C 
ATOM     17  O   UNL     1       6.616   4.978  20.110  0.00  0.00    +0.000 OA
ATOM     18  N   UNL     1       5.153   3.310  19.558  0.00  0.00    +0.000 N 
ATOM     19  H   UNL     1       1.759   6.691  21.876  0.00  0.00    +0.000 HD
ATOM     20  H   UNL     1       5.346   2.711  18.777  0.00  0.00    +0.000 HD
ENDROOT
BRANCH   1  24
ATOM     21  C   UNL     1       1.299  10.440  19.037  0.00  0.00    +0.000 A 
ATOM     22  C   UNL     1       1.934   9.369  18.395  0.00  0.00    +0.000 A 
ATOM     23  C   UNL     1       1.966   8.087  18.960  0.00  0.00    +0.000 A 
ATOM     24  C   UNL     1       1.374   7.838  20.202  0.00  0.00    +0.000 A 
ATOM     25  C   UNL     1       0.651   8.876  20.786  0.00  0.00    +0.000 A 
ATOM     26  C   UNL     1       0.624  10.151  20.222  0.00  0.00    +0.000 A 
BRANCH  21  31
ATOM     27  C   UNL     1       2.115  15.788  19.628  0.00  0.00    +0.000 C 
ATOM     28  N   UNL     1       1.795  14.565  18.903  0.00  0.00    +0.000 NA
ATOM     29  C   UNL     1       0.613  13.891  19.481  0.00  0.00    +0.000 C 
ATOM     30  C   UNL     1       0.215  12.653  18.660  0.00  0.00    +0.000 C 
ATOM     31  N   UNL     1       1.340  11.716  18.511  0.00  0.00    +0.000 N 
ATOM     32  C   UNL     1       2.625  12.316  18.117  0.00  0.00    +0.000 C 
ATOM     33  C   UNL     1       2.925  13.609  18.922  0.00  0.00    +0.000 C 
ENDBRANCH  21  31
ENDBRANCH   1  24
TORSDOF 2
ENDMDL
MODEL 5
REMARK VINA RESULT:      -8.1      2.317      4.362
REMARK  Name = 
REMARK  4 active torsions:
REMARK  status: ('A' for Active; 'I' for Inactive)
REMARK    1  A    between atoms: C_1  and  N_2
REMARK    2  A    between atoms: N_5  and  C_6
REMARK    3  A    between atoms: C_9  and  N_10
REMARK    4  A    between atoms: N_17  and  C_18
REMARK                            x       y       z     vdW  Elec       q    Type
REMARK                         _______ _______ _______ _____ _____    ______ ____
ROOT
ATOM      1  N   UNL     1       3.058   8.105  17.430  0.00  0.00    +0.000 N 
ATOM      2  C   UNL     1       3.960   7.049  17.507  0.00  0.00    +0.000 A 
ATOM      3  N   UNL     1       4.511   6.685  16.344  0.00  0.00    +0.000 NA
ATOM      4  C   UNL     1       4.963   5.425  16.279  0.00  0.00    +0.000 A 
ATOM      5  C   UNL     1       4.837   4.546  17.328  0.00  0.00    +0.000 A 
ATOM      6  C   UNL     1       4.636   5.109  18.577  0.00  0.00    +0.000 A 
ATOM      7  N   UNL     1       4.161   6.365  18.648  0.00  0.00    +0.000 NA
ATOM      8  N   UNL     1       4.484   4.280  19.716  0.00  0.00    +0.000 N 
ATOM      9  C   UNL     1       5.512   3.247  19.920  0.00  0.00    +0.000 C 
ATOM     10  C   UNL     1       3.201   3.698  19.908  0.00  0.00    +0.000 A 
ATOM     11  C   UNL     1       2.695   3.638  21.221  0.00  0.00    +0.000 A 
ATOM     12  C   UNL     1       1.390   3.230  21.469  0.00  0.00    +0.000 A 
ATOM     13  C   UNL     1       0.566   2.890  20.399  0.00  0.00    +0.000 A 
ATOM     14  C   UNL     1       1.064   2.916  19.094  0.00  0.00    +0.000 A 
ATOM     15  C   UNL     1       2.389   3.281  18.826  0.00  0.00    +0.000 A 
ATOM     16  C   UNL     1       2.859   3.207  17.381  0.00  0.00    +0.000 C 
ATOM     17  O   UNL     1       2.038   3.015  16.499  0.00  0.00    +0.000 OA
ATOM     18  N   UNL     1       4.240   3.263  17.060  0.00  0.00    +0.000 N 
ATOM     19  H   UNL     1       2.929   8.387  16.470  0.00  0.00    +0.000 HD
ATOM     20  H   UNL     1       4.697   2.567  17.621  0.00  0.00    +0.000 HD
ENDROOT
BRANCH   1  24
ATOM     21  C   UNL     1       0.995  10.125  20.521  0.00  0.00    +0.000 A 
ATOM     22  C   UNL     1       1.180  10.702  19.257  0.00  0.00    +0.000 A 
ATOM     23  C   UNL     1       1.772   9.991  18.204  0.00  0.00    +0.000 A 
ATOM     24  C   UNL     1       2.215   8.679  18.387  0.00  0.00    +0.000 A 
ATOM     25  C   UNL     1       1.933   8.071  19.609  0.00  0.00    +0.000 A 
ATOM     26  C   UNL     1       1.346   8.783  20.656  0.00  0.00    +0.000 A 
BRANCH  21  31
ATOM     27  C   UNL     1      -3.242  12.161  23.262  0.00  0.00    +0.000 C 
ATOM     28  N   UNL     1      -1.833  11.912  22.988  0.00  0.00    +0.000 NA
ATOM     29  C   UNL     1      -1.441  12.435  21.662  0.00  0.00    +0.000 C 
ATOM     30  C   UNL     1       0.066  12.259  21.412  0.00  0.00    +0.000 C 
ATOM     31  N   UNL     1       0.483  10.857  21.574  0.00  0.00    +0.000 N 
ATOM     32  C   UNL     1      -0.013  10.177  22.780  0.00  0.00    +0.000 C 
ATOM     33  C   UNL     1      -1.519  10.465  23.024  0.00  0.00    +0.000 C 
ENDBRANCH  21  31
ENDBRANCH   1  24
TORSDOF 2
ENDMDL
MODEL 6
REMARK VINA RESULT:      -8.1      5.327     11.418
REMARK  Name = 
REMARK  4 active torsions:
REMARK  status: ('A' for Active; 'I' for Inactive)
REMARK    1  A    between atoms: C_1  and  N_2
REMARK    2  A    between atoms: N_5  and  C_6
REMARK    3  A    between atoms: C_9  and  N_10
REMARK    4  A    between atoms: N_17  and  C_18
REMARK                            x       y       z     vdW  Elec       q    Type
REMARK                         _______ _______ _______ _____ _____    ______ ____
ROOT
ATOM      1  N   UNL     1      -4.435  12.241  18.127  0.00  0.00    +0.000 N 
ATOM      2  C   UNL     1      -5.614  12.540  18.803  0.00  0.00    +0.000 A 
ATOM      3  N   UNL     1      -6.448  13.363  18.159  0.00  0.00    +0.000 NA
ATOM      4  C   UNL     1      -7.303  14.051  18.928  0.00  0.00    +0.000 A 
ATOM      5  C   UNL     1      -7.302  13.948  20.298  0.00  0.00    +0.000 A 
ATOM      6  C   UNL     1      -6.709  12.813  20.826  0.00  0.00    +0.000 A 
ATOM      7  N   UNL     1      -5.833  12.132  20.067  0.00  0.00    +0.000 NA
ATOM      8  N   UNL     1      -6.651  12.627  22.230  0.00  0.00    +0.000 N 
ATOM      9  C   UNL     1      -7.917  12.780  22.966  0.00  0.00    +0.000 C 
ATOM     10  C   UNL     1      -5.628  13.333  22.920  0.00  0.00    +0.000 A 
ATOM     11  C   UNL     1      -4.953  12.664  23.958  0.00  0.00    +0.000 A 
ATOM     12  C   UNL     1      -3.840  13.228  24.572  0.00  0.00    +0.000 A 
ATOM     13  C   UNL     1      -3.378  14.468  24.139  0.00  0.00    +0.000 A 
ATOM     14  C   UNL     1      -4.057  15.157  23.129  0.00  0.00    +0.000 A 
ATOM     15  C   UNL     1      -5.205  14.626  22.530  0.00  0.00    +0.000 A 
ATOM     16  C   UNL     1      -5.915  15.484  21.493  0.00  0.00    +0.000 C 
ATOM     17  O   UNL     1      -5.373  16.501  21.092  0.00  0.00    +0.000 OA
ATOM     18  N   UNL     1      -7.230  15.167  21.062  0.00  0.00    +0.000 N 
ATOM     19  H   UNL     1      -4.388  12.758  17.262  0.00  0.00    +0.000 HD
ATOM     20  H   UNL     1      -7.790  15.068  21.889  0.00  0.00    +0.000 HD
ENDROOT
BRANCH   1  24
ATOM     21  C   UNL     1      -0.686  10.473  18.961  0.00  0.00    +0.000 A 
ATOM     22  C   UNL     1      -1.182  11.543  19.718  0.00  0.00    +0.000 A 
ATOM     23  C   UNL     1      -2.468  12.059  19.507  0.00  0.00    +0.000 A 
ATOM     24  C   UNL     1      -3.296  11.530  18.514  0.00  0.00    +0.000 A 
ATOM     25  C   UNL     1      -2.844  10.399  17.838  0.00  0.00    +0.000 A 
ATOM     26  C   UNL     1      -1.562   9.889  18.049  0.00  0.00    +0.000 A 
BRANCH  21  31
ATOM     27  C   UNL     1       2.947   6.422  19.062  0.00  0.00    +0.000 C 
ATOM     28  N   UNL     1       2.495   7.804  19.159  0.00  0.00    +0.000 NA
ATOM     29  C   UNL     1       1.482   7.966  20.223  0.00  0.00    +0.000 C 
ATOM     30  C   UNL     1       1.075   9.440  20.391  0.00  0.00    +0.000 C 
ATOM     31  N   UNL     1       0.610  10.023  19.122  0.00  0.00    +0.000 N 
ATOM     32  C   UNL     1       1.456   9.759  17.949  0.00  0.00    +0.000 C 
ATOM     33  C   UNL     1       1.904   8.274  17.885  0.00  0.00    +0.000 C 
ENDBRANCH  21  31
ENDBRANCH   1  24
TORSDOF 2
ENDMDL
MODEL 7
REMARK VINA RESULT:      -8.0      2.061      4.085
REMARK  Name = 
REMARK  4 active torsions:
REMARK  status: ('A' for Active; 'I' for Inactive)
REMARK    1  A    between atoms: C_1  and  N_2
REMARK    2  A    between atoms: N_5  and  C_6
REMARK    3  A    between atoms: C_9  and  N_10
REMARK    4  A    between atoms: N_17  and  C_18
REMARK                            x       y       z     vdW  Elec       q    Type
REMARK                         _______ _______ _______ _____ _____    ______ ____
ROOT
ATOM      1  N   UNL     1       2.853   8.164  17.361  0.00  0.00    +0.000 N 
ATOM      2  C   UNL     1       3.824   7.188  17.560  0.00  0.00    +0.000 A 
ATOM      3  N   UNL     1       4.579   6.910  16.492  0.00  0.00    +0.000 NA
ATOM      4  C   UNL     1       5.148   5.697  16.476  0.00  0.00    +0.000 A 
ATOM      5  C   UNL     1       4.941   4.778  17.476  0.00  0.00    +0.000 A 
ATOM      6  C   UNL     1       4.498   5.281  18.688  0.00  0.00    +0.000 A 
ATOM      7  N   UNL     1       3.906   6.488  18.706  0.00  0.00    +0.000 NA
ATOM      8  N   UNL     1       4.246   4.406  19.774  0.00  0.00    +0.000 N 
ATOM      9  C   UNL     1       5.320   3.459  20.119  0.00  0.00    +0.000 C 
ATOM     10  C   UNL     1       3.007   3.709  19.751  0.00  0.00    +0.000 A 
ATOM     11  C   UNL     1       2.311   3.565  20.966  0.00  0.00    +0.000 A 
ATOM     12  C   UNL     1       1.025   3.037  20.999  0.00  0.00    +0.000 A 
ATOM     13  C   UNL     1       0.412   2.662  19.806  0.00  0.00    +0.000 A 
ATOM     14  C   UNL     1       1.102   2.772  18.596  0.00  0.00    +0.000 A 
ATOM     15  C   UNL     1       2.414   3.259  18.547  0.00  0.00    +0.000 A 
ATOM     16  C   UNL     1       3.107   3.271  17.193  0.00  0.00    +0.000 C 
ATOM     17  O   UNL     1       2.454   3.038  16.190  0.00  0.00    +0.000 OA
ATOM     18  N   UNL     1       4.511   3.457  17.095  0.00  0.00    +0.000 N 
ATOM     19  H   UNL     1       2.850   8.464  16.398  0.00  0.00    +0.000 HD
ATOM     20  H   UNL     1       4.936   2.785  17.708  0.00  0.00    +0.000 HD
ENDROOT
BRANCH   1  24
ATOM     21  C   UNL     1       0.011  10.109  19.816  0.00  0.00    +0.000 A 
ATOM     22  C   UNL     1      -0.107  10.095  18.420  0.00  0.00    +0.000 A 
ATOM     23  C   UNL     1       0.777   9.364  17.615  0.00  0.00    +0.000 A 
ATOM     24  C   UNL     1       1.823   8.632  18.183  0.00  0.00    +0.000 A 
ATOM     25  C   UNL     1       1.873   8.560  19.574  0.00  0.00    +0.000 A 
ATOM     26  C   UNL     1       0.993   9.292  20.372  0.00  0.00    +0.000 A 
BRANCH  21  31
ATOM     27  C   UNL     1      -1.333  14.947  21.915  0.00  0.00    +0.000 C 
ATOM     28  N   UNL     1      -1.473  13.516  21.680  0.00  0.00    +0.000 NA
ATOM     29  C   UNL     1      -0.277  12.776  22.136  0.00  0.00    +0.000 C 
ATOM     30  C   UNL     1      -0.462  11.257  21.977  0.00  0.00    +0.000 C 
ATOM     31  N   UNL     1      -0.815  10.895  20.596  0.00  0.00    +0.000 N 
ATOM     32  C   UNL     1      -1.877  11.701  19.974  0.00  0.00    +0.000 C 
ATOM     33  C   UNL     1      -1.680  13.217  20.244  0.00  0.00    +0.000 C 
ENDBRANCH  21  31
ENDBRANCH   1  24
TORSDOF 2
ENDMDL
MODEL 8
REMARK VINA RESULT:      -7.9      3.147      9.170
REMARK  Name = 
REMARK  4 active torsions:
REMARK  status: ('A' for Active; 'I' for Inactive)
REMARK    1  A    between atoms: C_1  and  N_2
REMARK    2  A    between atoms: N_5  and  C_6
REMARK    3  A    between atoms: C_9  and  N_10
REMARK    4  A    between atoms: N_17  and  C_18
REMARK                            x       y       z     vdW  Elec       q    Type
REMARK                         _______ _______ _______ _____ _____    ______ ____
ROOT
ATOM      1  N   UNL     1      -0.436  10.661  20.319  0.00  0.00    +0.000 N 
ATOM      2  C   UNL     1      -0.446  11.870  21.006  0.00  0.00    +0.000 A 
ATOM      3  N   UNL     1      -1.645  12.450  21.121  0.00  0.00    +0.000 NA
ATOM      4  C   UNL     1      -1.639  13.777  21.308  0.00  0.00    +0.000 A 
ATOM      5  C   UNL     1      -0.475  14.507  21.342  0.00  0.00    +0.000 A 
ATOM      6  C   UNL     1       0.684  13.799  21.615  0.00  0.00    +0.000 A 
ATOM      7  N   UNL     1       0.690  12.470  21.408  0.00  0.00    +0.000 NA
ATOM      8  N   UNL     1       1.933  14.466  21.659  0.00  0.00    +0.000 N 
ATOM      9  C   UNL     1       2.007  15.668  22.506  0.00  0.00    +0.000 C 
ATOM     10  C   UNL     1       2.546  14.745  20.407  0.00  0.00    +0.000 A 
ATOM     11  C   UNL     1       3.939  14.573  20.304  0.00  0.00    +0.000 A 
ATOM     12  C   UNL     1       4.586  14.673  19.077  0.00  0.00    +0.000 A 
ATOM     13  C   UNL     1       3.839  14.932  17.931  0.00  0.00    +0.000 A 
ATOM     14  C   UNL     1       2.459  15.135  18.023  0.00  0.00    +0.000 A 
ATOM     15  C   UNL     1       1.795  15.083  19.255  0.00  0.00    +0.000 A 
ATOM     16  C   UNL     1       0.306  15.390  19.263  0.00  0.00    +0.000 C 
ATOM     17  O   UNL     1      -0.286  15.488  18.200  0.00  0.00    +0.000 OA
ATOM     18  N   UNL     1      -0.378  15.656  20.478  0.00  0.00    +0.000 N 
ATOM     19  H   UNL     1      -1.358  10.450  19.967  0.00  0.00    +0.000 HD
ATOM     20  H   UNL     1       0.139  16.376  20.950  0.00  0.00    +0.000 HD
ENDROOT
BRANCH   1  24
ATOM     21  C   UNL     1       2.320   7.831  18.807  0.00  0.00    +0.000 A 
ATOM     22  C   UNL     1       1.906   8.936  18.050  0.00  0.00    +0.000 A 
ATOM     23  C   UNL     1       1.074   9.927  18.589  0.00  0.00    +0.000 A 
ATOM     24  C   UNL     1       0.614   9.835  19.905  0.00  0.00    +0.000 A 
ATOM     25  C   UNL     1       1.113   8.796  20.688  0.00  0.00    +0.000 A 
ATOM     26  C   UNL     1       1.938   7.810  20.147  0.00  0.00    +0.000 A 
BRANCH  21  31
ATOM     27  C   UNL     1       7.035   5.166  18.280  0.00  0.00    +0.000 C 
ATOM     28  N   UNL     1       5.629   5.444  18.016  0.00  0.00    +0.000 NA
ATOM     29  C   UNL     1       5.442   6.807  17.474  0.00  0.00    +0.000 C 
ATOM     30  C   UNL     1       3.972   7.067  17.104  0.00  0.00    +0.000 C 
ATOM     31  N   UNL     1       3.074   6.821  18.244  0.00  0.00    +0.000 N 
ATOM     32  C   UNL     1       3.299   5.566  18.977  0.00  0.00    +0.000 C 
ATOM     33  C   UNL     1       4.809   5.319  19.243  0.00  0.00    +0.000 C 
ENDBRANCH  21  31
ENDBRANCH   1  24
TORSDOF 2
ENDMDL
MODEL 9
REMARK VINA RESULT:      -7.8      6.798     10.739
REMARK  Name = 
REMARK  4 active torsions:
REMARK  status: ('A' for Active; 'I' for Inactive)
REMARK    1  A    between atoms: C_1  and  N_2
REMARK    2  A    between atoms: N_5  and  C_6
REMARK    3  A    between atoms: C_9  and  N_10
REMARK    4  A    between atoms: N_17  and  C_18
REMARK                            x       y       z     vdW  Elec       q    Type
REMARK                         _______ _______ _______ _____ _____    ______ ____
ROOT
ATOM      1  N   UNL     1      -3.016  12.233  23.311  0.00  0.00    +0.000 N 
ATOM      2  C   UNL     1      -4.293  12.784  23.334  0.00  0.00    +0.000 A 
ATOM      3  N   UNL     1      -5.063  12.395  24.355  0.00  0.00    +0.000 NA
ATOM      4  C   UNL     1      -6.386  12.483  24.158  0.00  0.00    +0.000 A 
ATOM      5  C   UNL     1      -6.923  12.912  22.968  0.00  0.00    +0.000 A 
ATOM      6  C   UNL     1      -6.086  13.652  22.150  0.00  0.00    +0.000 A 
ATOM      7  N   UNL     1      -4.756  13.550  22.328  0.00  0.00    +0.000 NA
ATOM      8  N   UNL     1      -6.549  14.126  20.898  0.00  0.00    +0.000 N 
ATOM      9  C   UNL     1      -7.827  14.857  20.904  0.00  0.00    +0.000 C 
ATOM     10  C   UNL     1      -6.559  13.188  19.830  0.00  0.00    +0.000 A 
ATOM     11  C   UNL     1      -6.159  13.636  18.557  0.00  0.00    +0.000 A 
ATOM     12  C   UNL     1      -5.992  12.745  17.502  0.00  0.00    +0.000 A 
ATOM     13  C   UNL     1      -6.209  11.386  17.716  0.00  0.00    +0.000 A 
ATOM     14  C   UNL     1      -6.636  10.931  18.967  0.00  0.00    +0.000 A 
ATOM     15  C   UNL     1      -6.853  11.817  20.030  0.00  0.00    +0.000 A 
ATOM     16  C   UNL     1      -7.387  11.236  21.329  0.00  0.00    +0.000 C 
ATOM     17  O   UNL     1      -7.433  10.024  21.463  0.00  0.00    +0.000 OA
ATOM     18  N   UNL     1      -7.917  12.078  22.342  0.00  0.00    +0.000 N 
ATOM     19  H   UNL     1      -2.907  11.571  24.064  0.00  0.00    +0.000 HD
ATOM     20  H   UNL     1      -8.604  12.663  21.902  0.00  0.00    +0.000 HD
ENDROOT
BRANCH   1  24
ATOM     21  C   UNL     1       0.452  12.566  20.912  0.00  0.00    +0.000 A 
ATOM     22  C   UNL     1       0.078  11.352  21.505  0.00  0.00    +0.000 A 
ATOM     23  C   UNL     1      -1.125  11.219  22.213  0.00  0.00    +0.000 A 
ATOM     24  C   UNL     1      -1.989  12.307  22.365  0.00  0.00    +0.000 A 
ATOM     25  C   UNL     1      -1.668  13.480  21.685  0.00  0.00    +0.000 A 
ATOM     26  C   UNL     1      -0.469  13.609  20.984  0.00  0.00    +0.000 A 
BRANCH  21  31
ATOM     27  C   UNL     1       3.803  15.330  17.636  0.00  0.00    +0.000 C 
ATOM     28  N   UNL     1       3.410  14.243  18.523  0.00  0.00    +0.000 NA
ATOM     29  C   UNL     1       2.232  13.520  17.998  0.00  0.00    +0.000 C 
ATOM     30  C   UNL     1       1.875  12.313  18.882  0.00  0.00    +0.000 C 
ATOM     31  N   UNL     1       1.673  12.708  20.285  0.00  0.00    +0.000 N 
ATOM     32  C   UNL     1       2.702  13.591  20.855  0.00  0.00    +0.000 C 
ATOM     33  C   UNL     1       3.081  14.738  19.879  0.00  0.00    +0.000 C 
ENDBRANCH  21  31
ENDBRANCH   1  24
TORSDOF 2
ENDMDL
