MODEL 1
REMARK VINA RESULT:      -7.6      0.000      0.000
REMARK  Name = 
REMARK  2 active torsions:
REMARK  status: ('A' for Active; 'I' for Inactive)
REMARK    1  A    between atoms: C_12  and  C_13
REMARK    2  A    between atoms: C_16  and  N_17
REMARK                            x       y       z     vdW  Elec       q    Type
REMARK                         _______ _______ _______ _____ _____    ______ ____
ROOT
ATOM      1  O   UNL     1       1.405   7.846  20.532  0.00  0.00    +0.000 OA
ATOM      2  C   UNL     1       2.206   7.279  19.818  0.00  0.00    +0.000 C 
ATOM      3  N   UNL     1       2.929   6.142  20.142  0.00  0.00    +0.000 N 
ATOM      4  C   UNL     1       3.752   5.740  19.097  0.00  0.00    +0.000 A 
ATOM      5  C   UNL     1       4.601   4.652  19.089  0.00  0.00    +0.000 A 
ATOM      6  C   UNL     1       5.341   4.427  17.926  0.00  0.00    +0.000 A 
ATOM      7  C   UNL     1       5.210   5.288  16.820  0.00  0.00    +0.000 A 
ATOM      8 CL   UNL     1       6.138   4.976  15.401  0.00  0.00    +0.000 Cl
ATOM      9  C   UNL     1       4.346   6.388  16.848  0.00  0.00    +0.000 A 
ATOM     10  C   UNL     1       3.616   6.604  18.003  0.00  0.00    +0.000 A 
ATOM     11  C   UNL     1       2.640   7.623  18.412  0.00  0.00    +0.000 C 
ATOM     12  C   UNL     1       2.230   8.665  17.675  0.00  0.00    +0.000 C 
ATOM     13  H   UNL     1       2.839   5.685  21.037  0.00  0.00    +0.000 HD
ENDROOT
BRANCH  12  14
ATOM     14  C   UNL     1       1.283   9.686  18.127  0.00  0.00    +0.000 A 
ATOM     15  C   UNL     1      -0.082   9.520  17.910  0.00  0.00    +0.000 A 
ATOM     16  C   UNL     1      -0.992  10.489  18.351  0.00  0.00    +0.000 A 
ATOM     17  C   UNL     1      -0.577  11.653  19.016  0.00  0.00    +0.000 A 
ATOM     18  C   UNL     1       0.805  11.801  19.211  0.00  0.00    +0.000 A 
ATOM     19  C   UNL     1       1.726  10.836  18.778  0.00  0.00    +0.000 A 
BRANCH  17  20
ATOM     20  N   UNL     1      -1.478  12.604  19.443  0.00  0.00    +0.000 N 
ATOM     21  C   UNL     1      -1.088  13.967  19.831  0.00  0.00    +0.000 C 
ATOM     22  C   UNL     1      -1.629  14.279  21.233  0.00  0.00    +0.000 C 
ATOM     23  O   UNL     1      -3.056  14.103  21.290  0.00  0.00    +0.000 OA
ATOM     24  C   UNL     1      -3.401  12.743  20.969  0.00  0.00    +0.000 C 
ATOM     25  C   UNL     1      -2.919  12.337  19.563  0.00  0.00    +0.000 C 
ENDBRANCH  17  20
ENDBRANCH  12  14
TORSDOF 2
ENDMDL
MODEL 2
REMARK VINA RESULT:      -7.5      0.585      1.138
REMARK  Name = 
REMARK  2 active torsions:
REMARK  status: ('A' for Active; 'I' for Inactive)
REMARK    1  A    between atoms: C_12  and  C_13
REMARK    2  A    between atoms: C_16  and  N_17
REMARK                            x       y       z     vdW  Elec       q    Type
REMARK                         _______ _______ _______ _____ _____    ______ ____
ROOT
ATOM      1  O   UNL     1       1.162   8.122  20.735  0.00  0.00    +0.000 OA
ATOM      2  C   UNL     1       1.948   7.602  19.970  0.00  0.00    +0.000 C 
ATOM      3  N   UNL     1       2.720   6.480  20.229  0.00  0.00    +0.000 N 
ATOM      4  C   UNL     1       3.508   6.135  19.137  0.00  0.00    +0.000 A 
ATOM      5  C   UNL     1       4.389   5.076  19.060  0.00  0.00    +0.000 A 
ATOM      6  C   UNL     1       5.084   4.908  17.859  0.00  0.00    +0.000 A 
ATOM      7  C   UNL     1       4.878   5.795  16.786  0.00  0.00    +0.000 A 
ATOM      8 CL   UNL     1       5.751   5.554  15.320  0.00  0.00    +0.000 Cl
ATOM      9  C   UNL     1       3.981   6.865  16.884  0.00  0.00    +0.000 A 
ATOM     10  C   UNL     1       3.297   7.024  18.076  0.00  0.00    +0.000 A 
ATOM     11  C   UNL     1       2.308   7.999  18.557  0.00  0.00    +0.000 C 
ATOM     12  C   UNL     1       1.833   9.048  17.870  0.00  0.00    +0.000 C 
ATOM     13  H   UNL     1       2.684   5.995  21.112  0.00  0.00    +0.000 HD
ENDROOT
BRANCH  12  14
ATOM     14  C   UNL     1       0.876  10.024  18.393  0.00  0.00    +0.000 A 
ATOM     15  C   UNL     1       1.326  11.133  19.106  0.00  0.00    +0.000 A 
ATOM     16  C   UNL     1       0.414  12.076  19.598  0.00  0.00    +0.000 A 
ATOM     17  C   UNL     1      -0.969  11.947  19.402  0.00  0.00    +0.000 A 
ATOM     18  C   UNL     1      -1.396  10.816  18.690  0.00  0.00    +0.000 A 
ATOM     19  C   UNL     1      -0.493   9.867  18.189  0.00  0.00    +0.000 A 
BRANCH  17  20
ATOM     20  N   UNL     1      -1.860  12.877  19.893  0.00  0.00    +0.000 N 
ATOM     21  C   UNL     1      -1.461  14.227  20.318  0.00  0.00    +0.000 C 
ATOM     22  C   UNL     1      -1.956  14.484  21.747  0.00  0.00    +0.000 C 
ATOM     23  O   UNL     1      -3.380  14.299  21.846  0.00  0.00    +0.000 OA
ATOM     24  C   UNL     1      -3.730  12.951  21.487  0.00  0.00    +0.000 C 
ATOM     25  C   UNL     1      -3.294  12.599  20.051  0.00  0.00    +0.000 C 
ENDBRANCH  17  20
ENDBRANCH  12  14
TORSDOF 2
ENDMDL
MODEL 3
REMARK VINA RESULT:      -7.4      0.918      1.056
REMARK  Name = 
REMARK  2 active torsions:
REMARK  status: ('A' for Active; 'I' for Inactive)
REMARK    1  A    between atoms: C_12  and  C_13
REMARK    2  A    between atoms: C_16  and  N_17
REMARK                            x       y       z     vdW  Elec       q    Type
REMARK                         _______ _______ _______ _____ _____    ______ ____
ROOT
ATOM      1  O   UNL     1       1.432   8.182  20.704  0.00  0.00    +0.000 OA
ATOM      2  C   UNL     1       2.098   7.415  20.039  0.00  0.00    +0.000 C 
ATOM      3  N   UNL     1       2.641   6.215  20.471  0.00  0.00    +0.000 N 
ATOM      4  C   UNL     1       3.340   5.571  19.457  0.00  0.00    +0.000 A 
ATOM      5  C   UNL     1       4.000   4.364  19.551  0.00  0.00    +0.000 A 
ATOM      6  C   UNL     1       4.641   3.894  18.402  0.00  0.00    +0.000 A 
ATOM      7  C   UNL     1       4.602   4.640  17.209  0.00  0.00    +0.000 A 
ATOM      8 CL   UNL     1       5.403   4.026  15.812  0.00  0.00    +0.000 Cl
ATOM      9  C   UNL     1       3.930   5.865  17.134  0.00  0.00    +0.000 A 
ATOM     10  C   UNL     1       3.297   6.323  18.276  0.00  0.00    +0.000 A 
ATOM     11  C   UNL     1       2.518   7.528  18.591  0.00  0.00    +0.000 C 
ATOM     12  C   UNL     1       2.250   8.538  17.751  0.00  0.00    +0.000 C 
ATOM     13  H   UNL     1       2.518   5.879  21.414  0.00  0.00    +0.000 HD
ENDROOT
BRANCH  12  14
ATOM     14  C   UNL     1       1.503   9.745  18.109  0.00  0.00    +0.000 A 
ATOM     15  C   UNL     1       0.110   9.730  18.115  0.00  0.00    +0.000 A 
ATOM     16  C   UNL     1      -0.608  10.880  18.467  0.00  0.00    +0.000 A 
ATOM     17  C   UNL     1       0.031  12.078  18.820  0.00  0.00    +0.000 A 
ATOM     18  C   UNL     1       1.433  12.069  18.794  0.00  0.00    +0.000 A 
ATOM     19  C   UNL     1       2.164  10.924  18.447  0.00  0.00    +0.000 A 
BRANCH  17  20
ATOM     20  N   UNL     1      -0.684  13.206  19.161  0.00  0.00    +0.000 N 
ATOM     21  C   UNL     1      -0.271  14.566  18.784  0.00  0.00    +0.000 C 
ATOM     22  C   UNL     1      -0.211  15.452  20.036  0.00  0.00    +0.000 C 
ATOM     23  O   UNL     1      -1.471  15.457  20.730  0.00  0.00    +0.000 OA
ATOM     24  C   UNL     1      -1.815  14.122  21.143  0.00  0.00    +0.000 C 
ATOM     25  C   UNL     1      -1.924  13.154  19.949  0.00  0.00    +0.000 C 
ENDBRANCH  17  20
ENDBRANCH  12  14
TORSDOF 2
ENDMDL
MODEL 4
REMARK VINA RESULT:      -7.2      1.065      1.197
REMARK  Name = 
REMARK  2 active torsions:
REMARK  status: ('A' for Active; 'I' for Inactive)
REMARK    1  A    between atoms: C_12  and  C_13
REMARK    2  A    between atoms: C_16  and  N_17
REMARK                            x       y       z     vdW  Elec       q    Type
REMARK                         _______ _______ _______ _____ _____    ______ ____
ROOT
ATOM      1  O   UNL     1       1.032   7.832  21.084  0.00  0.00    +0.000 OA
ATOM      2  C   UNL     1       1.797   7.385  20.254  0.00  0.00    +0.000 C 
ATOM      3  N   UNL     1       2.549   6.226  20.375  0.00  0.00    +0.000 N 
ATOM      4  C   UNL     1       3.314   5.989  19.239  0.00  0.00    +0.000 A 
ATOM      5  C   UNL     1       4.172   4.929  19.032  0.00  0.00    +0.000 A 
ATOM      6  C   UNL     1       4.847   4.881  17.809  0.00  0.00    +0.000 A 
ATOM      7  C   UNL     1       4.644   5.885  16.844  0.00  0.00    +0.000 A 
ATOM      8 CL   UNL     1       5.492   5.791  15.347  0.00  0.00    +0.000 Cl
ATOM      9  C   UNL     1       3.771   6.955  17.074  0.00  0.00    +0.000 A 
ATOM     10  C   UNL     1       3.107   6.995  18.287  0.00  0.00    +0.000 A 
ATOM     11  C   UNL     1       2.145   7.928  18.888  0.00  0.00    +0.000 C 
ATOM     12  C   UNL     1       1.683   9.056  18.328  0.00  0.00    +0.000 C 
ATOM     13  H   UNL     1       2.514   5.648  21.200  0.00  0.00    +0.000 HD
ENDROOT
BRANCH  12  14
ATOM     14  C   UNL     1       0.754   9.987  18.970  0.00  0.00    +0.000 A 
ATOM     15  C   UNL     1      -0.591   9.995  18.608  0.00  0.00    +0.000 A 
ATOM     16  C   UNL     1      -1.486  10.876  19.229  0.00  0.00    +0.000 A 
ATOM     17  C   UNL     1      -1.075  11.778  20.222  0.00  0.00    +0.000 A 
ATOM     18  C   UNL     1       0.287  11.757  20.560  0.00  0.00    +0.000 A 
ATOM     19  C   UNL     1       1.192  10.877  19.948  0.00  0.00    +0.000 A 
BRANCH  17  20
ATOM     20  N   UNL     1      -1.961  12.645  20.824  0.00  0.00    +0.000 N 
ATOM     21  C   UNL     1      -1.673  13.344  22.085  0.00  0.00    +0.000 C 
ATOM     22  C   UNL     1      -2.805  13.085  23.088  0.00  0.00    +0.000 C 
ATOM     23  O   UNL     1      -4.079  13.477  22.548  0.00  0.00    +0.000 OA
ATOM     24  C   UNL     1      -4.362  12.729  21.352  0.00  0.00    +0.000 C 
ATOM     25  C   UNL     1      -3.288  12.941  20.266  0.00  0.00    +0.000 C 
ENDBRANCH  17  20
ENDBRANCH  12  14
TORSDOF 2
ENDMDL
MODEL 5
REMARK VINA RESULT:      -6.9      1.164      1.994
REMARK  Name = 
REMARK  2 active torsions:
REMARK  status: ('A' for Active; 'I' for Inactive)
REMARK    1  A    between atoms: C_12  and  C_13
REMARK    2  A    between atoms: C_16  and  N_17
REMARK                            x       y       z     vdW  Elec       q    Type
REMARK                         _______ _______ _______ _____ _____    ______ ____
ROOT
ATOM      1  O   UNL     1       0.698   8.192  21.307  0.00  0.00    +0.000 OA
ATOM      2  C   UNL     1       1.475   7.731  20.495  0.00  0.00    +0.000 C 
ATOM      3  N   UNL     1       2.181   6.545  20.620  0.00  0.00    +0.000 N 
ATOM      4  C   UNL     1       2.976   6.300  19.507  0.00  0.00    +0.000 A 
ATOM      5  C   UNL     1       3.803   5.213  19.309  0.00  0.00    +0.000 A 
ATOM      6  C   UNL     1       4.517   5.163  18.110  0.00  0.00    +0.000 A 
ATOM      7  C   UNL     1       4.383   6.189  17.157  0.00  0.00    +0.000 A 
ATOM      8 CL   UNL     1       5.278   6.090  15.687  0.00  0.00    +0.000 Cl
ATOM      9  C   UNL     1       3.541   7.286  17.376  0.00  0.00    +0.000 A 
ATOM     10  C   UNL     1       2.837   7.328  18.567  0.00  0.00    +0.000 A 
ATOM     11  C   UNL     1       1.889   8.285  19.152  0.00  0.00    +0.000 C 
ATOM     12  C   UNL     1       1.486   9.438  18.597  0.00  0.00    +0.000 C 
ATOM     13  H   UNL     1       2.098   5.954  21.433  0.00  0.00    +0.000 HD
ENDROOT
BRANCH  12  14
ATOM     14  C   UNL     1       0.568  10.391  19.225  0.00  0.00    +0.000 A 
ATOM     15  C   UNL     1       1.047  11.325  20.141  0.00  0.00    +0.000 A 
ATOM     16  C   UNL     1       0.175  12.245  20.734  0.00  0.00    +0.000 A 
ATOM     17  C   UNL     1      -1.198  12.266  20.442  0.00  0.00    +0.000 A 
ATOM     18  C   UNL     1      -1.656  11.308  19.526  0.00  0.00    +0.000 A 
ATOM     19  C   UNL     1      -0.791  10.383  18.921  0.00  0.00    +0.000 A 
BRANCH  17  20
ATOM     20  N   UNL     1      -2.050  13.173  21.035  0.00  0.00    +0.000 N 
ATOM     21  C   UNL     1      -3.460  12.879  21.329  0.00  0.00    +0.000 C 
ATOM     22  C   UNL     1      -4.352  13.966  20.716  0.00  0.00    +0.000 C 
ATOM     23  O   UNL     1      -3.977  15.273  21.186  0.00  0.00    +0.000 OA
ATOM     24  C   UNL     1      -2.613  15.557  20.825  0.00  0.00    +0.000 C 
ATOM     25  C   UNL     1      -1.629  14.529  21.416  0.00  0.00    +0.000 C 
ENDBRANCH  17  20
ENDBRANCH  12  14
TORSDOF 2
ENDMDL
MODEL 6
REMARK VINA RESULT:      -6.8      0.931      1.095
REMARK  Name = 
REMARK  2 active torsions:
REMARK  status: ('A' for Active; 'I' for Inactive)
REMARK    1  A    between atoms: C_12  and  C_13
REMARK    2  A    between atoms: C_16  and  N_17
REMARK                            x       y       z     vdW  Elec       q    Type
REMARK                         _______ _______ _______ _____ _____    ______ ____
ROOT
ATOM      1  O   UNL     1       1.392   7.459  20.860  0.00  0.00    +0.000 OA
ATOM      2  C   UNL     1       2.154   7.042  20.012  0.00  0.00    +0.000 C 
ATOM      3  N   UNL     1       2.912   5.884  20.093  0.00  0.00    +0.000 N 
ATOM      4  C   UNL     1       3.673   5.687  18.946  0.00  0.00    +0.000 A 
ATOM      5  C   UNL     1       4.535   4.638  18.701  0.00  0.00    +0.000 A 
ATOM      6  C   UNL     1       5.204   4.633  17.475  0.00  0.00    +0.000 A 
ATOM      7  C   UNL     1       4.991   5.666  16.543  0.00  0.00    +0.000 A 
ATOM      8 CL   UNL     1       5.833   5.624  15.039  0.00  0.00    +0.000 Cl
ATOM      9  C   UNL     1       4.115   6.724  16.811  0.00  0.00    +0.000 A 
ATOM     10  C   UNL     1       3.457   6.721  18.028  0.00  0.00    +0.000 A 
ATOM     11  C   UNL     1       2.493   7.631  18.663  0.00  0.00    +0.000 C 
ATOM     12  C   UNL     1       2.023   8.774  18.142  0.00  0.00    +0.000 C 
ATOM     13  H   UNL     1       2.885   5.279  20.899  0.00  0.00    +0.000 HD
ENDROOT
BRANCH  12  14
ATOM     14  C   UNL     1       1.093   9.679  18.818  0.00  0.00    +0.000 A 
ATOM     15  C   UNL     1      -0.260   9.667  18.488  0.00  0.00    +0.000 A 
ATOM     16  C   UNL     1      -1.156  10.524  19.141  0.00  0.00    +0.000 A 
ATOM     17  C   UNL     1      -0.737  11.420  20.136  0.00  0.00    +0.000 A 
ATOM     18  C   UNL     1       0.632  11.420  20.441  0.00  0.00    +0.000 A 
ATOM     19  C   UNL     1       1.538  10.564  19.797  0.00  0.00    +0.000 A 
BRANCH  17  20
ATOM     20  N   UNL     1      -1.625  12.263  20.771  0.00  0.00    +0.000 N 
ATOM     21  C   UNL     1      -2.328  13.355  20.084  0.00  0.00    +0.000 C 
ATOM     22  C   UNL     1      -2.098  14.672  20.838  0.00  0.00    +0.000 C 
ATOM     23  O   UNL     1      -2.508  14.563  22.212  0.00  0.00    +0.000 OA
ATOM     24  C   UNL     1      -1.755  13.530  22.874  0.00  0.00    +0.000 C 
ATOM     25  C   UNL     1      -1.939  12.155  22.202  0.00  0.00    +0.000 C 
ENDBRANCH  17  20
ENDBRANCH  12  14
TORSDOF 2
ENDMDL
MODEL 7
REMARK VINA RESULT:      -6.8      0.975      1.486
REMARK  Name = 
REMARK  2 active torsions:
REMARK  status: ('A' for Active; 'I' for Inactive)
REMARK    1  A    between atoms: C_12  and  C_13
REMARK    2  A    between atoms: C_16  and  N_17
REMARK                            x       y       z     vdW  Elec       q    Type
REMARK                         _______ _______ _______ _____ _____    ______ ____
ROOT
ATOM      1  O   UNL     1       1.043   7.959  21.133  0.00  0.00    +0.000 OA
ATOM      2  C   UNL     1       1.786   7.487  20.297  0.00  0.00    +0.000 C 
ATOM      3  N   UNL     1       2.473   6.287  20.398  0.00  0.00    +0.000 N 
ATOM      4  C   UNL     1       3.230   6.031  19.261  0.00  0.00    +0.000 A 
ATOM      5  C   UNL     1       4.030   4.930  19.035  0.00  0.00    +0.000 A 
ATOM      6  C   UNL     1       4.707   4.870  17.815  0.00  0.00    +0.000 A 
ATOM      7  C   UNL     1       4.565   5.903  16.870  0.00  0.00    +0.000 A 
ATOM      8 CL   UNL     1       5.415   5.793  15.375  0.00  0.00    +0.000 Cl
ATOM      9  C   UNL     1       3.752   7.014  17.118  0.00  0.00    +0.000 A 
ATOM     10  C   UNL     1       3.084   7.066  18.329  0.00  0.00    +0.000 A 
ATOM     11  C   UNL     1       2.171   8.039  18.944  0.00  0.00    +0.000 C 
ATOM     12  C   UNL     1       1.775   9.201  18.406  0.00  0.00    +0.000 C 
ATOM     13  H   UNL     1       2.403   5.695  21.211  0.00  0.00    +0.000 HD
ENDROOT
BRANCH  12  14
ATOM     14  C   UNL     1       0.895  10.168  19.064  0.00  0.00    +0.000 A 
ATOM     15  C   UNL     1      -0.479  10.133  18.835  0.00  0.00    +0.000 A 
ATOM     16  C   UNL     1      -1.326  11.050  19.471  0.00  0.00    +0.000 A 
ATOM     17  C   UNL     1      -0.838  12.030  20.348  0.00  0.00    +0.000 A 
ATOM     18  C   UNL     1       0.550  12.051  20.552  0.00  0.00    +0.000 A 
ATOM     19  C   UNL     1       1.408  11.136  19.924  0.00  0.00    +0.000 A 
BRANCH  17  20
ATOM     20  N   UNL     1      -1.678  12.931  20.967  0.00  0.00    +0.000 N 
ATOM     21  C   UNL     1      -3.092  12.649  21.251  0.00  0.00    +0.000 C 
ATOM     22  C   UNL     1      -3.968  13.766  20.669  0.00  0.00    +0.000 C 
ATOM     23  O   UNL     1      -3.575  15.053  21.178  0.00  0.00    +0.000 OA
ATOM     24  C   UNL     1      -2.207  15.328  20.827  0.00  0.00    +0.000 C 
ATOM     25  C   UNL     1      -1.239  14.269  21.388  0.00  0.00    +0.000 C 
ENDBRANCH  17  20
ENDBRANCH  12  14
TORSDOF 2
ENDMDL
MODEL 8
REMARK VINA RESULT:      -6.6      2.371      3.123
REMARK  Name = 
REMARK  2 active torsions:
REMARK  status: ('A' for Active; 'I' for Inactive)
REMARK    1  A    between atoms: C_12  and  C_13
REMARK    2  A    between atoms: C_16  and  N_17
REMARK                            x       y       z     vdW  Elec       q    Type
REMARK                         _______ _______ _______ _____ _____    ______ ____
ROOT
ATOM      1  O   UNL     1       2.261   9.505  17.831  0.00  0.00    +0.000 OA
ATOM      2  C   UNL     1       2.369   8.398  18.318  0.00  0.00    +0.000 C 
ATOM      3  N   UNL     1       3.083   7.336  17.784  0.00  0.00    +0.000 N 
ATOM      4  C   UNL     1       3.014   6.211  18.597  0.00  0.00    +0.000 A 
ATOM      5  C   UNL     1       3.608   4.988  18.360  0.00  0.00    +0.000 A 
ATOM      6  C   UNL     1       3.411   3.986  19.314  0.00  0.00    +0.000 A 
ATOM      7  C   UNL     1       2.635   4.237  20.461  0.00  0.00    +0.000 A 
ATOM      8 CL   UNL     1       2.417   2.977  21.616  0.00  0.00    +0.000 Cl
ATOM      9  C   UNL     1       2.038   5.483  20.682  0.00  0.00    +0.000 A 
ATOM     10  C   UNL     1       2.238   6.470  19.733  0.00  0.00    +0.000 A 
ATOM     11  C   UNL     1       1.787   7.862  19.605  0.00  0.00    +0.000 C 
ATOM     12  C   UNL     1       0.994   8.518  20.465  0.00  0.00    +0.000 C 
ATOM     13  H   UNL     1       3.584   7.410  16.913  0.00  0.00    +0.000 HD
ENDROOT
BRANCH  12  14
ATOM     14  C   UNL     1       0.529   9.895  20.288  0.00  0.00    +0.000 A 
ATOM     15  C   UNL     1       1.179  10.942  20.937  0.00  0.00    +0.000 A 
ATOM     16  C   UNL     1       0.745  12.262  20.761  0.00  0.00    +0.000 A 
ATOM     17  C   UNL     1      -0.347  12.584  19.942  0.00  0.00    +0.000 A 
ATOM     18  C   UNL     1      -0.991  11.510  19.308  0.00  0.00    +0.000 A 
ATOM     19  C   UNL     1      -0.563  10.184  19.473  0.00  0.00    +0.000 A 
BRANCH  17  20
ATOM     20  N   UNL     1      -0.771  13.885  19.778  0.00  0.00    +0.000 N 
ATOM     21  C   UNL     1      -0.188  14.803  18.788  0.00  0.00    +0.000 C 
ATOM     22  C   UNL     1       0.255  16.097  19.484  0.00  0.00    +0.000 C 
ATOM     23  O   UNL     1      -0.839  16.709  20.190  0.00  0.00    +0.000 OA
ATOM     24  C   UNL     1      -1.344  15.812  21.195  0.00  0.00    +0.000 C 
ATOM     25  C   UNL     1      -1.839  14.483  20.591  0.00  0.00    +0.000 C 
ENDBRANCH  17  20
ENDBRANCH  12  14
TORSDOF 2
ENDMDL
MODEL 9
REMARK VINA RESULT:      -6.6      3.694      8.888
REMARK  Name = 
REMARK  2 active torsions:
REMARK  status: ('A' for Active; 'I' for Inactive)
REMARK    1  A    between atoms: C_12  and  C_13
REMARK    2  A    between atoms: C_16  and  N_17
REMARK                            x       y       z     vdW  Elec       q    Type
REMARK                         _______ _______ _______ _____ _____    ______ ____
ROOT
ATOM      1  O   UNL     1       0.583   9.183  17.711  0.00  0.00    +0.000 OA
ATOM      2  C   UNL     1       0.266  10.024  18.527  0.00  0.00    +0.000 C 
ATOM      3  N   UNL     1      -0.354  11.234  18.255  0.00  0.00    +0.000 N 
ATOM      4  C   UNL     1      -0.590  11.963  19.415  0.00  0.00    +0.000 A 
ATOM      5  C   UNL     1      -1.186  13.204  19.500  0.00  0.00    +0.000 A 
ATOM      6  C   UNL     1      -1.329  13.760  20.773  0.00  0.00    +0.000 A 
ATOM      7  C   UNL     1      -0.875  13.064  21.909  0.00  0.00    +0.000 A 
ATOM      8 CL   UNL     1      -1.070  13.781  23.464  0.00  0.00    +0.000 Cl
ATOM      9  C   UNL     1      -0.269  11.807  21.803  0.00  0.00    +0.000 A 
ATOM     10  C   UNL     1      -0.132  11.263  20.538  0.00  0.00    +0.000 A 
ATOM     11  C   UNL     1       0.438  10.009  20.028  0.00  0.00    +0.000 C 
ATOM     12  C   UNL     1       1.015   9.047  20.762  0.00  0.00    +0.000 C 
ATOM     13  H   UNL     1      -0.594  11.516  17.317  0.00  0.00    +0.000 HD
ENDROOT
BRANCH  12  14
ATOM     14  C   UNL     1       1.611   7.825  20.219  0.00  0.00    +0.000 A 
ATOM     15  C   UNL     1       1.348   6.594  20.813  0.00  0.00    +0.000 A 
ATOM     16  C   UNL     1       1.906   5.421  20.289  0.00  0.00    +0.000 A 
ATOM     17  C   UNL     1       2.744   5.433  19.164  0.00  0.00    +0.000 A 
ATOM     18  C   UNL     1       3.002   6.688  18.591  0.00  0.00    +0.000 A 
ATOM     19  C   UNL     1       2.446   7.869  19.104  0.00  0.00    +0.000 A 
BRANCH  17  20
ATOM     20  N   UNL     1       3.293   4.275  18.657  0.00  0.00    +0.000 N 
ATOM     21  C   UNL     1       2.775   3.594  17.462  0.00  0.00    +0.000 C 
ATOM     22  C   UNL     1       2.491   2.122  17.790  0.00  0.00    +0.000 C 
ATOM     23  O   UNL     1       3.665   1.467  18.302  0.00  0.00    +0.000 OA
ATOM     24  C   UNL     1       4.109   2.116  19.507  0.00  0.00    +0.000 C 
ATOM     25  C   UNL     1       4.445   3.603  19.277  0.00  0.00    +0.000 C 
ENDBRANCH  17  20
ENDBRANCH  12  14
TORSDOF 2
ENDMDL
