MODEL 1
REMARK VINA RESULT:      -7.7      0.000      0.000
REMARK  Name = 
REMARK  4 active torsions:
REMARK  status: ('A' for Active; 'I' for Inactive)
REMARK    1  A    between atoms: C_1  and  O_2
REMARK    2  A    between atoms: O_2  and  C_3
REMARK    3  A    between atoms: C_6  and  C_7
REMARK    4  A    between atoms: C_19  and  N_20
REMARK                            x       y       z     vdW  Elec       q    Type
REMARK                         _______ _______ _______ _____ _____    ______ ____
ROOT
ATOM      1  C   UNL     1       5.316   4.060  16.463  0.00  0.00    +0.000 A 
ATOM      2  C   UNL     1       3.944   3.851  16.582  0.00  0.00    +0.000 A 
ATOM      3  C   UNL     1       3.157   4.545  17.559  0.00  0.00    +0.000 A 
ATOM      4  C   UNL     1       3.723   5.473  18.460  0.00  0.00    +0.000 A 
ATOM      5  C   UNL     1       5.108   5.636  18.381  0.00  0.00    +0.000 A 
ATOM      6  C   UNL     1       5.879   4.970  17.378  0.00  0.00    +0.000 A 
ENDROOT
BRANCH   4   7
ATOM      7  C   UNL     1       2.800   6.210  19.485  0.00  0.00    +0.000 C 
ATOM      8  O   UNL     1       2.592   5.688  20.577  0.00  0.00    +0.000 OA
ATOM      9  N   UNL     1       2.159   7.469  19.244  0.00  0.00    +0.000 N 
ATOM     10  C   UNL     1       2.098   8.047  17.982  0.00  0.00    +0.000 A 
ATOM     11  N   UNL     1       2.064   9.339  18.038  0.00  0.00    +0.000 NA
ATOM     12  C   UNL     1       1.506   9.572  19.253  0.00  0.00    +0.000 A 
ATOM     13  C   UNL     1       0.924  10.779  19.678  0.00  0.00    +0.000 A 
ATOM     14  C   UNL     1       0.069  10.748  20.765  0.00  0.00    +0.000 A 
ATOM     15  C   UNL     1      -0.096   9.574  21.497  0.00  0.00    +0.000 A 
ATOM     16  C   UNL     1       0.636   8.383  21.185  0.00  0.00    +0.000 A 
ATOM     17  C   UNL     1       1.413   8.392  20.017  0.00  0.00    +0.000 A 
ENDBRANCH   4   7
BRANCH   6  18
ATOM     18  N   UNL     1       7.291   5.294  17.286  0.00  0.00    +0.000 N 
ATOM     19  O   UNL     1       7.614   6.270  16.596  0.00  0.00    +0.000 OA
ATOM     20  O   UNL     1       8.074   4.527  17.863  0.00  0.00    +0.000 OA
ENDBRANCH   6  18
BRANCH   1  22
ATOM     21  C   UNL     1       6.036   3.968  14.173  0.00  0.00    +0.000 C 
ATOM     22  O   UNL     1       6.129   3.522  15.512  0.00  0.00    +0.000 OA
ENDBRANCH   1  22
TORSDOF 3
ENDMDL
MODEL 2
REMARK VINA RESULT:      -7.4      1.863      2.735
REMARK  Name = 
REMARK  4 active torsions:
REMARK  status: ('A' for Active; 'I' for Inactive)
REMARK    1  A    between atoms: C_1  and  O_2
REMARK    2  A    between atoms: O_2  and  C_3
REMARK    3  A    between atoms: C_6  and  C_7
REMARK    4  A    between atoms: C_19  and  N_20
REMARK                            x       y       z     vdW  Elec       q    Type
REMARK                         _______ _______ _______ _____ _____    ______ ____
ROOT
ATOM      1  C   UNL     1       3.427   3.761  17.817  0.00  0.00    +0.000 A 
ATOM      2  C   UNL     1       2.094   4.165  17.813  0.00  0.00    +0.000 A 
ATOM      3  C   UNL     1       1.723   5.542  17.956  0.00  0.00    +0.000 A 
ATOM      4  C   UNL     1       2.681   6.567  18.117  0.00  0.00    +0.000 A 
ATOM      5  C   UNL     1       4.013   6.154  18.182  0.00  0.00    +0.000 A 
ATOM      6  C   UNL     1       4.377   4.783  17.999  0.00  0.00    +0.000 A 
ENDROOT
BRANCH   4   7
ATOM      7  C   UNL     1       2.204   8.051  18.244  0.00  0.00    +0.000 C 
ATOM      8  O   UNL     1       2.338   8.800  17.280  0.00  0.00    +0.000 OA
ATOM      9  N   UNL     1       1.618   8.620  19.421  0.00  0.00    +0.000 N 
ATOM     10  C   UNL     1       1.635   7.974  20.651  0.00  0.00    +0.000 A 
ATOM     11  N   UNL     1       0.612   8.285  21.380  0.00  0.00    +0.000 NA
ATOM     12  C   UNL     1       0.283   9.520  20.923  0.00  0.00    +0.000 A 
ATOM     13  C   UNL     1      -0.526  10.458  21.588  0.00  0.00    +0.000 A 
ATOM     14  C   UNL     1      -0.453  11.782  21.195  0.00  0.00    +0.000 A 
ATOM     15  C   UNL     1       0.300  12.144  20.080  0.00  0.00    +0.000 A 
ATOM     16  C   UNL     1       0.982  11.169  19.282  0.00  0.00    +0.000 A 
ATOM     17  C   UNL     1       0.993   9.847  19.751  0.00  0.00    +0.000 A 
ENDBRANCH   4   7
BRANCH   6  18
ATOM     18  N   UNL     1       5.792   4.461  17.955  0.00  0.00    +0.000 N 
ATOM     19  O   UNL     1       6.371   4.267  19.032  0.00  0.00    +0.000 OA
ATOM     20  O   UNL     1       6.325   4.462  16.837  0.00  0.00    +0.000 OA
ENDBRANCH   6  18
BRANCH   1  22
ATOM     21  C   UNL     1       3.556   1.464  18.507  0.00  0.00    +0.000 C 
ATOM     22  O   UNL     1       3.881   2.496  17.596  0.00  0.00    +0.000 OA
ENDBRANCH   1  22
TORSDOF 3
ENDMDL
MODEL 3
REMARK VINA RESULT:      -7.0      2.797      4.032
REMARK  Name = 
REMARK  4 active torsions:
REMARK  status: ('A' for Active; 'I' for Inactive)
REMARK    1  A    between atoms: C_1  and  O_2
REMARK    2  A    between atoms: O_2  and  C_3
REMARK    3  A    between atoms: C_6  and  C_7
REMARK    4  A    between atoms: C_19  and  N_20
REMARK                            x       y       z     vdW  Elec       q    Type
REMARK                         _______ _______ _______ _____ _____    ______ ____
ROOT
ATOM      1  C   UNL     1       3.610   3.730  18.650  0.00  0.00    +0.000 A 
ATOM      2  C   UNL     1       4.480   4.775  18.351  0.00  0.00    +0.000 A 
ATOM      3  C   UNL     1       4.023   6.130  18.240  0.00  0.00    +0.000 A 
ATOM      4  C   UNL     1       2.668   6.484  18.420  0.00  0.00    +0.000 A 
ATOM      5  C   UNL     1       1.786   5.428  18.659  0.00  0.00    +0.000 A 
ATOM      6  C   UNL     1       2.256   4.085  18.807  0.00  0.00    +0.000 A 
ENDROOT
BRANCH   4   7
ATOM      7  C   UNL     1       2.245   7.985  18.308  0.00  0.00    +0.000 C 
ATOM      8  O   UNL     1       2.486   8.591  17.267  0.00  0.00    +0.000 OA
ATOM      9  N   UNL     1       1.590   8.727  19.345  0.00  0.00    +0.000 N 
ATOM     10  C   UNL     1       1.482   8.254  20.647  0.00  0.00    +0.000 A 
ATOM     11  N   UNL     1       0.418   8.693  21.238  0.00  0.00    +0.000 NA
ATOM     12  C   UNL     1       0.179   9.863  20.594  0.00  0.00    +0.000 A 
ATOM     13  C   UNL     1      -0.641  10.907  21.057  0.00  0.00    +0.000 A 
ATOM     14  C   UNL     1      -0.483  12.163  20.498  0.00  0.00    +0.000 A 
ATOM     15  C   UNL     1       0.372  12.346  19.413  0.00  0.00    +0.000 A 
ATOM     16  C   UNL     1       1.074  11.251  18.813  0.00  0.00    +0.000 A 
ATOM     17  C   UNL     1       0.993  10.006  19.454  0.00  0.00    +0.000 A 
ENDBRANCH   4   7
BRANCH   6  18
ATOM     18  N   UNL     1       1.289   3.068  19.181  0.00  0.00    +0.000 N 
ATOM     19  O   UNL     1       0.747   2.428  18.270  0.00  0.00    +0.000 OA
ATOM     20  O   UNL     1       1.038   2.961  20.389  0.00  0.00    +0.000 OA
ENDBRANCH   6  18
BRANCH   1  22
ATOM     21  C   UNL     1       4.534   2.055  20.103  0.00  0.00    +0.000 C 
ATOM     22  O   UNL     1       3.961   2.432  18.866  0.00  0.00    +0.000 OA
ENDBRANCH   1  22
TORSDOF 3
ENDMDL
MODEL 4
REMARK VINA RESULT:      -6.9      2.168      3.408
REMARK  Name = 
REMARK  4 active torsions:
REMARK  status: ('A' for Active; 'I' for Inactive)
REMARK    1  A    between atoms: C_1  and  O_2
REMARK    2  A    between atoms: O_2  and  C_3
REMARK    3  A    between atoms: C_6  and  C_7
REMARK    4  A    between atoms: C_19  and  N_20
REMARK                            x       y       z     vdW  Elec       q    Type
REMARK                         _______ _______ _______ _____ _____    ______ ____
ROOT
ATOM      1  C   UNL     1       4.233   5.029  17.306  0.00  0.00    +0.000 A 
ATOM      2  C   UNL     1       4.665   6.328  17.050  0.00  0.00    +0.000 A 
ATOM      3  C   UNL     1       3.880   7.470  17.417  0.00  0.00    +0.000 A 
ATOM      4  C   UNL     1       2.623   7.348  18.049  0.00  0.00    +0.000 A 
ATOM      5  C   UNL     1       2.163   6.045  18.249  0.00  0.00    +0.000 A 
ATOM      6  C   UNL     1       2.970   4.912  17.916  0.00  0.00    +0.000 A 
ENDROOT
BRANCH   4   7
ATOM      7  C   UNL     1       1.831   8.639  18.441  0.00  0.00    +0.000 C 
ATOM      8  O   UNL     1       1.576   9.464  17.568  0.00  0.00    +0.000 OA
ATOM      9  N   UNL     1       1.377   8.945  19.765  0.00  0.00    +0.000 N 
ATOM     10  C   UNL     1       1.805   8.239  20.883  0.00  0.00    +0.000 A 
ATOM     11  N   UNL     1       0.909   8.214  21.817  0.00  0.00    +0.000 NA
ATOM     12  C   UNL     1       0.199   9.346  21.581  0.00  0.00    +0.000 A 
ATOM     13  C   UNL     1      -0.663   9.985  22.490  0.00  0.00    +0.000 A 
ATOM     14  C   UNL     1      -1.001  11.306  22.256  0.00  0.00    +0.000 A 
ATOM     15  C   UNL     1      -0.605  11.934  21.078  0.00  0.00    +0.000 A 
ATOM     16  C   UNL     1       0.118  11.236  20.057  0.00  0.00    +0.000 A 
ATOM     17  C   UNL     1       0.550   9.934  20.350  0.00  0.00    +0.000 A 
ENDBRANCH   4   7
BRANCH   6  18
ATOM     18  N   UNL     1       2.468   3.597  18.274  0.00  0.00    +0.000 N 
ATOM     19  O   UNL     1       1.784   2.995  17.436  0.00  0.00    +0.000 OA
ATOM     20  O   UNL     1       2.718   3.203  19.422  0.00  0.00    +0.000 OA
ENDBRANCH   6  18
BRANCH   1  22
ATOM     21  C   UNL     1       5.763   3.788  15.932  0.00  0.00    +0.000 C 
ATOM     22  O   UNL     1       4.944   3.890  17.081  0.00  0.00    +0.000 OA
ENDBRANCH   1  22
TORSDOF 3
ENDMDL
MODEL 5
REMARK VINA RESULT:      -6.8      2.650      7.406
REMARK  Name = 
REMARK  4 active torsions:
REMARK  status: ('A' for Active; 'I' for Inactive)
REMARK    1  A    between atoms: C_1  and  O_2
REMARK    2  A    between atoms: O_2  and  C_3
REMARK    3  A    between atoms: C_6  and  C_7
REMARK    4  A    between atoms: C_19  and  N_20
REMARK                            x       y       z     vdW  Elec       q    Type
REMARK                         _______ _______ _______ _____ _____    ______ ____
ROOT
ATOM      1  C   UNL     1       0.900  10.055  19.641  0.00  0.00    +0.000 A 
ATOM      2  C   UNL     1       1.276   9.839  18.318  0.00  0.00    +0.000 A 
ATOM      3  C   UNL     1       1.867   8.604  17.894  0.00  0.00    +0.000 A 
ATOM      4  C   UNL     1       2.110   7.539  18.789  0.00  0.00    +0.000 A 
ATOM      5  C   UNL     1       1.790   7.779  20.126  0.00  0.00    +0.000 A 
ATOM      6  C   UNL     1       1.164   8.999  20.534  0.00  0.00    +0.000 A 
ENDROOT
BRANCH   4   7
ATOM      7  C   UNL     1       2.738   6.211  18.251  0.00  0.00    +0.000 C 
ATOM      8  O   UNL     1       2.211   5.143  18.554  0.00  0.00    +0.000 OA
ATOM      9  N   UNL     1       3.904   6.139  17.422  0.00  0.00    +0.000 N 
ATOM     10  C   UNL     1       4.739   7.229  17.210  0.00  0.00    +0.000 A 
ATOM     11  N   UNL     1       5.315   7.185  16.052  0.00  0.00    +0.000 NA
ATOM     12  C   UNL     1       5.348   5.855  15.785  0.00  0.00    +0.000 A 
ATOM     13  C   UNL     1       6.165   5.224  14.830  0.00  0.00    +0.000 A 
ATOM     14  C   UNL     1       6.371   3.861  14.940  0.00  0.00    +0.000 A 
ATOM     15  C   UNL     1       5.674   3.120  15.891  0.00  0.00    +0.000 A 
ATOM     16  C   UNL     1       4.698   3.722  16.750  0.00  0.00    +0.000 A 
ATOM     17  C   UNL     1       4.578   5.119  16.706  0.00  0.00    +0.000 A 
ENDBRANCH   4   7
BRANCH   6  18
ATOM     18  N   UNL     1       0.750   9.115  21.921  0.00  0.00    +0.000 N 
ATOM     19  O   UNL     1       1.589   9.509  22.741  0.00  0.00    +0.000 OA
ATOM     20  O   UNL     1      -0.404   8.751  22.185  0.00  0.00    +0.000 OA
ENDBRANCH   6  18
BRANCH   1  22
ATOM     21  C   UNL     1      -1.020  11.498  19.605  0.00  0.00    +0.000 C 
ATOM     22  O   UNL     1       0.251  11.152  20.121  0.00  0.00    +0.000 OA
ENDBRANCH   1  22
TORSDOF 3
ENDMDL
MODEL 6
REMARK VINA RESULT:      -6.8      2.820      4.064
REMARK  Name = 
REMARK  4 active torsions:
REMARK  status: ('A' for Active; 'I' for Inactive)
REMARK    1  A    between atoms: C_1  and  O_2
REMARK    2  A    between atoms: O_2  and  C_3
REMARK    3  A    between atoms: C_6  and  C_7
REMARK    4  A    between atoms: C_19  and  N_20
REMARK                            x       y       z     vdW  Elec       q    Type
REMARK                         _______ _______ _______ _____ _____    ______ ____
ROOT
ATOM      1  C   UNL     1       3.575   3.772  19.139  0.00  0.00    +0.000 A 
ATOM      2  C   UNL     1       4.170   4.630  18.217  0.00  0.00    +0.000 A 
ATOM      3  C   UNL     1       3.716   5.978  18.037  0.00  0.00    +0.000 A 
ATOM      4  C   UNL     1       2.638   6.513  18.775  0.00  0.00    +0.000 A 
ATOM      5  C   UNL     1       2.002   5.634  19.655  0.00  0.00    +0.000 A 
ATOM      6  C   UNL     1       2.487   4.304  19.857  0.00  0.00    +0.000 A 
ENDROOT
BRANCH   4   7
ATOM      7  C   UNL     1       2.211   8.000  18.543  0.00  0.00    +0.000 C 
ATOM      8  O   UNL     1       2.485   8.533  17.471  0.00  0.00    +0.000 OA
ATOM      9  N   UNL     1       1.518   8.807  19.503  0.00  0.00    +0.000 N 
ATOM     10  C   UNL     1       1.368   8.426  20.831  0.00  0.00    +0.000 A 
ATOM     11  N   UNL     1       0.282   8.897  21.354  0.00  0.00    +0.000 NA
ATOM     12  C   UNL     1       0.059  10.018  20.621  0.00  0.00    +0.000 A 
ATOM     13  C   UNL     1      -0.782  11.086  20.981  0.00  0.00    +0.000 A 
ATOM     14  C   UNL     1      -0.610  12.300  20.342  0.00  0.00    +0.000 A 
ATOM     15  C   UNL     1       0.280  12.414  19.276  0.00  0.00    +0.000 A 
ATOM     16  C   UNL     1       1.008  11.284  18.778  0.00  0.00    +0.000 A 
ATOM     17  C   UNL     1       0.911  10.087  19.502  0.00  0.00    +0.000 A 
ENDBRANCH   4   7
BRANCH   6  18
ATOM     18  N   UNL     1       1.846   3.500  20.882  0.00  0.00    +0.000 N 
ATOM     19  O   UNL     1       2.318   3.542  22.025  0.00  0.00    +0.000 OA
ATOM     20  O   UNL     1       0.903   2.784  20.515  0.00  0.00    +0.000 OA
ENDBRANCH   6  18
BRANCH   1  22
ATOM     21  C   UNL     1       3.653   1.434  18.596  0.00  0.00    +0.000 C 
ATOM     22  O   UNL     1       3.991   2.513  19.446  0.00  0.00    +0.000 OA
ENDBRANCH   1  22
TORSDOF 3
ENDMDL
MODEL 7
REMARK VINA RESULT:      -6.7      1.083      1.268
REMARK  Name = 
REMARK  4 active torsions:
REMARK  status: ('A' for Active; 'I' for Inactive)
REMARK    1  A    between atoms: C_1  and  O_2
REMARK    2  A    between atoms: O_2  and  C_3
REMARK    3  A    between atoms: C_6  and  C_7
REMARK    4  A    between atoms: C_19  and  N_20
REMARK                            x       y       z     vdW  Elec       q    Type
REMARK                         _______ _______ _______ _____ _____    ______ ____
ROOT
ATOM      1  C   UNL     1       4.616   4.349  17.347  0.00  0.00    +0.000 A 
ATOM      2  C   UNL     1       3.224   4.324  17.301  0.00  0.00    +0.000 A 
ATOM      3  C   UNL     1       2.428   5.244  18.059  0.00  0.00    +0.000 A 
ATOM      4  C   UNL     1       3.002   6.221  18.901  0.00  0.00    +0.000 A 
ATOM      5  C   UNL     1       4.396   6.206  18.993  0.00  0.00    +0.000 A 
ATOM      6  C   UNL     1       5.184   5.311  18.203  0.00  0.00    +0.000 A 
ENDROOT
BRANCH   4   7
ATOM      7  C   UNL     1       2.072   7.207  19.681  0.00  0.00    +0.000 C 
ATOM      8  O   UNL     1       1.664   6.880  20.792  0.00  0.00    +0.000 OA
ATOM      9  N   UNL     1       1.644   8.483  19.190  0.00  0.00    +0.000 N 
ATOM     10  C   UNL     1       1.817   8.871  17.867  0.00  0.00    +0.000 A 
ATOM     11  N   UNL     1       1.954  10.153  17.749  0.00  0.00    +0.000 NA
ATOM     12  C   UNL     1       1.291  10.627  18.834  0.00  0.00    +0.000 A 
ATOM     13  C   UNL     1       0.833  11.944  19.011  0.00  0.00    +0.000 A 
ATOM     14  C   UNL     1      -0.142  12.177  19.963  0.00  0.00    +0.000 A 
ATOM     15  C   UNL     1      -0.555  11.152  20.812  0.00  0.00    +0.000 A 
ATOM     16  C   UNL     1       0.038   9.849  20.764  0.00  0.00    +0.000 A 
ATOM     17  C   UNL     1       0.945   9.593  19.725  0.00  0.00    +0.000 A 
ENDBRANCH   4   7
BRANCH   6  18
ATOM     18  N   UNL     1       6.628   5.448  18.266  0.00  0.00    +0.000 N 
ATOM     19  O   UNL     1       7.158   6.292  17.531  0.00  0.00    +0.000 OA
ATOM     20  O   UNL     1       7.226   4.663  19.014  0.00  0.00    +0.000 OA
ENDBRANCH   6  18
BRANCH   1  22
ATOM     21  C   UNL     1       5.870   4.034  15.322  0.00  0.00    +0.000 C 
ATOM     22  O   UNL     1       5.456   3.583  16.597  0.00  0.00    +0.000 OA
ENDBRANCH   1  22
TORSDOF 3
ENDMDL
MODEL 8
REMARK VINA RESULT:      -6.7      2.003      2.598
REMARK  Name = 
REMARK  4 active torsions:
REMARK  status: ('A' for Active; 'I' for Inactive)
REMARK    1  A    between atoms: C_1  and  O_2
REMARK    2  A    between atoms: O_2  and  C_3
REMARK    3  A    between atoms: C_6  and  C_7
REMARK    4  A    between atoms: C_19  and  N_20
REMARK                            x       y       z     vdW  Elec       q    Type
REMARK                         _______ _______ _______ _____ _____    ______ ____
ROOT
ATOM      1  C   UNL     1       4.500   4.510  17.029  0.00  0.00    +0.000 A 
ATOM      2  C   UNL     1       4.717   5.885  17.038  0.00  0.00    +0.000 A 
ATOM      3  C   UNL     1       3.926   6.768  17.844  0.00  0.00    +0.000 A 
ATOM      4  C   UNL     1       2.879   6.301  18.668  0.00  0.00    +0.000 A 
ATOM      5  C   UNL     1       2.623   4.929  18.612  0.00  0.00    +0.000 A 
ATOM      6  C   UNL     1       3.442   4.050  17.836  0.00  0.00    +0.000 A 
ENDROOT
BRANCH   4   7
ATOM      7  C   UNL     1       2.073   7.320  19.538  0.00  0.00    +0.000 C 
ATOM      8  O   UNL     1       1.755   7.000  20.681  0.00  0.00    +0.000 OA
ATOM      9  N   UNL     1       1.661   8.620  19.098  0.00  0.00    +0.000 N 
ATOM     10  C   UNL     1       1.727   9.014  17.768  0.00  0.00    +0.000 A 
ATOM     11  N   UNL     1       1.913  10.288  17.645  0.00  0.00    +0.000 NA
ATOM     12  C   UNL     1       1.376  10.781  18.790  0.00  0.00    +0.000 A 
ATOM     13  C   UNL     1       0.999  12.116  19.018  0.00  0.00    +0.000 A 
ATOM     14  C   UNL     1       0.129  12.383  20.059  0.00  0.00    +0.000 A 
ATOM     15  C   UNL     1      -0.250  11.369  20.936  0.00  0.00    +0.000 A 
ATOM     16  C   UNL     1       0.274  10.040  20.824  0.00  0.00    +0.000 A 
ATOM     17  C   UNL     1       1.067   9.754  19.703  0.00  0.00    +0.000 A 
ENDBRANCH   4   7
BRANCH   6  18
ATOM     18  N   UNL     1       3.184   2.625  17.934  0.00  0.00    +0.000 N 
ATOM     19  O   UNL     1       2.279   2.154  17.233  0.00  0.00    +0.000 OA
ATOM     20  O   UNL     1       3.858   1.997  18.763  0.00  0.00    +0.000 OA
ENDBRANCH   6  18
BRANCH   1  22
ATOM     21  C   UNL     1       5.981   3.960  15.219  0.00  0.00    +0.000 C 
ATOM     22  O   UNL     1       5.253   3.584  16.372  0.00  0.00    +0.000 OA
ENDBRANCH   1  22
TORSDOF 3
ENDMDL
MODEL 9
REMARK VINA RESULT:      -6.7      2.180      2.849
REMARK  Name = 
REMARK  4 active torsions:
REMARK  status: ('A' for Active; 'I' for Inactive)
REMARK    1  A    between atoms: C_1  and  O_2
REMARK    2  A    between atoms: O_2  and  C_3
REMARK    3  A    between atoms: C_6  and  C_7
REMARK    4  A    between atoms: C_19  and  N_20
REMARK                            x       y       z     vdW  Elec       q    Type
REMARK                         _______ _______ _______ _____ _____    ______ ____
ROOT
ATOM      1  C   UNL     1       3.268   3.627  19.572  0.00  0.00    +0.000 A 
ATOM      2  C   UNL     1       2.030   3.809  20.182  0.00  0.00    +0.000 A 
ATOM      3  C   UNL     1       1.510   5.116  20.460  0.00  0.00    +0.000 A 
ATOM      4  C   UNL     1       2.223   6.293  20.141  0.00  0.00    +0.000 A 
ATOM      5  C   UNL     1       3.490   6.108  19.585  0.00  0.00    +0.000 A 
ATOM      6  C   UNL     1       3.984   4.802  19.275  0.00  0.00    +0.000 A 
ENDROOT
BRANCH   4   7
ATOM      7  C   UNL     1       1.585   7.686  20.452  0.00  0.00    +0.000 C 
ATOM      8  O   UNL     1       1.104   7.881  21.566  0.00  0.00    +0.000 OA
ATOM      9  N   UNL     1       1.508   8.773  19.522  0.00  0.00    +0.000 N 
ATOM     10  C   UNL     1       1.777   8.617  18.167  0.00  0.00    +0.000 A 
ATOM     11  N   UNL     1       2.247   9.699  17.636  0.00  0.00    +0.000 NA
ATOM     12  C   UNL     1       1.731  10.672  18.430  0.00  0.00    +0.000 A 
ATOM     13  C   UNL     1       1.637  12.037  18.109  0.00  0.00    +0.000 A 
ATOM     14  C   UNL     1       0.756  12.822  18.832  0.00  0.00    +0.000 A 
ATOM     15  C   UNL     1       0.089  12.295  19.935  0.00  0.00    +0.000 A 
ATOM     16  C   UNL     1       0.317  10.954  20.385  0.00  0.00    +0.000 A 
ATOM     17  C   UNL     1       1.125  10.135  19.583  0.00  0.00    +0.000 A 
ENDBRANCH   4   7
BRANCH   6  18
ATOM     18  N   UNL     1       5.257   4.708  18.582  0.00  0.00    +0.000 N 
ATOM     19  O   UNL     1       5.240   4.713  17.345  0.00  0.00    +0.000 OA
ATOM     20  O   UNL     1       6.263   4.570  19.291  0.00  0.00    +0.000 OA
ENDBRANCH   6  18
BRANCH   1  22
ATOM     21  C   UNL     1       3.257   1.746  18.078  0.00  0.00    +0.000 C 
ATOM     22  O   UNL     1       3.803   2.436  19.185  0.00  0.00    +0.000 OA
ENDBRANCH   1  22
TORSDOF 3
ENDMDL
