MODEL 1
REMARK VINA RESULT:      -6.6      0.000      0.000
REMARK  Name = 
REMARK  8 active torsions:
REMARK  status: ('A' for Active; 'I' for Inactive)
REMARK    1  A    between atoms: C_1  and  C_2
REMARK    2  A    between atoms: C_5  and  N_6
REMARK    3  A    between atoms: N_6  and  C_14
REMARK    4  A    between atoms: C_7  and  C_9
REMARK    5  A    between atoms: C_14  and  C_15
REMARK    6  A    between atoms: C_14  and  C_24
REMARK    7  A    between atoms: N_17  and  C_18
REMARK    8  A    between atoms: C_31  and  C_32
REMARK                            x       y       z     vdW  Elec       q    Type
REMARK                         _______ _______ _______ _____ _____    ______ ____
ROOT
ATOM      1  C   UNL     1      -0.249  13.094  21.727  0.00  0.00    +0.000 C 
ENDROOT
BRANCH   1   2
ATOM      2  C   UNL     1      -0.077  11.561  21.887  0.00  0.00    +0.000 A 
ATOM      3  C   UNL     1       0.487  10.727  20.928  0.00  0.00    +0.000 A 
ATOM      4  C   UNL     1       0.386   9.341  21.070  0.00  0.00    +0.000 A 
ATOM      5  C   UNL     1      -0.194   8.809  22.208  0.00  0.00    +0.000 A 
ATOM      6  C   UNL     1      -0.604   9.685  23.188  0.00  0.00    +0.000 A 
ATOM      7  N   UNL     1      -0.556  11.030  23.056  0.00  0.00    +0.000 NA
ENDBRANCH   1   2
BRANCH   1   8
ATOM      8  C   UNL     1      -0.956  13.785  22.958  0.00  0.00    +0.000 C 
ATOM      9  O   UNL     1      -0.393  14.626  23.659  0.00  0.00    +0.000 OA
ATOM     10  N   UNL     1      -2.251  13.371  23.207  0.00  0.00    +0.000 N 
ATOM     11  H   UNL     1      -2.528  12.523  22.711  0.00  0.00    +0.000 HD
BRANCH  10  12
ATOM     12  C   UNL     1      -3.152  13.832  24.259  0.00  0.00    +0.000 C 
ATOM     13  C   UNL     1      -3.708  15.239  23.994  0.00  0.00    +0.000 C 
ATOM     14  C   UNL     1      -4.652  15.270  22.794  0.00  0.00    +0.000 C 
ATOM     15  C   UNL     1      -5.810  14.295  22.965  0.00  0.00    +0.000 C 
ATOM     16  C   UNL     1      -5.307  12.881  23.233  0.00  0.00    +0.000 C 
ATOM     17  C   UNL     1      -4.323  12.834  24.408  0.00  0.00    +0.000 C 
ENDBRANCH  10  12
ENDBRANCH   1   8
BRANCH   1  18
ATOM     18  N   UNL     1      -0.792  13.584  20.406  0.00  0.00    +0.000 N 
ATOM     19  C   UNL     1      -0.223  14.706  19.740  0.00  0.00    +0.000 C 
ATOM     20  O   UNL     1      -0.506  15.037  18.583  0.00  0.00    +0.000 OA
BRANCH  18  25
ATOM     21  C   UNL     1      -5.320  10.974  17.852  0.00  0.00    +0.000 C 
ATOM     22  C   UNL     1      -4.136  11.647  18.487  0.00  0.00    +0.000 A 
ATOM     23  C   UNL     1      -4.320  12.457  19.607  0.00  0.00    +0.000 A 
ATOM     24  C   UNL     1      -3.230  13.066  20.245  0.00  0.00    +0.000 A 
ATOM     25  C   UNL     1      -1.912  12.866  19.808  0.00  0.00    +0.000 A 
ATOM     26  C   UNL     1      -1.748  12.060  18.668  0.00  0.00    +0.000 A 
ATOM     27  C   UNL     1      -2.841  11.508  17.968  0.00  0.00    +0.000 A 
ATOM     28  C   UNL     1      -2.602  10.816  16.654  0.00  0.00    +0.000 C 
ENDBRANCH  18  25
BRANCH  19  29
ATOM     29  C   UNL     1       0.786  15.516  20.433  0.00  0.00    +0.000 A 
ATOM     30  C   UNL     1       2.148  15.265  20.345  0.00  0.00    +0.000 A 
ATOM     31  S   UNL     1       2.956  16.441  21.292  0.00  0.00    +0.000 S 
ATOM     32  N   UNL     1       1.536  17.212  21.712  0.00  0.00    +0.000 NA
ATOM     33  N   UNL     1       0.467  16.650  21.175  0.00  0.00    +0.000 NA
ENDBRANCH  19  29
ENDBRANCH   1  18
TORSDOF 6
ENDMDL
MODEL 2
REMARK VINA RESULT:      -6.4      2.529      6.088
REMARK  Name = 
REMARK  8 active torsions:
REMARK  status: ('A' for Active; 'I' for Inactive)
REMARK    1  A    between atoms: C_1  and  C_2
REMARK    2  A    between atoms: C_5  and  N_6
REMARK    3  A    between atoms: N_6  and  C_14
REMARK    4  A    between atoms: C_7  and  C_9
REMARK    5  A    between atoms: C_14  and  C_15
REMARK    6  A    between atoms: C_14  and  C_24
REMARK    7  A    between atoms: N_17  and  C_18
REMARK    8  A    between atoms: C_31  and  C_32
REMARK                            x       y       z     vdW  Elec       q    Type
REMARK                         _______ _______ _______ _____ _____    ______ ____
ROOT
ATOM      1  C   UNL     1      -1.282  12.053  19.766  0.00  0.00    +0.000 C 
ENDROOT
BRANCH   1   2
ATOM      2  C   UNL     1      -2.318  11.363  18.839  0.00  0.00    +0.000 A 
ATOM      3  C   UNL     1      -2.040  10.278  18.017  0.00  0.00    +0.000 A 
ATOM      4  C   UNL     1      -2.972   9.879  17.057  0.00  0.00    +0.000 A 
ATOM      5  C   UNL     1      -4.202  10.511  16.993  0.00  0.00    +0.000 A 
ATOM      6  C   UNL     1      -4.473  11.483  17.929  0.00  0.00    +0.000 A 
ATOM      7  N   UNL     1      -3.572  11.915  18.840  0.00  0.00    +0.000 NA
ENDBRANCH   1   2
BRANCH   1   8
ATOM      8  C   UNL     1      -0.527  13.260  19.084  0.00  0.00    +0.000 C 
ATOM      9  O   UNL     1      -0.594  13.486  17.876  0.00  0.00    +0.000 OA
ATOM     10  N   UNL     1       0.231  14.044  19.936  0.00  0.00    +0.000 N 
ATOM     11  H   UNL     1       0.390  13.635  20.858  0.00  0.00    +0.000 HD
BRANCH  10  12
ATOM     12  C   UNL     1       1.023  15.222  19.602  0.00  0.00    +0.000 C 
ATOM     13  C   UNL     1       1.547  15.960  20.842  0.00  0.00    +0.000 C 
ATOM     14  C   UNL     1       2.586  15.141  21.604  0.00  0.00    +0.000 C 
ATOM     15  C   UNL     1       3.761  14.755  20.714  0.00  0.00    +0.000 C 
ATOM     16  C   UNL     1       3.290  14.020  19.465  0.00  0.00    +0.000 C 
ATOM     17  C   UNL     1       2.212  14.806  18.707  0.00  0.00    +0.000 C 
ENDBRANCH  10  12
ENDBRANCH   1   8
BRANCH   1  18
ATOM     18  N   UNL     1      -0.345  11.149  20.530  0.00  0.00    +0.000 N 
ATOM     19  C   UNL     1      -0.287  11.171  21.951  0.00  0.00    +0.000 C 
ATOM     20  O   UNL     1       0.322  10.335  22.629  0.00  0.00    +0.000 OA
BRANCH  18  25
ATOM     21  C   UNL     1       3.263   7.586  17.677  0.00  0.00    +0.000 C 
ATOM     22  C   UNL     1       2.335   8.491  18.438  0.00  0.00    +0.000 A 
ATOM     23  C   UNL     1       2.131   9.799  17.999  0.00  0.00    +0.000 A 
ATOM     24  C   UNL     1       1.242  10.654  18.664  0.00  0.00    +0.000 A 
ATOM     25  C   UNL     1       0.499  10.228  19.775  0.00  0.00    +0.000 A 
ATOM     26  C   UNL     1       0.730   8.912  20.213  0.00  0.00    +0.000 A 
ATOM     27  C   UNL     1       1.681   8.068  19.603  0.00  0.00    +0.000 A 
ATOM     28  C   UNL     1       2.009   6.745  20.239  0.00  0.00    +0.000 C 
ENDBRANCH  18  25
BRANCH  19  29
ATOM     29  C   UNL     1      -1.013  12.216  22.683  0.00  0.00    +0.000 A 
ATOM     30  C   UNL     1      -2.323  12.067  23.115  0.00  0.00    +0.000 A 
ATOM     31  S   UNL     1      -2.772  13.508  23.923  0.00  0.00    +0.000 S 
ATOM     32  N   UNL     1      -1.270  14.205  23.710  0.00  0.00    +0.000 NA
ATOM     33  N   UNL     1      -0.423  13.416  23.072  0.00  0.00    +0.000 NA
ENDBRANCH  19  29
ENDBRANCH   1  18
TORSDOF 6
ENDMDL
MODEL 3
REMARK VINA RESULT:      -6.3      1.727      2.057
REMARK  Name = 
REMARK  8 active torsions:
REMARK  status: ('A' for Active; 'I' for Inactive)
REMARK    1  A    between atoms: C_1  and  C_2
REMARK    2  A    between atoms: C_5  and  N_6
REMARK    3  A    between atoms: N_6  and  C_14
REMARK    4  A    between atoms: C_7  and  C_9
REMARK    5  A    between atoms: C_14  and  C_15
REMARK    6  A    between atoms: C_14  and  C_24
REMARK    7  A    between atoms: N_17  and  C_18
REMARK    8  A    between atoms: C_31  and  C_32
REMARK                            x       y       z     vdW  Elec       q    Type
REMARK                         _______ _______ _______ _____ _____    ______ ____
ROOT
ATOM      1  C   UNL     1       0.289  11.407  21.250  0.00  0.00    +0.000 C 
ENDROOT
BRANCH   1   2
ATOM      2  C   UNL     1       0.680   9.964  20.835  0.00  0.00    +0.000 A 
ATOM      3  C   UNL     1       0.517   8.842  21.640  0.00  0.00    +0.000 A 
ATOM      4  C   UNL     1       1.108   7.632  21.268  0.00  0.00    +0.000 A 
ATOM      5  C   UNL     1       1.774   7.537  20.059  0.00  0.00    +0.000 A 
ATOM      6  C   UNL     1       1.777   8.644  19.241  0.00  0.00    +0.000 A 
ATOM      7  N   UNL     1       1.249   9.837  19.596  0.00  0.00    +0.000 NA
ENDBRANCH   1   2
BRANCH   1   8
ATOM      8  C   UNL     1      -0.604  11.473  22.550  0.00  0.00    +0.000 C 
ATOM      9  O   UNL     1      -0.785  10.498  23.279  0.00  0.00    +0.000 OA
ATOM     10  N   UNL     1      -1.185  12.701  22.809  0.00  0.00    +0.000 N 
ATOM     11  H   UNL     1      -1.150  13.359  22.030  0.00  0.00    +0.000 HD
BRANCH  10  12
ATOM     12  C   UNL     1      -2.045  13.066  23.930  0.00  0.00    +0.000 C 
ATOM     13  C   UNL     1      -2.268  14.581  24.042  0.00  0.00    +0.000 C 
ATOM     14  C   UNL     1      -3.090  15.131  22.878  0.00  0.00    +0.000 C 
ATOM     15  C   UNL     1      -4.438  14.431  22.762  0.00  0.00    +0.000 C 
ATOM     16  C   UNL     1      -4.269  12.920  22.651  0.00  0.00    +0.000 C 
ATOM     17  C   UNL     1      -3.409  12.353  23.787  0.00  0.00    +0.000 C 
ENDBRANCH  10  12
ENDBRANCH   1   8
BRANCH   1  18
ATOM     18  N   UNL     1      -0.221  12.314  20.157  0.00  0.00    +0.000 N 
ATOM     19  C   UNL     1       0.480  13.495  19.784  0.00  0.00    +0.000 C 
ATOM     20  O   UNL     1       0.209  14.171  18.785  0.00  0.00    +0.000 OA
BRANCH  18  25
ATOM     21  C   UNL     1      -5.114  11.104  17.250  0.00  0.00    +0.000 C 
ATOM     22  C   UNL     1      -3.835  11.412  17.977  0.00  0.00    +0.000 A 
ATOM     23  C   UNL     1      -3.864  12.213  19.118  0.00  0.00    +0.000 A 
ATOM     24  C   UNL     1      -2.694  12.485  19.840  0.00  0.00    +0.000 A 
ATOM     25  C   UNL     1      -1.454  11.944  19.468  0.00  0.00    +0.000 A 
ATOM     26  C   UNL     1      -1.441  11.154  18.306  0.00  0.00    +0.000 A 
ATOM     27  C   UNL     1      -2.595  10.939  17.525  0.00  0.00    +0.000 A 
ATOM     28  C   UNL     1      -2.469  10.242  16.197  0.00  0.00    +0.000 C 
ENDBRANCH  18  25
BRANCH  19  29
ATOM     29  C   UNL     1       1.619  13.939  20.597  0.00  0.00    +0.000 A 
ATOM     30  C   UNL     1       2.924  13.956  20.126  0.00  0.00    +0.000 A 
ATOM     31  S   UNL     1       3.923  14.546  21.384  0.00  0.00    +0.000 S 
ATOM     32  N   UNL     1       2.637  14.781  22.422  0.00  0.00    +0.000 NA
ATOM     33  N   UNL     1       1.475  14.454  21.882  0.00  0.00    +0.000 NA
ENDBRANCH  19  29
ENDBRANCH   1  18
TORSDOF 6
ENDMDL
MODEL 4
REMARK VINA RESULT:      -6.2      2.214      5.517
REMARK  Name = 
REMARK  8 active torsions:
REMARK  status: ('A' for Active; 'I' for Inactive)
REMARK    1  A    between atoms: C_1  and  C_2
REMARK    2  A    between atoms: C_5  and  N_6
REMARK    3  A    between atoms: N_6  and  C_14
REMARK    4  A    between atoms: C_7  and  C_9
REMARK    5  A    between atoms: C_14  and  C_15
REMARK    6  A    between atoms: C_14  and  C_24
REMARK    7  A    between atoms: N_17  and  C_18
REMARK    8  A    between atoms: C_31  and  C_32
REMARK                            x       y       z     vdW  Elec       q    Type
REMARK                         _______ _______ _______ _____ _____    ______ ____
ROOT
ATOM      1  C   UNL     1      -1.988  13.834  20.298  0.00  0.00    +0.000 C 
ENDROOT
BRANCH   1   2
ATOM      2  C   UNL     1      -2.371  14.720  21.513  0.00  0.00    +0.000 A 
ATOM      3  C   UNL     1      -1.866  14.555  22.798  0.00  0.00    +0.000 A 
ATOM      4  C   UNL     1      -2.443  15.251  23.863  0.00  0.00    +0.000 A 
ATOM      5  C   UNL     1      -3.453  16.165  23.618  0.00  0.00    +0.000 A 
ATOM      6  C   UNL     1      -3.810  16.388  22.307  0.00  0.00    +0.000 A 
ATOM      7  N   UNL     1      -3.297  15.698  21.264  0.00  0.00    +0.000 NA
ENDBRANCH   1   2
BRANCH   1   8
ATOM      8  C   UNL     1      -2.993  12.645  20.038  0.00  0.00    +0.000 C 
ATOM      9  O   UNL     1      -3.679  12.151  20.933  0.00  0.00    +0.000 OA
ATOM     10  N   UNL     1      -3.043  12.184  18.736  0.00  0.00    +0.000 N 
ATOM     11  H   UNL     1      -2.281  12.511  18.141  0.00  0.00    +0.000 HD
BRANCH  10  12
ATOM     12  C   UNL     1      -3.875  11.114  18.196  0.00  0.00    +0.000 C 
ATOM     13  C   UNL     1      -4.449  11.446  16.811  0.00  0.00    +0.000 C 
ATOM     14  C   UNL     1      -3.364  11.514  15.738  0.00  0.00    +0.000 C 
ATOM     15  C   UNL     1      -2.572  10.216  15.656  0.00  0.00    +0.000 C 
ATOM     16  C   UNL     1      -1.983   9.842  17.012  0.00  0.00    +0.000 C 
ATOM     17  C   UNL     1      -3.049   9.811  18.114  0.00  0.00    +0.000 C 
ENDBRANCH  10  12
ENDBRANCH   1   8
BRANCH   1  18
ATOM     18  N   UNL     1      -0.546  13.397  20.203  0.00  0.00    +0.000 N 
ATOM     19  C   UNL     1       0.496  14.328  19.932  0.00  0.00    +0.000 C 
ATOM     20  O   UNL     1       1.700  14.060  20.022  0.00  0.00    +0.000 OA
BRANCH  18  25
ATOM     21  C   UNL     1       0.991   7.859  21.105  0.00  0.00    +0.000 C 
ATOM     22  C   UNL     1       0.597   9.294  20.901  0.00  0.00    +0.000 A 
ATOM     23  C   UNL     1       0.778   9.889  19.652  0.00  0.00    +0.000 A 
ATOM     24  C   UNL     1       0.383  11.214  19.420  0.00  0.00    +0.000 A 
ATOM     25  C   UNL     1      -0.234  11.987  20.414  0.00  0.00    +0.000 A 
ATOM     26  C   UNL     1      -0.393  11.376  21.671  0.00  0.00    +0.000 A 
ATOM     27  C   UNL     1       0.073  10.073  21.942  0.00  0.00    +0.000 A 
ATOM     28  C   UNL     1       0.039   9.556  23.354  0.00  0.00    +0.000 C 
ENDBRANCH  18  25
BRANCH  19  29
ATOM     29  C   UNL     1       0.149  15.703  19.556  0.00  0.00    +0.000 A 
ATOM     30  C   UNL     1       0.362  16.792  20.388  0.00  0.00    +0.000 A 
ATOM     31  S   UNL     1      -0.174  18.192  19.561  0.00  0.00    +0.000 S 
ATOM     32  N   UNL     1      -0.598  17.335  18.193  0.00  0.00    +0.000 NA
ATOM     33  N   UNL     1      -0.352  16.040  18.301  0.00  0.00    +0.000 NA
ENDBRANCH  19  29
ENDBRANCH   1  18
TORSDOF 6
ENDMDL
MODEL 5
REMARK VINA RESULT:      -6.1      1.565      2.175
REMARK  Name = 
REMARK  8 active torsions:
REMARK  status: ('A' for Active; 'I' for Inactive)
REMARK    1  A    between atoms: C_1  and  C_2
REMARK    2  A    between atoms: C_5  and  N_6
REMARK    3  A    between atoms: N_6  and  C_14
REMARK    4  A    between atoms: C_7  and  C_9
REMARK    5  A    between atoms: C_14  and  C_15
REMARK    6  A    between atoms: C_14  and  C_24
REMARK    7  A    between atoms: N_17  and  C_18
REMARK    8  A    between atoms: C_31  and  C_32
REMARK                            x       y       z     vdW  Elec       q    Type
REMARK                         _______ _______ _______ _____ _____    ______ ____
ROOT
ATOM      1  C   UNL     1       0.752  12.644  21.197  0.00  0.00    +0.000 C 
ENDROOT
BRANCH   1   2
ATOM      2  C   UNL     1       0.489  11.220  21.755  0.00  0.00    +0.000 A 
ATOM      3  C   UNL     1       1.078  10.060  21.264  0.00  0.00    +0.000 A 
ATOM      4  C   UNL     1       0.604   8.814  21.678  0.00  0.00    +0.000 A 
ATOM      5  C   UNL     1      -0.387   8.743  22.641  0.00  0.00    +0.000 A 
ATOM      6  C   UNL     1      -0.829   9.924  23.193  0.00  0.00    +0.000 A 
ATOM      7  N   UNL     1      -0.417  11.143  22.780  0.00  0.00    +0.000 NA
ENDBRANCH   1   2
BRANCH   1   8
ATOM      8  C   UNL     1      -0.042  13.778  21.956  0.00  0.00    +0.000 C 
ATOM      9  O   UNL     1       0.521  14.662  22.602  0.00  0.00    +0.000 OA
ATOM     10  N   UNL     1      -1.420  13.705  21.858  0.00  0.00    +0.000 N 
ATOM     11  H   UNL     1      -1.772  12.819  21.494  0.00  0.00    +0.000 HD
BRANCH  10  12
ATOM     12  C   UNL     1      -2.408  14.609  22.437  0.00  0.00    +0.000 C 
ATOM     13  C   UNL     1      -3.744  14.596  21.681  0.00  0.00    +0.000 C 
ATOM     14  C   UNL     1      -4.476  13.264  21.826  0.00  0.00    +0.000 C 
ATOM     15  C   UNL     1      -4.722  12.914  23.288  0.00  0.00    +0.000 C 
ATOM     16  C   UNL     1      -3.421  12.917  24.083  0.00  0.00    +0.000 C 
ATOM     17  C   UNL     1      -2.647  14.231  23.916  0.00  0.00    +0.000 C 
ENDBRANCH  10  12
ENDBRANCH   1   8
BRANCH   1  18
ATOM     18  N   UNL     1       0.695  12.809  19.698  0.00  0.00    +0.000 N 
ATOM     19  C   UNL     1       1.582  13.686  19.014  0.00  0.00    +0.000 C 
ATOM     20  O   UNL     1       1.701  13.724  17.783  0.00  0.00    +0.000 OA
BRANCH  18  25
ATOM     21  C   UNL     1      -3.252   9.519  16.970  0.00  0.00    +0.000 C 
ATOM     22  C   UNL     1      -2.254  10.379  17.691  0.00  0.00    +0.000 A 
ATOM     23  C   UNL     1      -0.908  10.011  17.707  0.00  0.00    +0.000 A 
ATOM     24  C   UNL     1       0.052  10.814  18.338  0.00  0.00    +0.000 A 
ATOM     25  C   UNL     1      -0.287  12.029  18.951  0.00  0.00    +0.000 A 
ATOM     26  C   UNL     1      -1.650  12.375  18.940  0.00  0.00    +0.000 A 
ATOM     27  C   UNL     1      -2.638  11.538  18.381  0.00  0.00    +0.000 A 
ATOM     28  C   UNL     1      -4.090  11.881  18.571  0.00  0.00    +0.000 C 
ENDBRANCH  18  25
BRANCH  19  29
ATOM     29  C   UNL     1       2.443  14.585  19.791  0.00  0.00    +0.000 A 
ATOM     30  C   UNL     1       2.210  15.948  19.901  0.00  0.00    +0.000 A 
ATOM     31  S   UNL     1       3.439  16.608  20.895  0.00  0.00    +0.000 S 
ATOM     32  N   UNL     1       4.155  15.122  21.154  0.00  0.00    +0.000 NA
ATOM     33  N   UNL     1       3.522  14.133  20.546  0.00  0.00    +0.000 NA
ENDBRANCH  19  29
ENDBRANCH   1  18
TORSDOF 6
ENDMDL
MODEL 6
REMARK VINA RESULT:      -6.1      1.570      1.986
REMARK  Name = 
REMARK  8 active torsions:
REMARK  status: ('A' for Active; 'I' for Inactive)
REMARK    1  A    between atoms: C_1  and  C_2
REMARK    2  A    between atoms: C_5  and  N_6
REMARK    3  A    between atoms: N_6  and  C_14
REMARK    4  A    between atoms: C_7  and  C_9
REMARK    5  A    between atoms: C_14  and  C_15
REMARK    6  A    between atoms: C_14  and  C_24
REMARK    7  A    between atoms: N_17  and  C_18
REMARK    8  A    between atoms: C_31  and  C_32
REMARK                            x       y       z     vdW  Elec       q    Type
REMARK                         _______ _______ _______ _____ _____    ______ ____
ROOT
ATOM      1  C   UNL     1      -0.549  13.416  22.118  0.00  0.00    +0.000 C 
ENDROOT
BRANCH   1   2
ATOM      2  C   UNL     1      -0.379  11.880  21.985  0.00  0.00    +0.000 A 
ATOM      3  C   UNL     1      -0.171  11.210  20.785  0.00  0.00    +0.000 A 
ATOM      4  C   UNL     1      -0.260   9.817  20.744  0.00  0.00    +0.000 A 
ATOM      5  C   UNL     1      -0.467   9.109  21.914  0.00  0.00    +0.000 A 
ATOM      6  C   UNL     1      -0.522   9.820  23.092  0.00  0.00    +0.000 A 
ATOM      7  N   UNL     1      -0.480  11.169  23.153  0.00  0.00    +0.000 NA
ENDBRANCH   1   2
BRANCH   1   8
ATOM      8  C   UNL     1      -1.253  13.862  23.459  0.00  0.00    +0.000 C 
ATOM      9  O   UNL     1      -0.755  14.688  24.224  0.00  0.00    +0.000 OA
ATOM     10  N   UNL     1      -2.464  13.251  23.727  0.00  0.00    +0.000 N 
ATOM     11  H   UNL     1      -2.663  12.434  23.148  0.00  0.00    +0.000 HD
BRANCH  10  12
ATOM     12  C   UNL     1      -3.342  13.465  24.872  0.00  0.00    +0.000 C 
ATOM     13  C   UNL     1      -3.833  14.915  24.985  0.00  0.00    +0.000 C 
ATOM     14  C   UNL     1      -4.776  15.295  23.845  0.00  0.00    +0.000 C 
ATOM     15  C   UNL     1      -5.977  14.360  23.775  0.00  0.00    +0.000 C 
ATOM     16  C   UNL     1      -5.539  12.904  23.665  0.00  0.00    +0.000 C 
ATOM     17  C   UNL     1      -4.556  12.514  24.776  0.00  0.00    +0.000 C 
ENDBRANCH  10  12
ENDBRANCH   1   8
BRANCH   1  18
ATOM     18  N   UNL     1      -1.095  14.146  20.915  0.00  0.00    +0.000 N 
ATOM     19  C   UNL     1      -0.230  14.725  19.944  0.00  0.00    +0.000 C 
ATOM     20  O   UNL     1      -0.616  15.172  18.857  0.00  0.00    +0.000 OA
BRANCH  18  25
ATOM     21  C   UNL     1      -6.821  14.568  19.975  0.00  0.00    +0.000 C 
ATOM     22  C   UNL     1      -5.341  14.435  20.202  0.00  0.00    +0.000 A 
ATOM     23  C   UNL     1      -4.585  15.565  20.515  0.00  0.00    +0.000 A 
ATOM     24  C   UNL     1      -3.211  15.466  20.771  0.00  0.00    +0.000 A 
ATOM     25  C   UNL     1      -2.542  14.233  20.753  0.00  0.00    +0.000 A 
ATOM     26  C   UNL     1      -3.317  13.108  20.420  0.00  0.00    +0.000 A 
ATOM     27  C   UNL     1      -4.682  13.203  20.081  0.00  0.00    +0.000 A 
ATOM     28  C   UNL     1      -5.398  11.990  19.553  0.00  0.00    +0.000 C 
ENDBRANCH  18  25
BRANCH  19  29
ATOM     29  C   UNL     1       1.212  14.777  20.207  0.00  0.00    +0.000 A 
ATOM     30  C   UNL     1       1.806  15.769  20.974  0.00  0.00    +0.000 A 
ATOM     31  S   UNL     1       3.487  15.447  21.031  0.00  0.00    +0.000 S 
ATOM     32  N   UNL     1       3.345  14.054  20.122  0.00  0.00    +0.000 NA
ATOM     33  N   UNL     1       2.096  13.792  19.774  0.00  0.00    +0.000 NA
ENDBRANCH  19  29
ENDBRANCH   1  18
TORSDOF 6
ENDMDL
MODEL 7
REMARK VINA RESULT:      -6.0      2.256      4.983
REMARK  Name = 
REMARK  8 active torsions:
REMARK  status: ('A' for Active; 'I' for Inactive)
REMARK    1  A    between atoms: C_1  and  C_2
REMARK    2  A    between atoms: C_5  and  N_6
REMARK    3  A    between atoms: N_6  and  C_14
REMARK    4  A    between atoms: C_7  and  C_9
REMARK    5  A    between atoms: C_14  and  C_15
REMARK    6  A    between atoms: C_14  and  C_24
REMARK    7  A    between atoms: N_17  and  C_18
REMARK    8  A    between atoms: C_31  and  C_32
REMARK                            x       y       z     vdW  Elec       q    Type
REMARK                         _______ _______ _______ _____ _____    ______ ____
ROOT
ATOM      1  C   UNL     1      -1.539  12.743  19.614  0.00  0.00    +0.000 C 
ENDROOT
BRANCH   1   2
ATOM      2  C   UNL     1      -2.143  12.668  21.040  0.00  0.00    +0.000 A 
ATOM      3  C   UNL     1      -1.551  12.011  22.113  0.00  0.00    +0.000 A 
ATOM      4  C   UNL     1      -2.279  11.806  23.287  0.00  0.00    +0.000 A 
ATOM      5  C   UNL     1      -3.552  12.336  23.406  0.00  0.00    +0.000 A 
ATOM      6  C   UNL     1      -4.028  13.099  22.364  0.00  0.00    +0.000 A 
ATOM      7  N   UNL     1      -3.360  13.277  21.202  0.00  0.00    +0.000 NA
ENDBRANCH   1   2
BRANCH   1   8
ATOM      8  C   UNL     1      -2.315  11.871  18.550  0.00  0.00    +0.000 C 
ATOM      9  O   UNL     1      -1.743  11.283  17.633  0.00  0.00    +0.000 OA
ATOM     10  N   UNL     1      -3.688  11.821  18.710  0.00  0.00    +0.000 N 
ATOM     11  H   UNL     1      -4.064  12.517  19.356  0.00  0.00    +0.000 HD
BRANCH  10  12
ATOM     12  C   UNL     1      -4.659  11.096  17.898  0.00  0.00    +0.000 C 
ATOM     13  C   UNL     1      -5.784  10.468  18.732  0.00  0.00    +0.000 C 
ATOM     14  C   UNL     1      -6.691  11.521  19.365  0.00  0.00    +0.000 C 
ATOM     15  C   UNL     1      -7.298  12.443  18.315  0.00  0.00    +0.000 C 
ATOM     16  C   UNL     1      -6.217  13.091  17.457  0.00  0.00    +0.000 C 
ATOM     17  C   UNL     1      -5.267  12.052  16.847  0.00  0.00    +0.000 C 
ENDBRANCH  10  12
ENDBRANCH   1   8
BRANCH   1  18
ATOM     18  N   UNL     1      -0.042  12.588  19.500  0.00  0.00    +0.000 N 
ATOM     19  C   UNL     1       0.832  13.703  19.629  0.00  0.00    +0.000 C 
ATOM     20  O   UNL     1       2.061  13.608  19.725  0.00  0.00    +0.000 OA
BRANCH  18  25
ATOM     21  C   UNL     1       2.395   7.367  18.691  0.00  0.00    +0.000 C 
ATOM     22  C   UNL     1       1.766   8.711  18.929  0.00  0.00    +0.000 A 
ATOM     23  C   UNL     1       1.889   9.711  17.964  0.00  0.00    +0.000 A 
ATOM     24  C   UNL     1       1.280  10.962  18.140  0.00  0.00    +0.000 A 
ATOM     25  C   UNL     1       0.501  11.253  19.269  0.00  0.00    +0.000 A 
ATOM     26  C   UNL     1       0.403  10.239  20.238  0.00  0.00    +0.000 A 
ATOM     27  C   UNL     1       1.076   9.006  20.113  0.00  0.00    +0.000 A 
ATOM     28  C   UNL     1       1.079   8.046  21.271  0.00  0.00    +0.000 C 
ENDBRANCH  18  25
BRANCH  19  29
ATOM     29  C   UNL     1       0.264  15.055  19.690  0.00  0.00    +0.000 A 
ATOM     30  C   UNL     1       0.152  15.777  20.869  0.00  0.00    +0.000 A 
ATOM     31  S   UNL     1      -0.549  17.292  20.489  0.00  0.00    +0.000 S 
ATOM     32  N   UNL     1      -0.623  16.951  18.856  0.00  0.00    +0.000 NA
ATOM     33  N   UNL     1      -0.138  15.758  18.557  0.00  0.00    +0.000 NA
ENDBRANCH  19  29
ENDBRANCH   1  18
TORSDOF 6
ENDMDL
MODEL 8
REMARK VINA RESULT:      -6.0      1.059      1.818
REMARK  Name = 
REMARK  8 active torsions:
REMARK  status: ('A' for Active; 'I' for Inactive)
REMARK    1  A    between atoms: C_1  and  C_2
REMARK    2  A    between atoms: C_5  and  N_6
REMARK    3  A    between atoms: N_6  and  C_14
REMARK    4  A    between atoms: C_7  and  C_9
REMARK    5  A    between atoms: C_14  and  C_15
REMARK    6  A    between atoms: C_14  and  C_24
REMARK    7  A    between atoms: N_17  and  C_18
REMARK    8  A    between atoms: C_31  and  C_32
REMARK                            x       y       z     vdW  Elec       q    Type
REMARK                         _______ _______ _______ _____ _____    ______ ____
ROOT
ATOM      1  C   UNL     1      -0.076  13.245  21.629  0.00  0.00    +0.000 C 
ENDROOT
BRANCH   1   2
ATOM      2  C   UNL     1      -0.056  11.728  21.954  0.00  0.00    +0.000 A 
ATOM      3  C   UNL     1      -1.015  11.073  22.718  0.00  0.00    +0.000 A 
ATOM      4  C   UNL     1      -0.786   9.763  23.142  0.00  0.00    +0.000 A 
ATOM      5  C   UNL     1       0.352   9.096  22.725  0.00  0.00    +0.000 A 
ATOM      6  C   UNL     1       1.193   9.749  21.852  0.00  0.00    +0.000 A 
ATOM      7  N   UNL     1       1.015  11.030  21.460  0.00  0.00    +0.000 NA
ENDBRANCH   1   2
BRANCH   1   8
ATOM      8  C   UNL     1      -0.896  14.105  22.669  0.00  0.00    +0.000 C 
ATOM      9  O   UNL     1      -0.357  14.735  23.578  0.00  0.00    +0.000 OA
ATOM     10  N   UNL     1      -2.268  14.093  22.498  0.00  0.00    +0.000 N 
ATOM     11  H   UNL     1      -2.610  13.369  21.864  0.00  0.00    +0.000 HD
BRANCH  10  12
ATOM     12  C   UNL     1      -3.276  14.792  23.288  0.00  0.00    +0.000 C 
ATOM     13  C   UNL     1      -4.627  14.905  22.567  0.00  0.00    +0.000 C 
ATOM     14  C   UNL     1      -5.307  13.548  22.400  0.00  0.00    +0.000 C 
ATOM     15  C   UNL     1      -5.508  12.852  23.740  0.00  0.00    +0.000 C 
ATOM     16  C   UNL     1      -4.191  12.718  24.496  0.00  0.00    +0.000 C 
ATOM     17  C   UNL     1      -3.469  14.064  24.637  0.00  0.00    +0.000 C 
ENDBRANCH  10  12
ENDBRANCH   1   8
BRANCH   1  18
ATOM     18  N   UNL     1      -0.377  13.631  20.202  0.00  0.00    +0.000 N 
ATOM     19  C   UNL     1       0.133  14.833  19.634  0.00  0.00    +0.000 C 
ATOM     20  O   UNL     1       0.071  15.107  18.430  0.00  0.00    +0.000 OA
BRANCH  18  25
ATOM     21  C   UNL     1      -3.624   9.832  17.224  0.00  0.00    +0.000 C 
ATOM     22  C   UNL     1      -2.808  10.817  18.011  0.00  0.00    +0.000 A 
ATOM     23  C   UNL     1      -1.415  10.761  17.956  0.00  0.00    +0.000 A 
ATOM     24  C   UNL     1      -0.627  11.691  18.648  0.00  0.00    +0.000 A 
ATOM     25  C   UNL     1      -1.197  12.731  19.398  0.00  0.00    +0.000 A 
ATOM     26  C   UNL     1      -2.601  12.761  19.455  0.00  0.00    +0.000 A 
ATOM     27  C   UNL     1      -3.405  11.785  18.832  0.00  0.00    +0.000 A 
ATOM     28  C   UNL     1      -4.886  11.772  19.092  0.00  0.00    +0.000 C 
ENDBRANCH  18  25
BRANCH  19  29
ATOM     29  C   UNL     1       0.809  15.805  20.502  0.00  0.00    +0.000 A 
ATOM     30  C   UNL     1       0.211  16.982  20.929  0.00  0.00    +0.000 A 
ATOM     31  S   UNL     1       1.337  17.808  21.918  0.00  0.00    +0.000 S 
ATOM     32  N   UNL     1       2.486  16.605  21.776  0.00  0.00    +0.000 NA
ATOM     33  N   UNL     1       2.079  15.591  21.031  0.00  0.00    +0.000 NA
ENDBRANCH  19  29
ENDBRANCH   1  18
TORSDOF 6
ENDMDL
MODEL 9
REMARK VINA RESULT:      -6.0      2.829      5.308
REMARK  Name = 
REMARK  8 active torsions:
REMARK  status: ('A' for Active; 'I' for Inactive)
REMARK    1  A    between atoms: C_1  and  C_2
REMARK    2  A    between atoms: C_5  and  N_6
REMARK    3  A    between atoms: N_6  and  C_14
REMARK    4  A    between atoms: C_7  and  C_9
REMARK    5  A    between atoms: C_14  and  C_15
REMARK    6  A    between atoms: C_14  and  C_24
REMARK    7  A    between atoms: N_17  and  C_18
REMARK    8  A    between atoms: C_31  and  C_32
REMARK                            x       y       z     vdW  Elec       q    Type
REMARK                         _______ _______ _______ _____ _____    ______ ____
ROOT
ATOM      1  C   UNL     1      -2.451  12.387  20.344  0.00  0.00    +0.000 C 
ENDROOT
BRANCH   1   2
ATOM      2  C   UNL     1      -2.780  11.813  18.941  0.00  0.00    +0.000 A 
ATOM      3  C   UNL     1      -1.841  11.588  17.941  0.00  0.00    +0.000 A 
ATOM      4  C   UNL     1      -2.267  11.287  16.646  0.00  0.00    +0.000 A 
ATOM      5  C   UNL     1      -3.617  11.128  16.388  0.00  0.00    +0.000 A 
ATOM      6  C   UNL     1      -4.487  11.221  17.450  0.00  0.00    +0.000 A 
ATOM      7  N   UNL     1      -4.104  11.552  18.703  0.00  0.00    +0.000 NA
ENDBRANCH   1   2
BRANCH   1   8
ATOM      8  C   UNL     1      -3.656  13.161  21.010  0.00  0.00    +0.000 C 
ATOM      9  O   UNL     1      -3.749  13.317  22.228  0.00  0.00    +0.000 OA
ATOM     10  N   UNL     1      -4.610  13.642  20.133  0.00  0.00    +0.000 N 
ATOM     11  H   UNL     1      -4.546  13.264  19.187  0.00  0.00    +0.000 HD
BRANCH  10  12
ATOM     12  C   UNL     1      -5.818  14.397  20.450  0.00  0.00    +0.000 C 
ATOM     13  C   UNL     1      -6.293  15.278  19.287  0.00  0.00    +0.000 C 
ATOM     14  C   UNL     1      -6.791  14.453  18.102  0.00  0.00    +0.000 C 
ATOM     15  C   UNL     1      -7.915  13.508  18.509  0.00  0.00    +0.000 C 
ATOM     16  C   UNL     1      -7.491  12.611  19.667  0.00  0.00    +0.000 C 
ATOM     17  C   UNL     1      -6.946  13.419  20.851  0.00  0.00    +0.000 C 
ENDBRANCH  10  12
ENDBRANCH   1   8
BRANCH   1  18
ATOM     18  N   UNL     1      -1.145  13.131  20.485  0.00  0.00    +0.000 N 
ATOM     19  C   UNL     1      -0.002  12.518  21.071  0.00  0.00    +0.000 C 
ATOM     20  O   UNL     1       1.132  13.010  21.048  0.00  0.00    +0.000 OA
BRANCH  18  25
ATOM     21  C   UNL     1      -1.073  18.524  18.306  0.00  0.00    +0.000 C 
ATOM     22  C   UNL     1      -1.117  17.137  18.882  0.00  0.00    +0.000 A 
ATOM     23  C   UNL     1      -0.418  16.106  18.254  0.00  0.00    +0.000 A 
ATOM     24  C   UNL     1      -0.407  14.811  18.790  0.00  0.00    +0.000 A 
ATOM     25  C   UNL     1      -1.069  14.500  19.987  0.00  0.00    +0.000 A 
ATOM     26  C   UNL     1      -1.782  15.548  20.595  0.00  0.00    +0.000 A 
ATOM     27  C   UNL     1      -1.869  16.835  20.026  0.00  0.00    +0.000 A 
ATOM     28  C   UNL     1      -2.801  17.849  20.631  0.00  0.00    +0.000 C 
ENDBRANCH  18  25
BRANCH  19  29
ATOM     29  C   UNL     1      -0.143  11.208  21.718  0.00  0.00    +0.000 A 
ATOM     30  C   UNL     1       0.060  10.009  21.050  0.00  0.00    +0.000 A 
ATOM     31  S   UNL     1      -0.198   8.740  22.169  0.00  0.00    +0.000 S 
ATOM     32  N   UNL     1      -0.505   9.789  23.430  0.00  0.00    +0.000 NA
ATOM     33  N   UNL     1      -0.417  11.060  23.075  0.00  0.00    +0.000 NA
ENDBRANCH  19  29
ENDBRANCH   1  18
TORSDOF 6
ENDMDL
