MODEL 1
REMARK VINA RESULT:      -7.0      0.000      0.000
REMARK  Name = 
REMARK  9 active torsions:
REMARK  status: ('A' for Active; 'I' for Inactive)
REMARK    1  A    between atoms: C_1  and  O_2
REMARK    2  A    between atoms: O_2  and  C_3
REMARK    3  A    between atoms: C_7  and  C_8
REMARK    4  A    between atoms: C_8  and  C_9
REMARK    5  A    between atoms: C_9  and  N_10
REMARK    6  A    between atoms: C_15  and  O_16
REMARK    7  A    between atoms: O_16  and  C_17
REMARK    8  A    between atoms: C_17  and  C_18
REMARK    9  A    between atoms: C_18  and  C_19
REMARK                            x       y       z     vdW  Elec       q    Type
REMARK                         _______ _______ _______ _____ _____    ______ ____
ROOT
ATOM      1  C   UNL     1       1.416   8.341  20.294  0.00  0.00    +0.000 A 
ATOM      2  C   UNL     1       1.049   9.473  19.558  0.00  0.00    +0.000 A 
ATOM      3  C   UNL     1       1.380   9.580  18.208  0.00  0.00    +0.000 A 
ATOM      4  C   UNL     1       2.106   8.566  17.590  0.00  0.00    +0.000 A 
ATOM      5  C   UNL     1       2.534   7.443  18.317  0.00  0.00    +0.000 A 
ATOM      6  C   UNL     1       2.196   7.335  19.689  0.00  0.00    +0.000 A 
ENDROOT
BRANCH   1   8
ATOM      7  C   UNL     1      -0.209   8.746  21.953  0.00  0.00    +0.000 C 
ATOM      8  O   UNL     1       1.094   8.259  21.625  0.00  0.00    +0.000 OA
ENDBRANCH   1   8
BRANCH   5   9
ATOM      9  C   UNL     1       3.377   6.401  17.596  0.00  0.00    +0.000 C 
BRANCH   9  10
ATOM     10  C   UNL     1       4.817   6.864  17.294  0.00  0.00    +0.000 C 
BRANCH  10  11
ATOM     11  N   UNL     1       5.813   5.781  17.141  0.00  0.00    +0.000 NA
ATOM     12  C   UNL     1       5.717   4.841  18.277  0.00  0.00    +0.000 C 
ATOM     13  C   UNL     1       6.579   5.445  19.372  0.00  0.00    +0.000 C 
ATOM     14  C   UNL     1       7.709   6.114  18.613  0.00  0.00    +0.000 C 
ATOM     15  C   UNL     1       7.207   6.251  17.179  0.00  0.00    +0.000 C 
ENDBRANCH  10  11
ENDBRANCH   9  10
ENDBRANCH   5   9
BRANCH   6  16
ATOM     16  O   UNL     1       2.722   6.242  20.333  0.00  0.00    +0.000 OA
BRANCH  16  17
ATOM     17  C   UNL     1       1.811   5.379  21.013  0.00  0.00    +0.000 C 
BRANCH  17  18
ATOM     18  C   UNL     1       1.078   4.522  19.981  0.00  0.00    +0.000 C 
BRANCH  18  19
ATOM     19  C   UNL     1       2.008   3.526  19.342  0.00  0.00    +0.000 A 
ATOM     20  C   UNL     1       1.822   3.145  18.005  0.00  0.00    +0.000 A 
ATOM     21  C   UNL     1       2.638   2.174  17.428  0.00  0.00    +0.000 A 
ATOM     22  C   UNL     1       3.648   1.577  18.180  0.00  0.00    +0.000 A 
ATOM     23  C   UNL     1       3.844   1.954  19.508  0.00  0.00    +0.000 A 
ATOM     24  C   UNL     1       3.027   2.924  20.089  0.00  0.00    +0.000 A 
ENDBRANCH  18  19
ENDBRANCH  17  18
ENDBRANCH  16  17
ENDBRANCH   6  16
TORSDOF 8
ENDMDL
MODEL 2
REMARK VINA RESULT:      -7.0      1.250      1.898
REMARK  Name = 
REMARK  9 active torsions:
REMARK  status: ('A' for Active; 'I' for Inactive)
REMARK    1  A    between atoms: C_1  and  O_2
REMARK    2  A    between atoms: O_2  and  C_3
REMARK    3  A    between atoms: C_7  and  C_8
REMARK    4  A    between atoms: C_8  and  C_9
REMARK    5  A    between atoms: C_9  and  N_10
REMARK    6  A    between atoms: C_15  and  O_16
REMARK    7  A    between atoms: O_16  and  C_17
REMARK    8  A    between atoms: C_17  and  C_18
REMARK    9  A    between atoms: C_18  and  C_19
REMARK                            x       y       z     vdW  Elec       q    Type
REMARK                         _______ _______ _______ _____ _____    ______ ____
ROOT
ATOM      1  C   UNL     1       1.573   8.091  20.050  0.00  0.00    +0.000 A 
ATOM      2  C   UNL     1       1.606   9.206  19.206  0.00  0.00    +0.000 A 
ATOM      3  C   UNL     1       2.182   9.121  17.940  0.00  0.00    +0.000 A 
ATOM      4  C   UNL     1       2.754   7.924  17.517  0.00  0.00    +0.000 A 
ATOM      5  C   UNL     1       2.781   6.803  18.363  0.00  0.00    +0.000 A 
ATOM      6  C   UNL     1       2.195   6.891  19.650  0.00  0.00    +0.000 A 
ENDROOT
BRANCH   1   8
ATOM      7  C   UNL     1       1.223   9.458  21.939  0.00  0.00    +0.000 C 
ATOM      8  O   UNL     1       1.015   8.197  21.299  0.00  0.00    +0.000 OA
ENDBRANCH   1   8
BRANCH   5   9
ATOM      9  C   UNL     1       3.476   5.544  17.863  0.00  0.00    +0.000 C 
BRANCH   9  10
ATOM     10  C   UNL     1       5.006   5.686  17.733  0.00  0.00    +0.000 C 
BRANCH  10  11
ATOM     11  N   UNL     1       5.723   4.463  17.310  0.00  0.00    +0.000 NA
ATOM     12  C   UNL     1       7.139   4.778  17.034  0.00  0.00    +0.000 C 
ATOM     13  C   UNL     1       7.170   5.263  15.595  0.00  0.00    +0.000 C 
ATOM     14  C   UNL     1       6.091   4.442  14.915  0.00  0.00    +0.000 C 
ATOM     15  C   UNL     1       5.227   3.894  16.046  0.00  0.00    +0.000 C 
ENDBRANCH  10  11
ENDBRANCH   9  10
ENDBRANCH   5   9
BRANCH   6  16
ATOM     16  O   UNL     1       2.338   5.771  20.433  0.00  0.00    +0.000 OA
BRANCH  16  17
ATOM     17  C   UNL     1       1.161   5.015  20.718  0.00  0.00    +0.000 C 
BRANCH  17  18
ATOM     18  C   UNL     1       1.571   3.630  21.219  0.00  0.00    +0.000 C 
BRANCH  18  19
ATOM     19  C   UNL     1       2.283   2.852  20.145  0.00  0.00    +0.000 A 
ATOM     20  C   UNL     1       3.620   2.469  20.321  0.00  0.00    +0.000 A 
ATOM     21  C   UNL     1       4.305   1.808  19.302  0.00  0.00    +0.000 A 
ATOM     22  C   UNL     1       3.658   1.522  18.101  0.00  0.00    +0.000 A 
ATOM     23  C   UNL     1       2.327   1.894  17.920  0.00  0.00    +0.000 A 
ATOM     24  C   UNL     1       1.640   2.558  18.938  0.00  0.00    +0.000 A 
ENDBRANCH  18  19
ENDBRANCH  17  18
ENDBRANCH  16  17
ENDBRANCH   6  16
TORSDOF 8
ENDMDL
MODEL 3
REMARK VINA RESULT:      -7.0      1.591      5.361
REMARK  Name = 
REMARK  9 active torsions:
REMARK  status: ('A' for Active; 'I' for Inactive)
REMARK    1  A    between atoms: C_1  and  O_2
REMARK    2  A    between atoms: O_2  and  C_3
REMARK    3  A    between atoms: C_7  and  C_8
REMARK    4  A    between atoms: C_8  and  C_9
REMARK    5  A    between atoms: C_9  and  N_10
REMARK    6  A    between atoms: C_15  and  O_16
REMARK    7  A    between atoms: O_16  and  C_17
REMARK    8  A    between atoms: C_17  and  C_18
REMARK    9  A    between atoms: C_18  and  C_19
REMARK                            x       y       z     vdW  Elec       q    Type
REMARK                         _______ _______ _______ _____ _____    ______ ____
ROOT
ATOM      1  C   UNL     1       1.880   4.276  19.425  0.00  0.00    +0.000 A 
ATOM      2  C   UNL     1       1.719   3.254  18.484  0.00  0.00    +0.000 A 
ATOM      3  C   UNL     1       2.442   3.264  17.292  0.00  0.00    +0.000 A 
ATOM      4  C   UNL     1       3.314   4.315  17.020  0.00  0.00    +0.000 A 
ATOM      5  C   UNL     1       3.457   5.382  17.922  0.00  0.00    +0.000 A 
ATOM      6  C   UNL     1       2.722   5.369  19.133  0.00  0.00    +0.000 A 
ENDROOT
BRANCH   1   8
ATOM      7  C   UNL     1       1.475   3.186  21.475  0.00  0.00    +0.000 C 
ATOM      8  O   UNL     1       1.150   4.256  20.585  0.00  0.00    +0.000 OA
ENDBRANCH   1   8
BRANCH   5   9
ATOM      9  C   UNL     1       4.380   6.529  17.536  0.00  0.00    +0.000 C 
BRANCH   9  10
ATOM     10  C   UNL     1       5.110   6.318  16.194  0.00  0.00    +0.000 C 
BRANCH  10  11
ATOM     11  N   UNL     1       6.576   6.512  16.231  0.00  0.00    +0.000 NA
ATOM     12  C   UNL     1       7.262   5.236  15.943  0.00  0.00    +0.000 C 
ATOM     13  C   UNL     1       7.350   4.518  17.279  0.00  0.00    +0.000 C 
ATOM     14  C   UNL     1       7.528   5.641  18.282  0.00  0.00    +0.000 C 
ATOM     15  C   UNL     1       7.086   6.906  17.554  0.00  0.00    +0.000 C 
ENDBRANCH  10  11
ENDBRANCH   9  10
ENDBRANCH   5   9
BRANCH   6  16
ATOM     16  O   UNL     1       2.869   6.489  19.915  0.00  0.00    +0.000 OA
BRANCH  16  17
ATOM     17  C   UNL     1       1.814   7.450  19.889  0.00  0.00    +0.000 C 
BRANCH  17  18
ATOM     18  C   UNL     1       1.318   7.680  21.317  0.00  0.00    +0.000 C 
BRANCH  18  19
ATOM     19  C   UNL     1       0.502   8.942  21.412  0.00  0.00    +0.000 A 
ATOM     20  C   UNL     1       0.334   9.759  20.285  0.00  0.00    +0.000 A 
ATOM     21  C   UNL     1      -0.362  10.963  20.383  0.00  0.00    +0.000 A 
ATOM     22  C   UNL     1      -0.898  11.358  21.607  0.00  0.00    +0.000 A 
ATOM     23  C   UNL     1      -0.741  10.549  22.731  0.00  0.00    +0.000 A 
ATOM     24  C   UNL     1      -0.042   9.346  22.636  0.00  0.00    +0.000 A 
ENDBRANCH  18  19
ENDBRANCH  17  18
ENDBRANCH  16  17
ENDBRANCH   6  16
TORSDOF 8
ENDMDL
MODEL 4
REMARK VINA RESULT:      -6.9      2.154      6.317
REMARK  Name = 
REMARK  9 active torsions:
REMARK  status: ('A' for Active; 'I' for Inactive)
REMARK    1  A    between atoms: C_1  and  O_2
REMARK    2  A    between atoms: O_2  and  C_3
REMARK    3  A    between atoms: C_7  and  C_8
REMARK    4  A    between atoms: C_8  and  C_9
REMARK    5  A    between atoms: C_9  and  N_10
REMARK    6  A    between atoms: C_15  and  O_16
REMARK    7  A    between atoms: O_16  and  C_17
REMARK    8  A    between atoms: C_17  and  C_18
REMARK    9  A    between atoms: C_18  and  C_19
REMARK                            x       y       z     vdW  Elec       q    Type
REMARK                         _______ _______ _______ _____ _____    ______ ____
ROOT
ATOM      1  C   UNL     1       6.161   6.108  16.472  0.00  0.00    +0.000 A 
ATOM      2  C   UNL     1       6.812   5.390  15.462  0.00  0.00    +0.000 A 
ATOM      3  C   UNL     1       6.394   4.105  15.122  0.00  0.00    +0.000 A 
ATOM      4  C   UNL     1       5.336   3.516  15.809  0.00  0.00    +0.000 A 
ATOM      5  C   UNL     1       4.698   4.192  16.862  0.00  0.00    +0.000 A 
ATOM      6  C   UNL     1       5.124   5.498  17.206  0.00  0.00    +0.000 A 
ENDROOT
BRANCH   1   8
ATOM      7  C   UNL     1       7.706   7.395  17.701  0.00  0.00    +0.000 C 
ATOM      8  O   UNL     1       6.596   7.366  16.802  0.00  0.00    +0.000 OA
ENDBRANCH   1   8
BRANCH   5   9
ATOM      9  C   UNL     1       3.590   3.467  17.612  0.00  0.00    +0.000 C 
BRANCH   9  10
ATOM     10  C   UNL     1       3.940   3.137  19.077  0.00  0.00    +0.000 C 
BRANCH  10  11
ATOM     11  N   UNL     1       2.989   2.242  19.772  0.00  0.00    +0.000 NA
ATOM     12  C   UNL     1       1.653   2.343  19.149  0.00  0.00    +0.000 C 
ATOM     13  C   UNL     1       0.986   3.532  19.820  0.00  0.00    +0.000 C 
ATOM     14  C   UNL     1       1.518   3.490  21.239  0.00  0.00    +0.000 C 
ATOM     15  C   UNL     1       2.758   2.604  21.180  0.00  0.00    +0.000 C 
ENDBRANCH  10  11
ENDBRANCH   9  10
ENDBRANCH   5   9
BRANCH   6  16
ATOM     16  O   UNL     1       4.494   6.048  18.296  0.00  0.00    +0.000 OA
BRANCH  16  17
ATOM     17  C   UNL     1       3.328   6.834  18.052  0.00  0.00    +0.000 C 
BRANCH  17  18
ATOM     18  C   UNL     1       2.471   6.856  19.318  0.00  0.00    +0.000 C 
BRANCH  18  19
ATOM     19  C   UNL     1       1.753   8.172  19.465  0.00  0.00    +0.000 A 
ATOM     20  C   UNL     1       1.682   9.061  18.384  0.00  0.00    +0.000 A 
ATOM     21  C   UNL     1       1.079  10.308  18.533  0.00  0.00    +0.000 A 
ATOM     22  C   UNL     1       0.539  10.676  19.764  0.00  0.00    +0.000 A 
ATOM     23  C   UNL     1       0.599   9.796  20.843  0.00  0.00    +0.000 A 
ATOM     24  C   UNL     1       1.206   8.548  20.696  0.00  0.00    +0.000 A 
ENDBRANCH  18  19
ENDBRANCH  17  18
ENDBRANCH  16  17
ENDBRANCH   6  16
TORSDOF 8
ENDMDL
MODEL 5
REMARK VINA RESULT:      -6.9      0.868      1.569
REMARK  Name = 
REMARK  9 active torsions:
REMARK  status: ('A' for Active; 'I' for Inactive)
REMARK    1  A    between atoms: C_1  and  O_2
REMARK    2  A    between atoms: O_2  and  C_3
REMARK    3  A    between atoms: C_7  and  C_8
REMARK    4  A    between atoms: C_8  and  C_9
REMARK    5  A    between atoms: C_9  and  N_10
REMARK    6  A    between atoms: C_15  and  O_16
REMARK    7  A    between atoms: O_16  and  C_17
REMARK    8  A    between atoms: C_17  and  C_18
REMARK    9  A    between atoms: C_18  and  C_19
REMARK                            x       y       z     vdW  Elec       q    Type
REMARK                         _______ _______ _______ _____ _____    ______ ____
ROOT
ATOM      1  C   UNL     1       1.515   8.237  20.233  0.00  0.00    +0.000 A 
ATOM      2  C   UNL     1       1.231   9.381  19.479  0.00  0.00    +0.000 A 
ATOM      3  C   UNL     1       1.620   9.467  18.144  0.00  0.00    +0.000 A 
ATOM      4  C   UNL     1       2.323   8.417  17.558  0.00  0.00    +0.000 A 
ATOM      5  C   UNL     1       2.667   7.278  18.304  0.00  0.00    +0.000 A 
ATOM      6  C   UNL     1       2.270   7.193  19.661  0.00  0.00    +0.000 A 
ENDROOT
BRANCH   1   8
ATOM      7  C   UNL     1      -0.200   8.614  21.805  0.00  0.00    +0.000 C 
ATOM      8  O   UNL     1       1.136   8.176  21.549  0.00  0.00    +0.000 OA
ENDBRANCH   1   8
BRANCH   5   9
ATOM      9  C   UNL     1       3.489   6.195  17.620  0.00  0.00    +0.000 C 
BRANCH   9  10
ATOM     10  C   UNL     1       5.002   6.288  17.901  0.00  0.00    +0.000 C 
BRANCH  10  11
ATOM     11  N   UNL     1       5.858   6.482  16.711  0.00  0.00    +0.000 NA
ATOM     12  C   UNL     1       5.255   5.813  15.540  0.00  0.00    +0.000 C 
ATOM     13  C   UNL     1       5.728   4.371  15.614  0.00  0.00    +0.000 C 
ATOM     14  C   UNL     1       7.122   4.478  16.200  0.00  0.00    +0.000 C 
ATOM     15  C   UNL     1       7.189   5.864  16.833  0.00  0.00    +0.000 C 
ENDBRANCH  10  11
ENDBRANCH   9  10
ENDBRANCH   5   9
BRANCH   6  16
ATOM     16  O   UNL     1       2.718   6.079  20.330  0.00  0.00    +0.000 OA
BRANCH  16  17
ATOM     17  C   UNL     1       1.763   5.345  21.096  0.00  0.00    +0.000 C 
BRANCH  17  18
ATOM     18  C   UNL     1       0.974   4.430  20.159  0.00  0.00    +0.000 C 
BRANCH  18  19
ATOM     19  C   UNL     1       1.882   3.453  19.461  0.00  0.00    +0.000 A 
ATOM     20  C   UNL     1       2.989   2.916  20.133  0.00  0.00    +0.000 A 
ATOM     21  C   UNL     1       3.872   2.065  19.471  0.00  0.00    +0.000 A 
ATOM     22  C   UNL     1       3.655   1.741  18.133  0.00  0.00    +0.000 A 
ATOM     23  C   UNL     1       2.554   2.266  17.459  0.00  0.00    +0.000 A 
ATOM     24  C   UNL     1       1.670   3.121  18.119  0.00  0.00    +0.000 A 
ENDBRANCH  18  19
ENDBRANCH  17  18
ENDBRANCH  16  17
ENDBRANCH   6  16
TORSDOF 8
ENDMDL
MODEL 6
REMARK VINA RESULT:      -6.8      0.935      1.307
REMARK  Name = 
REMARK  9 active torsions:
REMARK  status: ('A' for Active; 'I' for Inactive)
REMARK    1  A    between atoms: C_1  and  O_2
REMARK    2  A    between atoms: O_2  and  C_3
REMARK    3  A    between atoms: C_7  and  C_8
REMARK    4  A    between atoms: C_8  and  C_9
REMARK    5  A    between atoms: C_9  and  N_10
REMARK    6  A    between atoms: C_15  and  O_16
REMARK    7  A    between atoms: O_16  and  C_17
REMARK    8  A    between atoms: C_17  and  C_18
REMARK    9  A    between atoms: C_18  and  C_19
REMARK                            x       y       z     vdW  Elec       q    Type
REMARK                         _______ _______ _______ _____ _____    ______ ____
ROOT
ATOM      1  C   UNL     1       1.367   8.602  20.415  0.00  0.00    +0.000 A 
ATOM      2  C   UNL     1       1.199   9.739  19.618  0.00  0.00    +0.000 A 
ATOM      3  C   UNL     1       1.542   9.716  18.267  0.00  0.00    +0.000 A 
ATOM      4  C   UNL     1       2.082   8.561  17.709  0.00  0.00    +0.000 A 
ATOM      5  C   UNL     1       2.310   7.421  18.497  0.00  0.00    +0.000 A 
ATOM      6  C   UNL     1       1.961   7.446  19.870  0.00  0.00    +0.000 A 
ENDROOT
BRANCH   1   8
ATOM      7  C   UNL     1       0.329   9.823  22.144  0.00  0.00    +0.000 C 
ATOM      8  O   UNL     1       1.037   8.647  21.746  0.00  0.00    +0.000 OA
ENDBRANCH   1   8
BRANCH   5   9
ATOM      9  C   UNL     1       2.960   6.212  17.838  0.00  0.00    +0.000 C 
BRANCH   9  10
ATOM     10  C   UNL     1       4.501   6.213  17.915  0.00  0.00    +0.000 C 
BRANCH  10  11
ATOM     11  N   UNL     1       5.143   4.886  17.795  0.00  0.00    +0.000 NA
ATOM     12  C   UNL     1       6.594   5.002  18.047  0.00  0.00    +0.000 C 
ATOM     13  C   UNL     1       7.204   5.389  16.710  0.00  0.00    +0.000 C 
ATOM     14  C   UNL     1       6.335   4.671  15.696  0.00  0.00    +0.000 C 
ATOM     15  C   UNL     1       5.056   4.308  16.444  0.00  0.00    +0.000 C 
ENDBRANCH  10  11
ENDBRANCH   9  10
ENDBRANCH   5   9
BRANCH   6  16
ATOM     16  O   UNL     1       2.291   6.314  20.575  0.00  0.00    +0.000 OA
BRANCH  16  17
ATOM     17  C   UNL     1       1.300   5.293  20.679  0.00  0.00    +0.000 C 
BRANCH  17  18
ATOM     18  C   UNL     1       1.953   4.020  21.218  0.00  0.00    +0.000 C 
BRANCH  18  19
ATOM     19  C   UNL     1       2.523   3.187  20.102  0.00  0.00    +0.000 A 
ATOM     20  C   UNL     1       1.812   3.035  18.903  0.00  0.00    +0.000 A 
ATOM     21  C   UNL     1       2.301   2.210  17.891  0.00  0.00    +0.000 A 
ATOM     22  C   UNL     1       3.506   1.532  18.069  0.00  0.00    +0.000 A 
ATOM     23  C   UNL     1       4.222   1.682  19.255  0.00  0.00    +0.000 A 
ATOM     24  C   UNL     1       3.733   2.505  20.270  0.00  0.00    +0.000 A 
ENDBRANCH  18  19
ENDBRANCH  17  18
ENDBRANCH  16  17
ENDBRANCH   6  16
TORSDOF 8
ENDMDL
MODEL 7
REMARK VINA RESULT:      -6.7      1.420      5.209
REMARK  Name = 
REMARK  9 active torsions:
REMARK  status: ('A' for Active; 'I' for Inactive)
REMARK    1  A    between atoms: C_1  and  O_2
REMARK    2  A    between atoms: O_2  and  C_3
REMARK    3  A    between atoms: C_7  and  C_8
REMARK    4  A    between atoms: C_8  and  C_9
REMARK    5  A    between atoms: C_9  and  N_10
REMARK    6  A    between atoms: C_15  and  O_16
REMARK    7  A    between atoms: O_16  and  C_17
REMARK    8  A    between atoms: C_17  and  C_18
REMARK    9  A    between atoms: C_18  and  C_19
REMARK                            x       y       z     vdW  Elec       q    Type
REMARK                         _______ _______ _______ _____ _____    ______ ____
ROOT
ATOM      1  C   UNL     1       3.136   3.259  19.990  0.00  0.00    +0.000 A 
ATOM      2  C   UNL     1       3.258   2.100  19.215  0.00  0.00    +0.000 A 
ATOM      3  C   UNL     1       3.704   2.171  17.897  0.00  0.00    +0.000 A 
ATOM      4  C   UNL     1       4.005   3.407  17.332  0.00  0.00    +0.000 A 
ATOM      5  C   UNL     1       3.842   4.592  18.069  0.00  0.00    +0.000 A 
ATOM      6  C   UNL     1       3.390   4.518  19.410  0.00  0.00    +0.000 A 
ENDROOT
BRANCH   1   8
ATOM      7  C   UNL     1       1.358   2.650  21.413  0.00  0.00    +0.000 C 
ATOM      8  O   UNL     1       2.682   3.171  21.281  0.00  0.00    +0.000 OA
ENDBRANCH   1   8
BRANCH   5   9
ATOM      9  C   UNL     1       4.131   5.915  17.373  0.00  0.00    +0.000 C 
BRANCH   9  10
ATOM     10  C   UNL     1       4.954   5.771  16.077  0.00  0.00    +0.000 C 
BRANCH  10  11
ATOM     11  N   UNL     1       6.338   6.289  16.144  0.00  0.00    +0.000 NA
ATOM     12  C   UNL     1       7.300   5.191  15.917  0.00  0.00    +0.000 C 
ATOM     13  C   UNL     1       7.502   4.548  17.279  0.00  0.00    +0.000 C 
ATOM     14  C   UNL     1       7.394   5.710  18.247  0.00  0.00    +0.000 C 
ATOM     15  C   UNL     1       6.705   6.824  17.465  0.00  0.00    +0.000 C 
ENDBRANCH  10  11
ENDBRANCH   9  10
ENDBRANCH   5   9
BRANCH   6  16
ATOM     16  O   UNL     1       3.187   5.730  20.023  0.00  0.00    +0.000 OA
BRANCH  16  17
ATOM     17  C   UNL     1       1.837   6.139  20.240  0.00  0.00    +0.000 C 
BRANCH  17  18
ATOM     18  C   UNL     1       1.836   7.464  21.003  0.00  0.00    +0.000 C 
BRANCH  18  19
ATOM     19  C   UNL     1       1.353   8.592  20.132  0.00  0.00    +0.000 A 
ATOM     20  C   UNL     1       1.764   8.675  18.794  0.00  0.00    +0.000 A 
ATOM     21  C   UNL     1       1.375   9.754  18.001  0.00  0.00    +0.000 A 
ATOM     22  C   UNL     1       0.571  10.757  18.538  0.00  0.00    +0.000 A 
ATOM     23  C   UNL     1       0.153  10.680  19.866  0.00  0.00    +0.000 A 
ATOM     24  C   UNL     1       0.543   9.602  20.662  0.00  0.00    +0.000 A 
ENDBRANCH  18  19
ENDBRANCH  17  18
ENDBRANCH  16  17
ENDBRANCH   6  16
TORSDOF 8
ENDMDL
MODEL 8
REMARK VINA RESULT:      -6.7      3.232      6.175
REMARK  Name = 
REMARK  9 active torsions:
REMARK  status: ('A' for Active; 'I' for Inactive)
REMARK    1  A    between atoms: C_1  and  O_2
REMARK    2  A    between atoms: O_2  and  C_3
REMARK    3  A    between atoms: C_7  and  C_8
REMARK    4  A    between atoms: C_8  and  C_9
REMARK    5  A    between atoms: C_9  and  N_10
REMARK    6  A    between atoms: C_15  and  O_16
REMARK    7  A    between atoms: O_16  and  C_17
REMARK    8  A    between atoms: C_17  and  C_18
REMARK    9  A    between atoms: C_18  and  C_19
REMARK                            x       y       z     vdW  Elec       q    Type
REMARK                         _______ _______ _______ _____ _____    ______ ____
ROOT
ATOM      1  C   UNL     1       5.590   6.917  17.318  0.00  0.00    +0.000 A 
ATOM      2  C   UNL     1       4.354   7.569  17.246  0.00  0.00    +0.000 A 
ATOM      3  C   UNL     1       3.243   7.062  17.918  0.00  0.00    +0.000 A 
ATOM      4  C   UNL     1       3.354   5.881  18.647  0.00  0.00    +0.000 A 
ATOM      5  C   UNL     1       4.568   5.177  18.694  0.00  0.00    +0.000 A 
ATOM      6  C   UNL     1       5.696   5.695  18.011  0.00  0.00    +0.000 A 
ENDROOT
BRANCH   1   8
ATOM      7  C   UNL     1       7.628   8.092  17.459  0.00  0.00    +0.000 C 
ATOM      8  O   UNL     1       6.668   7.423  16.639  0.00  0.00    +0.000 OA
ENDBRANCH   1   8
BRANCH   5   9
ATOM      9  C   UNL     1       4.605   3.861  19.458  0.00  0.00    +0.000 C 
BRANCH   9  10
ATOM     10  C   UNL     1       3.372   3.624  20.353  0.00  0.00    +0.000 C 
BRANCH  10  11
ATOM     11  N   UNL     1       2.682   2.331  20.154  0.00  0.00    +0.000 NA
ATOM     12  C   UNL     1       2.992   1.794  18.814  0.00  0.00    +0.000 C 
ATOM     13  C   UNL     1       1.987   2.444  17.878  0.00  0.00    +0.000 C 
ATOM     14  C   UNL     1       0.738   2.580  18.728  0.00  0.00    +0.000 C 
ATOM     15  C   UNL     1       1.213   2.436  20.170  0.00  0.00    +0.000 C 
ENDBRANCH  10  11
ENDBRANCH   9  10
ENDBRANCH   5   9
BRANCH   6  16
ATOM     16  O   UNL     1       6.816   4.899  18.051  0.00  0.00    +0.000 OA
BRANCH  16  17
ATOM     17  C   UNL     1       7.341   4.442  16.805  0.00  0.00    +0.000 C 
BRANCH  17  18
ATOM     18  C   UNL     1       6.182   4.014  15.905  0.00  0.00    +0.000 C 
BRANCH  18  19
ATOM     19  C   UNL     1       6.554   4.125  14.450  0.00  0.00    +0.000 A 
ATOM     20  C   UNL     1       7.502   5.071  14.035  0.00  0.00    +0.000 A 
ATOM     21  C   UNL     1       7.800   5.225  12.683  0.00  0.00    +0.000 A 
ATOM     22  C   UNL     1       7.155   4.433  11.734  0.00  0.00    +0.000 A 
ATOM     23  C   UNL     1       6.215   3.487  12.138  0.00  0.00    +0.000 A 
ATOM     24  C   UNL     1       5.913   3.333  13.492  0.00  0.00    +0.000 A 
ENDBRANCH  18  19
ENDBRANCH  17  18
ENDBRANCH  16  17
ENDBRANCH   6  16
TORSDOF 8
ENDMDL
MODEL 9
REMARK VINA RESULT:      -6.6      2.121      6.264
REMARK  Name = 
REMARK  9 active torsions:
REMARK  status: ('A' for Active; 'I' for Inactive)
REMARK    1  A    between atoms: C_1  and  O_2
REMARK    2  A    between atoms: O_2  and  C_3
REMARK    3  A    between atoms: C_7  and  C_8
REMARK    4  A    between atoms: C_8  and  C_9
REMARK    5  A    between atoms: C_9  and  N_10
REMARK    6  A    between atoms: C_15  and  O_16
REMARK    7  A    between atoms: O_16  and  C_17
REMARK    8  A    between atoms: C_17  and  C_18
REMARK    9  A    between atoms: C_18  and  C_19
REMARK                            x       y       z     vdW  Elec       q    Type
REMARK                         _______ _______ _______ _____ _____    ______ ____
ROOT
ATOM      1  C   UNL     1       5.537   6.256  16.846  0.00  0.00    +0.000 A 
ATOM      2  C   UNL     1       6.032   5.109  16.217  0.00  0.00    +0.000 A 
ATOM      3  C   UNL     1       5.265   3.946  16.155  0.00  0.00    +0.000 A 
ATOM      4  C   UNL     1       4.006   3.914  16.747  0.00  0.00    +0.000 A 
ATOM      5  C   UNL     1       3.504   5.034  17.430  0.00  0.00    +0.000 A 
ATOM      6  C   UNL     1       4.285   6.215  17.492  0.00  0.00    +0.000 A 
ENDROOT
BRANCH   1   8
ATOM      7  C   UNL     1       7.541   7.226  17.618  0.00  0.00    +0.000 C 
ATOM      8  O   UNL     1       6.311   7.386  16.910  0.00  0.00    +0.000 OA
ENDBRANCH   1   8
BRANCH   5   9
ATOM      9  C   UNL     1       2.146   4.912  18.108  0.00  0.00    +0.000 C 
BRANCH   9  10
ATOM     10  C   UNL     1       1.709   3.457  18.372  0.00  0.00    +0.000 C 
BRANCH  10  11
ATOM     11  N   UNL     1       0.970   3.236  19.634  0.00  0.00    +0.000 NA
ATOM     12  C   UNL     1       0.976   4.470  20.446  0.00  0.00    +0.000 C 
ATOM     13  C   UNL     1       2.276   4.429  21.230  0.00  0.00    +0.000 C 
ATOM     14  C   UNL     1       2.487   2.952  21.504  0.00  0.00    +0.000 C 
ATOM     15  C   UNL     1       1.586   2.225  20.510  0.00  0.00    +0.000 C 
ENDBRANCH  10  11
ENDBRANCH   9  10
ENDBRANCH   5   9
BRANCH   6  16
ATOM     16  O   UNL     1       3.746   7.230  18.245  0.00  0.00    +0.000 OA
BRANCH  16  17
ATOM     17  C   UNL     1       3.170   8.332  17.545  0.00  0.00    +0.000 C 
BRANCH  17  18
ATOM     18  C   UNL     1       1.670   8.377  17.838  0.00  0.00    +0.000 C 
BRANCH  18  19
ATOM     19  C   UNL     1       1.401   8.949  19.205  0.00  0.00    +0.000 A 
ATOM     20  C   UNL     1       1.518   8.138  20.343  0.00  0.00    +0.000 A 
ATOM     21  C   UNL     1       1.204   8.642  21.604  0.00  0.00    +0.000 A 
ATOM     22  C   UNL     1       0.773   9.961  21.739  0.00  0.00    +0.000 A 
ATOM     23  C   UNL     1       0.659  10.775  20.613  0.00  0.00    +0.000 A 
ATOM     24  C   UNL     1       0.970  10.272  19.349  0.00  0.00    +0.000 A 
ENDBRANCH  18  19
ENDBRANCH  17  18
ENDBRANCH  16  17
ENDBRANCH   6  16
TORSDOF 8
ENDMDL
