MODEL 1
REMARK VINA RESULT:      -7.8      0.000      0.000
REMARK  Name = 
REMARK  8 active torsions:
REMARK  status: ('A' for Active; 'I' for Inactive)
REMARK    1  A    between atoms: C_1  and  O_2
REMARK    2  A    between atoms: O_2  and  C_3
REMARK    3  A    between atoms: C_9  and  S_10
REMARK    4  A    between atoms: S_10  and  N_13
REMARK    5  A    between atoms: N_13  and  C_14
REMARK    6  A    between atoms: C_17  and  C_18
REMARK    7  A    between atoms: C_18  and  N_19
REMARK    8  A    between atoms: N_22  and  C_23
REMARK                            x       y       z     vdW  Elec       q    Type
REMARK                         _______ _______ _______ _____ _____    ______ ____
ROOT
ATOM      1  N   UNL     1       3.884   5.154  19.609  0.00  0.00    +0.000 N 
ATOM      2  H   UNL     1       3.739   4.803  20.558  0.00  0.00    +0.000 HD
ENDROOT
BRANCH   1   3
ATOM      3  C   UNL     1       3.191   6.347  19.256  0.00  0.00    +0.000 A 
ATOM      4  C   UNL     1       2.222   6.874  20.110  0.00  0.00    +0.000 A 
ATOM      5  C   UNL     1       1.539   8.044  19.758  0.00  0.00    +0.000 A 
ATOM      6  C   UNL     1       1.809   8.682  18.540  0.00  0.00    +0.000 A 
ATOM      7  C   UNL     1       2.767   8.120  17.679  0.00  0.00    +0.000 A 
ATOM      8  C   UNL     1       3.454   6.956  18.034  0.00  0.00    +0.000 A 
BRANCH   6   9
ATOM      9  C   UNL     1       1.125   9.986  18.172  0.00  0.00    +0.000 C 
BRANCH   9  10
ATOM     10  N   UNL     1       1.471  11.105  19.061  0.00  0.00    +0.000 NA
ATOM     11  C   UNL     1       0.264  11.633  19.733  0.00  0.00    +0.000 C 
ATOM     12  C   UNL     1       0.591  12.819  20.678  0.00  0.00    +0.000 C 
ATOM     13  N   UNL     1       1.348  13.928  20.059  0.00  0.00    +0.000 NA
ATOM     14  C   UNL     1       0.505  14.742  19.186  0.00  0.00    +0.000 C 
ATOM     15  C   UNL     1       2.500  13.369  19.326  0.00  0.00    +0.000 C 
ATOM     16  C   UNL     1       2.152  12.212  18.364  0.00  0.00    +0.000 C 
ENDBRANCH   9  10
ENDBRANCH   6   9
ENDBRANCH   1   3
BRANCH   1  17
ATOM     17  S   UNL     1       3.839   3.856  18.524  0.00  0.00    +0.000 S 
ATOM     18  O   UNL     1       2.574   3.892  17.810  0.00  0.00    +0.000 OA
ATOM     19  O   UNL     1       4.216   2.676  19.269  0.00  0.00    +0.000 OA
BRANCH  17  26
ATOM     20  C   UNL     1       6.393   4.674  17.771  0.00  0.00    +0.000 A 
ATOM     21  C   UNL     1       7.377   4.889  16.792  0.00  0.00    +0.000 A 
ATOM     22  C   UNL     1       7.113   4.645  15.441  0.00  0.00    +0.000 A 
ATOM     23  C   UNL     1       5.864   4.174  15.055  0.00  0.00    +0.000 A 
ATOM     24 CL   UNL     1       5.556   3.833  13.397  0.00  0.00    +0.000 Cl
ATOM     25  C   UNL     1       4.872   3.956  16.005  0.00  0.00    +0.000 A 
ATOM     26  C   UNL     1       5.137   4.206  17.360  0.00  0.00    +0.000 A 
BRANCH  20  28
ATOM     27  C   UNL     1       7.739   5.669  19.466  0.00  0.00    +0.000 C 
ATOM     28  O   UNL     1       6.623   4.857  19.108  0.00  0.00    +0.000 OA
ENDBRANCH  20  28
ENDBRANCH  17  26
ENDBRANCH   1  17
TORSDOF 6
ENDMDL
MODEL 2
REMARK VINA RESULT:      -7.8      0.871      1.416
REMARK  Name = 
REMARK  8 active torsions:
REMARK  status: ('A' for Active; 'I' for Inactive)
REMARK    1  A    between atoms: C_1  and  O_2
REMARK    2  A    between atoms: O_2  and  C_3
REMARK    3  A    between atoms: C_9  and  S_10
REMARK    4  A    between atoms: S_10  and  N_13
REMARK    5  A    between atoms: N_13  and  C_14
REMARK    6  A    between atoms: C_17  and  C_18
REMARK    7  A    between atoms: C_18  and  N_19
REMARK    8  A    between atoms: N_22  and  C_23
REMARK                            x       y       z     vdW  Elec       q    Type
REMARK                         _______ _______ _______ _____ _____    ______ ____
ROOT
ATOM      1  N   UNL     1       3.730   5.294  19.790  0.00  0.00    +0.000 N 
ATOM      2  H   UNL     1       3.605   4.966  20.750  0.00  0.00    +0.000 HD
ENDROOT
BRANCH   1   3
ATOM      3  C   UNL     1       3.019   6.469  19.418  0.00  0.00    +0.000 A 
ATOM      4  C   UNL     1       3.242   7.059  18.172  0.00  0.00    +0.000 A 
ATOM      5  C   UNL     1       2.545   8.218  17.811  0.00  0.00    +0.000 A 
ATOM      6  C   UNL     1       1.634   8.803  18.700  0.00  0.00    +0.000 A 
ATOM      7  C   UNL     1       1.444   8.212  19.961  0.00  0.00    +0.000 A 
ATOM      8  C   UNL     1       2.134   7.051  20.319  0.00  0.00    +0.000 A 
BRANCH   6   9
ATOM      9  C   UNL     1       0.823  10.021  18.299  0.00  0.00    +0.000 C 
BRANCH   9  10
ATOM     10  N   UNL     1       0.280  10.771  19.442  0.00  0.00    +0.000 NA
ATOM     11  C   UNL     1      -1.089  11.249  19.154  0.00  0.00    +0.000 C 
ATOM     12  C   UNL     1      -1.692  12.049  20.338  0.00  0.00    +0.000 C 
ATOM     13  N   UNL     1      -0.862  13.168  20.831  0.00  0.00    +0.000 NA
ATOM     14  C   UNL     1      -0.900  14.313  19.925  0.00  0.00    +0.000 C 
ATOM     15  C   UNL     1       0.517  12.687  21.033  0.00  0.00    +0.000 C 
ATOM     16  C   UNL     1       1.115  11.923  19.831  0.00  0.00    +0.000 C 
ENDBRANCH   9  10
ENDBRANCH   6   9
ENDBRANCH   1   3
BRANCH   1  17
ATOM     17  S   UNL     1       3.683   3.968  18.740  0.00  0.00    +0.000 S 
ATOM     18  O   UNL     1       2.422   3.994  18.017  0.00  0.00    +0.000 OA
ATOM     19  O   UNL     1       4.045   2.806  19.518  0.00  0.00    +0.000 OA
BRANCH  17  26
ATOM     20  C   UNL     1       6.264   4.696  17.986  0.00  0.00    +0.000 A 
ATOM     21  C   UNL     1       7.253   4.881  17.007  0.00  0.00    +0.000 A 
ATOM     22  C   UNL     1       6.977   4.655  15.655  0.00  0.00    +0.000 A 
ATOM     23  C   UNL     1       5.711   4.233  15.268  0.00  0.00    +0.000 A 
ATOM     24 CL   UNL     1       5.388   3.914  13.609  0.00  0.00    +0.000 Cl
ATOM     25  C   UNL     1       4.713   4.046  16.219  0.00  0.00    +0.000 A 
ATOM     26  C   UNL     1       4.990   4.278  17.575  0.00  0.00    +0.000 A 
BRANCH  20  28
ATOM     27  C   UNL     1       7.672   5.593  19.685  0.00  0.00    +0.000 C 
ATOM     28  O   UNL     1       6.502   4.862  19.323  0.00  0.00    +0.000 OA
ENDBRANCH  20  28
ENDBRANCH  17  26
ENDBRANCH   1  17
TORSDOF 6
ENDMDL
MODEL 3
REMARK VINA RESULT:      -7.7      1.796      2.396
REMARK  Name = 
REMARK  8 active torsions:
REMARK  status: ('A' for Active; 'I' for Inactive)
REMARK    1  A    between atoms: C_1  and  O_2
REMARK    2  A    between atoms: O_2  and  C_3
REMARK    3  A    between atoms: C_9  and  S_10
REMARK    4  A    between atoms: S_10  and  N_13
REMARK    5  A    between atoms: N_13  and  C_14
REMARK    6  A    between atoms: C_17  and  C_18
REMARK    7  A    between atoms: C_18  and  N_19
REMARK    8  A    between atoms: N_22  and  C_23
REMARK                            x       y       z     vdW  Elec       q    Type
REMARK                         _______ _______ _______ _____ _____    ______ ____
ROOT
ATOM      1  N   UNL     1       3.699   5.451  19.617  0.00  0.00    +0.000 N 
ATOM      2  H   UNL     1       3.591   5.113  20.576  0.00  0.00    +0.000 HD
ENDROOT
BRANCH   1   3
ATOM      3  C   UNL     1       3.029   6.663  19.287  0.00  0.00    +0.000 A 
ATOM      4  C   UNL     1       2.126   7.232  20.186  0.00  0.00    +0.000 A 
ATOM      5  C   UNL     1       1.463   8.420  19.857  0.00  0.00    +0.000 A 
ATOM      6  C   UNL     1       1.688   9.036  18.618  0.00  0.00    +0.000 A 
ATOM      7  C   UNL     1       2.579   8.432  17.714  0.00  0.00    +0.000 A 
ATOM      8  C   UNL     1       3.245   7.250  18.045  0.00  0.00    +0.000 A 
BRANCH   6   9
ATOM      9  C   UNL     1       1.029  10.358  18.271  0.00  0.00    +0.000 C 
BRANCH   9  10
ATOM     10  N   UNL     1      -0.423  10.373  18.506  0.00  0.00    +0.000 NA
ATOM     11  C   UNL     1      -1.127   9.556  17.495  0.00  0.00    +0.000 C 
ATOM     12  C   UNL     1      -2.663   9.552  17.710  0.00  0.00    +0.000 C 
ATOM     13  N   UNL     1      -3.290  10.887  17.801  0.00  0.00    +0.000 NA
ATOM     14  C   UNL     1      -3.387  11.534  16.495  0.00  0.00    +0.000 C 
ATOM     15  C   UNL     1      -2.522  11.711  18.754  0.00  0.00    +0.000 C 
ATOM     16  C   UNL     1      -0.998  11.732  18.505  0.00  0.00    +0.000 C 
ENDBRANCH   9  10
ENDBRANCH   6   9
ENDBRANCH   1   3
BRANCH   1  17
ATOM     17  S   UNL     1       3.558   4.146  18.549  0.00  0.00    +0.000 S 
ATOM     18  O   UNL     1       2.319   4.290  17.802  0.00  0.00    +0.000 OA
ATOM     19  O   UNL     1       3.801   2.948  19.319  0.00  0.00    +0.000 OA
BRANCH  17  26
ATOM     20  C   UNL     1       6.199   4.692  17.854  0.00  0.00    +0.000 A 
ATOM     21  C   UNL     1       7.222   4.798  16.898  0.00  0.00    +0.000 A 
ATOM     22  C   UNL     1       6.966   4.572  15.542  0.00  0.00    +0.000 A 
ATOM     23  C   UNL     1       5.685   4.228  15.128  0.00  0.00    +0.000 A 
ATOM     24 CL   UNL     1       5.383   3.908  13.465  0.00  0.00    +0.000 Cl
ATOM     25  C   UNL     1       4.654   4.120  16.055  0.00  0.00    +0.000 A 
ATOM     26  C   UNL     1       4.911   4.353  17.415  0.00  0.00    +0.000 A 
BRANCH  20  28
ATOM     27  C   UNL     1       7.518   5.682  19.573  0.00  0.00    +0.000 C 
ATOM     28  O   UNL     1       6.415   4.861  19.194  0.00  0.00    +0.000 OA
ENDBRANCH  20  28
ENDBRANCH  17  26
ENDBRANCH   1  17
TORSDOF 6
ENDMDL
MODEL 4
REMARK VINA RESULT:      -7.5      2.780      3.781
REMARK  Name = 
REMARK  8 active torsions:
REMARK  status: ('A' for Active; 'I' for Inactive)
REMARK    1  A    between atoms: C_1  and  O_2
REMARK    2  A    between atoms: O_2  and  C_3
REMARK    3  A    between atoms: C_9  and  S_10
REMARK    4  A    between atoms: S_10  and  N_13
REMARK    5  A    between atoms: N_13  and  C_14
REMARK    6  A    between atoms: C_17  and  C_18
REMARK    7  A    between atoms: C_18  and  N_19
REMARK    8  A    between atoms: N_22  and  C_23
REMARK                            x       y       z     vdW  Elec       q    Type
REMARK                         _______ _______ _______ _____ _____    ______ ____
ROOT
ATOM      1  N   UNL     1       3.068   6.470  20.106  0.00  0.00    +0.000 N 
ATOM      2  H   UNL     1       3.162   6.310  21.112  0.00  0.00    +0.000 HD
ENDROOT
BRANCH   1   3
ATOM      3  C   UNL     1       2.293   7.594  19.706  0.00  0.00    +0.000 A 
ATOM      4  C   UNL     1       2.412   8.103  18.412  0.00  0.00    +0.000 A 
ATOM      5  C   UNL     1       1.652   9.212  18.023  0.00  0.00    +0.000 A 
ATOM      6  C   UNL     1       0.782   9.829  18.932  0.00  0.00    +0.000 A 
ATOM      7  C   UNL     1       0.697   9.320  20.239  0.00  0.00    +0.000 A 
ATOM      8  C   UNL     1       1.450   8.209  20.626  0.00  0.00    +0.000 A 
BRANCH   6   9
ATOM      9  C   UNL     1      -0.098  10.990  18.508  0.00  0.00    +0.000 C 
BRANCH   9  10
ATOM     10  N   UNL     1      -1.537  10.717  18.633  0.00  0.00    +0.000 NA
ATOM     11  C   UNL     1      -2.019   9.908  17.493  0.00  0.00    +0.000 C 
ATOM     12  C   UNL     1      -3.536   9.603  17.590  0.00  0.00    +0.000 C 
ATOM     13  N   UNL     1      -4.407  10.784  17.771  0.00  0.00    +0.000 NA
ATOM     14  C   UNL     1      -4.551  11.548  16.534  0.00  0.00    +0.000 C 
ATOM     15  C   UNL     1      -3.860  11.618  18.858  0.00  0.00    +0.000 C 
ATOM     16  C   UNL     1      -2.355  11.941  18.728  0.00  0.00    +0.000 C 
ENDBRANCH   9  10
ENDBRANCH   6   9
ENDBRANCH   1   3
BRANCH   1  17
ATOM     17  S   UNL     1       2.785   4.991  19.334  0.00  0.00    +0.000 S 
ATOM     18  O   UNL     1       1.565   5.103  18.551  0.00  0.00    +0.000 OA
ATOM     19  O   UNL     1       2.903   3.963  20.342  0.00  0.00    +0.000 OA
BRANCH  17  26
ATOM     20  C   UNL     1       4.216   3.748  17.293  0.00  0.00    +0.000 A 
ATOM     21  C   UNL     1       5.306   3.700  16.409  0.00  0.00    +0.000 A 
ATOM     22  C   UNL     1       6.298   4.685  16.435  0.00  0.00    +0.000 A 
ATOM     23  C   UNL     1       6.207   5.735  17.340  0.00  0.00    +0.000 A 
ATOM     24 CL   UNL     1       7.406   6.967  17.341  0.00  0.00    +0.000 Cl
ATOM     25  C   UNL     1       5.140   5.803  18.229  0.00  0.00    +0.000 A 
ATOM     26  C   UNL     1       4.147   4.811  18.205  0.00  0.00    +0.000 A 
BRANCH  20  28
ATOM     27  C   UNL     1       3.423   1.606  17.968  0.00  0.00    +0.000 C 
ATOM     28  O   UNL     1       3.201   2.831  17.272  0.00  0.00    +0.000 OA
ENDBRANCH  20  28
ENDBRANCH  17  26
ENDBRANCH   1  17
TORSDOF 6
ENDMDL
MODEL 5
REMARK VINA RESULT:      -7.1      5.038      9.479
REMARK  Name = 
REMARK  8 active torsions:
REMARK  status: ('A' for Active; 'I' for Inactive)
REMARK    1  A    between atoms: C_1  and  O_2
REMARK    2  A    between atoms: O_2  and  C_3
REMARK    3  A    between atoms: C_9  and  S_10
REMARK    4  A    between atoms: S_10  and  N_13
REMARK    5  A    between atoms: N_13  and  C_14
REMARK    6  A    between atoms: C_17  and  C_18
REMARK    7  A    between atoms: C_18  and  N_19
REMARK    8  A    between atoms: N_22  and  C_23
REMARK                            x       y       z     vdW  Elec       q    Type
REMARK                         _______ _______ _______ _____ _____    ______ ____
ROOT
ATOM      1  N   UNL     1       0.709  11.125  18.276  0.00  0.00    +0.000 N 
ATOM      2  H   UNL     1       0.905  11.397  17.310  0.00  0.00    +0.000 HD
ENDROOT
BRANCH   1   3
ATOM      3  C   UNL     1       1.203   9.859  18.697  0.00  0.00    +0.000 A 
ATOM      4  C   UNL     1       1.109   9.480  20.037  0.00  0.00    +0.000 A 
ATOM      5  C   UNL     1       1.601   8.236  20.451  0.00  0.00    +0.000 A 
ATOM      6  C   UNL     1       2.207   7.373  19.528  0.00  0.00    +0.000 A 
ATOM      7  C   UNL     1       2.319   7.784  18.189  0.00  0.00    +0.000 A 
ATOM      8  C   UNL     1       1.822   9.022  17.775  0.00  0.00    +0.000 A 
BRANCH   6   9
ATOM      9  C   UNL     1       2.686   5.995  19.945  0.00  0.00    +0.000 C 
BRANCH   9  10
ATOM     10  N   UNL     1       2.522   4.972  18.902  0.00  0.00    +0.000 NA
ATOM     11  C   UNL     1       1.740   3.824  19.410  0.00  0.00    +0.000 C 
ATOM     12  C   UNL     1       1.551   2.723  18.335  0.00  0.00    +0.000 C 
ATOM     13  N   UNL     1       2.795   2.241  17.699  0.00  0.00    +0.000 NA
ATOM     14  C   UNL     1       3.556   1.366  18.587  0.00  0.00    +0.000 C 
ATOM     15  C   UNL     1       3.596   3.404  17.274  0.00  0.00    +0.000 C 
ATOM     16  C   UNL     1       3.804   4.476  18.367  0.00  0.00    +0.000 C 
ENDBRANCH   9  10
ENDBRANCH   6   9
ENDBRANCH   1   3
BRANCH   1  17
ATOM     17  S   UNL     1      -0.894  11.519  18.650  0.00  0.00    +0.000 S 
ATOM     18  O   UNL     1      -1.659  10.288  18.763  0.00  0.00    +0.000 OA
ATOM     19  O   UNL     1      -1.303  12.539  17.712  0.00  0.00    +0.000 OA
BRANCH  17  26
ATOM     20  C   UNL     1       0.186  13.195  20.594  0.00  0.00    +0.000 A 
ATOM     21  C   UNL     1       0.164  13.764  21.877  0.00  0.00    +0.000 A 
ATOM     22  C   UNL     1      -0.820  13.408  22.805  0.00  0.00    +0.000 A 
ATOM     23  C   UNL     1      -1.799  12.486  22.455  0.00  0.00    +0.000 A 
ATOM     24 CL   UNL     1      -3.033  12.083  23.583  0.00  0.00    +0.000 Cl
ATOM     25  C   UNL     1      -1.796  11.906  21.191  0.00  0.00    +0.000 A 
ATOM     26  C   UNL     1      -0.805  12.260  20.263  0.00  0.00    +0.000 A 
BRANCH  20  28
ATOM     27  C   UNL     1       2.459  13.676  20.066  0.00  0.00    +0.000 C 
ATOM     28  O   UNL     1       1.103  13.547  19.641  0.00  0.00    +0.000 OA
ENDBRANCH  20  28
ENDBRANCH  17  26
ENDBRANCH   1  17
TORSDOF 6
ENDMDL
MODEL 6
REMARK VINA RESULT:      -7.0      1.468      2.118
REMARK  Name = 
REMARK  8 active torsions:
REMARK  status: ('A' for Active; 'I' for Inactive)
REMARK    1  A    between atoms: C_1  and  O_2
REMARK    2  A    between atoms: O_2  and  C_3
REMARK    3  A    between atoms: C_9  and  S_10
REMARK    4  A    between atoms: S_10  and  N_13
REMARK    5  A    between atoms: N_13  and  C_14
REMARK    6  A    between atoms: C_17  and  C_18
REMARK    7  A    between atoms: C_18  and  N_19
REMARK    8  A    between atoms: N_22  and  C_23
REMARK                            x       y       z     vdW  Elec       q    Type
REMARK                         _______ _______ _______ _____ _____    ______ ____
ROOT
ATOM      1  N   UNL     1       2.610   4.163  17.937  0.00  0.00    +0.000 N 
ATOM      2  H   UNL     1       2.448   4.226  16.930  0.00  0.00    +0.000 HD
ENDROOT
BRANCH   1   3
ATOM      3  C   UNL     1       2.317   5.324  18.706  0.00  0.00    +0.000 A 
ATOM      4  C   UNL     1       2.577   6.593  18.187  0.00  0.00    +0.000 A 
ATOM      5  C   UNL     1       2.294   7.733  18.948  0.00  0.00    +0.000 A 
ATOM      6  C   UNL     1       1.764   7.609  20.239  0.00  0.00    +0.000 A 
ATOM      7  C   UNL     1       1.536   6.323  20.756  0.00  0.00    +0.000 A 
ATOM      8  C   UNL     1       1.813   5.185  19.995  0.00  0.00    +0.000 A 
BRANCH   6   9
ATOM      9  C   UNL     1       1.390   8.835  21.051  0.00  0.00    +0.000 C 
BRANCH   9  10
ATOM     10  N   UNL     1       0.871   9.946  20.239  0.00  0.00    +0.000 NA
ATOM     11  C   UNL     1       1.057  11.237  20.935  0.00  0.00    +0.000 C 
ATOM     12  C   UNL     1       0.518  12.432  20.107  0.00  0.00    +0.000 C 
ATOM     13  N   UNL     1      -0.883  12.304  19.653  0.00  0.00    +0.000 NA
ATOM     14  C   UNL     1      -1.831  12.518  20.744  0.00  0.00    +0.000 C 
ATOM     15  C   UNL     1      -1.065  10.976  19.036  0.00  0.00    +0.000 C 
ATOM     16  C   UNL     1      -0.553   9.794  19.888  0.00  0.00    +0.000 C 
ENDBRANCH   9  10
ENDBRANCH   6   9
ENDBRANCH   1   3
BRANCH   1  17
ATOM     17  S   UNL     1       4.081   3.374  18.215  0.00  0.00    +0.000 S 
ATOM     18  O   UNL     1       3.936   1.977  17.841  0.00  0.00    +0.000 OA
ATOM     19  O   UNL     1       4.497   3.723  19.554  0.00  0.00    +0.000 OA
BRANCH  17  26
ATOM     20  C   UNL     1       6.121   5.123  17.480  0.00  0.00    +0.000 A 
ATOM     21  C   UNL     1       7.009   5.644  16.525  0.00  0.00    +0.000 A 
ATOM     22  C   UNL     1       6.992   5.191  15.203  0.00  0.00    +0.000 A 
ATOM     23  C   UNL     1       6.092   4.203  14.823  0.00  0.00    +0.000 A 
ATOM     24 CL   UNL     1       6.102   3.616  13.206  0.00  0.00    +0.000 Cl
ATOM     25  C   UNL     1       5.199   3.673  15.748  0.00  0.00    +0.000 A 
ATOM     26  C   UNL     1       5.214   4.133  17.074  0.00  0.00    +0.000 A 
BRANCH  20  28
ATOM     27  C   UNL     1       7.410   5.682  19.403  0.00  0.00    +0.000 C 
ATOM     28  O   UNL     1       6.133   5.506  18.793  0.00  0.00    +0.000 OA
ENDBRANCH  20  28
ENDBRANCH  17  26
ENDBRANCH   1  17
TORSDOF 6
ENDMDL
MODEL 7
REMARK VINA RESULT:      -7.0      1.271      1.751
REMARK  Name = 
REMARK  8 active torsions:
REMARK  status: ('A' for Active; 'I' for Inactive)
REMARK    1  A    between atoms: C_1  and  O_2
REMARK    2  A    between atoms: O_2  and  C_3
REMARK    3  A    between atoms: C_9  and  S_10
REMARK    4  A    between atoms: S_10  and  N_13
REMARK    5  A    between atoms: N_13  and  C_14
REMARK    6  A    between atoms: C_17  and  C_18
REMARK    7  A    between atoms: C_18  and  N_19
REMARK    8  A    between atoms: N_22  and  C_23
REMARK                            x       y       z     vdW  Elec       q    Type
REMARK                         _______ _______ _______ _____ _____    ______ ____
ROOT
ATOM      1  N   UNL     1       3.113   4.664  18.493  0.00  0.00    +0.000 N 
ATOM      2  H   UNL     1       2.987   4.489  17.494  0.00  0.00    +0.000 HD
ENDROOT
BRANCH   1   3
ATOM      3  C   UNL     1       2.568   5.874  19.005  0.00  0.00    +0.000 A 
ATOM      4  C   UNL     1       1.941   5.888  20.252  0.00  0.00    +0.000 A 
ATOM      5  C   UNL     1       1.400   7.079  20.751  0.00  0.00    +0.000 A 
ATOM      6  C   UNL     1       1.468   8.258  19.998  0.00  0.00    +0.000 A 
ATOM      7  C   UNL     1       2.078   8.218  18.732  0.00  0.00    +0.000 A 
ATOM      8  C   UNL     1       2.623   7.032  18.236  0.00  0.00    +0.000 A 
BRANCH   6   9
ATOM      9  C   UNL     1       0.946   9.571  20.551  0.00  0.00    +0.000 C 
BRANCH   9  10
ATOM     10  N   UNL     1       0.572  10.542  19.512  0.00  0.00    +0.000 NA
ATOM     11  C   UNL     1       1.341  11.796  19.665  0.00  0.00    +0.000 C 
ATOM     12  C   UNL     1       0.969  12.846  18.586  0.00  0.00    +0.000 C 
ATOM     13  N   UNL     1      -0.473  13.152  18.474  0.00  0.00    +0.000 NA
ATOM     14  C   UNL     1      -0.939  13.990  19.576  0.00  0.00    +0.000 C 
ATOM     15  C   UNL     1      -1.226  11.885  18.406  0.00  0.00    +0.000 C 
ATOM     16  C   UNL     1      -0.867  10.863  19.508  0.00  0.00    +0.000 C 
ENDBRANCH   9  10
ENDBRANCH   6   9
ENDBRANCH   1   3
BRANCH   1  17
ATOM     17  S   UNL     1       4.696   4.254  18.932  0.00  0.00    +0.000 S 
ATOM     18  O   UNL     1       4.722   2.854  19.321  0.00  0.00    +0.000 OA
ATOM     19  O   UNL     1       5.149   5.270  19.855  0.00  0.00    +0.000 OA
BRANCH  17  26
ATOM     20  C   UNL     1       6.999   4.735  17.440  0.00  0.00    +0.000 A 
ATOM     21  C   UNL     1       7.674   4.812  16.211  0.00  0.00    +0.000 A 
ATOM     22  C   UNL     1       7.002   4.585  15.006  0.00  0.00    +0.000 A 
ATOM     23  C   UNL     1       5.649   4.269  15.017  0.00  0.00    +0.000 A 
ATOM     24 CL   UNL     1       4.837   3.947  13.536  0.00  0.00    +0.000 Cl
ATOM     25  C   UNL     1       4.958   4.190  16.220  0.00  0.00    +0.000 A 
ATOM     26  C   UNL     1       5.631   4.424  17.429  0.00  0.00    +0.000 A 
BRANCH  20  28
ATOM     27  C   UNL     1       8.061   6.226  18.963  0.00  0.00    +0.000 C 
ATOM     28  O   UNL     1       7.625   4.907  18.644  0.00  0.00    +0.000 OA
ENDBRANCH  20  28
ENDBRANCH  17  26
ENDBRANCH   1  17
TORSDOF 6
ENDMDL
MODEL 8
REMARK VINA RESULT:      -7.0      5.498     10.290
REMARK  Name = 
REMARK  8 active torsions:
REMARK  status: ('A' for Active; 'I' for Inactive)
REMARK    1  A    between atoms: C_1  and  O_2
REMARK    2  A    between atoms: O_2  and  C_3
REMARK    3  A    between atoms: C_9  and  S_10
REMARK    4  A    between atoms: S_10  and  N_13
REMARK    5  A    between atoms: N_13  and  C_14
REMARK    6  A    between atoms: C_17  and  C_18
REMARK    7  A    between atoms: C_18  and  N_19
REMARK    8  A    between atoms: N_22  and  C_23
REMARK                            x       y       z     vdW  Elec       q    Type
REMARK                         _______ _______ _______ _____ _____    ______ ____
ROOT
ATOM      1  N   UNL     1      -0.071  11.183  19.596  0.00  0.00    +0.000 N 
ATOM      2  H   UNL     1       0.417  12.076  19.685  0.00  0.00    +0.000 HD
ENDROOT
BRANCH   1   3
ATOM      3  C   UNL     1       0.732  10.039  19.329  0.00  0.00    +0.000 A 
ATOM      4  C   UNL     1       1.294   9.856  18.065  0.00  0.00    +0.000 A 
ATOM      5  C   UNL     1       2.079   8.726  17.803  0.00  0.00    +0.000 A 
ATOM      6  C   UNL     1       2.292   7.765  18.801  0.00  0.00    +0.000 A 
ATOM      7  C   UNL     1       1.694   7.953  20.059  0.00  0.00    +0.000 A 
ATOM      8  C   UNL     1       0.916   9.082  20.322  0.00  0.00    +0.000 A 
BRANCH   6   9
ATOM      9  C   UNL     1       3.193   6.570  18.555  0.00  0.00    +0.000 C 
BRANCH   9  10
ATOM     10  N   UNL     1       2.615   5.293  19.001  0.00  0.00    +0.000 NA
ATOM     11  C   UNL     1       3.625   4.479  19.710  0.00  0.00    +0.000 C 
ATOM     12  C   UNL     1       3.050   3.122  20.192  0.00  0.00    +0.000 C 
ATOM     13  N   UNL     1       2.392   2.308  19.148  0.00  0.00    +0.000 NA
ATOM     14  C   UNL     1       3.363   1.679  18.256  0.00  0.00    +0.000 C 
ATOM     15  C   UNL     1       1.449   3.163  18.401  0.00  0.00    +0.000 C 
ATOM     16  C   UNL     1       2.047   4.495  17.898  0.00  0.00    +0.000 C 
ENDBRANCH   9  10
ENDBRANCH   6   9
ENDBRANCH   1   3
BRANCH   1  17
ATOM     17  S   UNL     1      -1.472  11.405  18.672  0.00  0.00    +0.000 S 
ATOM     18  O   UNL     1      -1.956  10.104  18.244  0.00  0.00    +0.000 OA
ATOM     19  O   UNL     1      -1.168  12.422  17.691  0.00  0.00    +0.000 OA
BRANCH  17  26
ATOM     20  C   UNL     1      -3.998  12.270  19.463  0.00  0.00    +0.000 A 
ATOM     21  C   UNL     1      -4.877  12.774  20.436  0.00  0.00    +0.000 A 
ATOM     22  C   UNL     1      -4.425  13.082  21.723  0.00  0.00    +0.000 A 
ATOM     23  C   UNL     1      -3.091  12.881  22.054  0.00  0.00    +0.000 A 
ATOM     24 CL   UNL     1      -2.548  13.220  23.650  0.00  0.00    +0.000 Cl
ATOM     25  C   UNL     1      -2.200  12.387  21.107  0.00  0.00    +0.000 A 
ATOM     26  C   UNL     1      -2.654  12.083  19.815  0.00  0.00    +0.000 A 
BRANCH  20  28
ATOM     27  C   UNL     1      -5.765  12.183  17.868  0.00  0.00    +0.000 C 
ATOM     28  O   UNL     1      -4.406  11.914  18.207  0.00  0.00    +0.000 OA
ENDBRANCH  20  28
ENDBRANCH  17  26
ENDBRANCH   1  17
TORSDOF 6
ENDMDL
MODEL 9
REMARK VINA RESULT:      -7.0      1.910      2.690
REMARK  Name = 
REMARK  8 active torsions:
REMARK  status: ('A' for Active; 'I' for Inactive)
REMARK    1  A    between atoms: C_1  and  O_2
REMARK    2  A    between atoms: O_2  and  C_3
REMARK    3  A    between atoms: C_9  and  S_10
REMARK    4  A    between atoms: S_10  and  N_13
REMARK    5  A    between atoms: N_13  and  C_14
REMARK    6  A    between atoms: C_17  and  C_18
REMARK    7  A    between atoms: C_18  and  N_19
REMARK    8  A    between atoms: N_22  and  C_23
REMARK                            x       y       z     vdW  Elec       q    Type
REMARK                         _______ _______ _______ _____ _____    ______ ____
ROOT
ATOM      1  N   UNL     1       3.068   6.472  20.104  0.00  0.00    +0.000 N 
ATOM      2  H   UNL     1       3.197   6.315  21.106  0.00  0.00    +0.000 HD
ENDROOT
BRANCH   1   3
ATOM      3  C   UNL     1       2.245   7.571  19.729  0.00  0.00    +0.000 A 
ATOM      4  C   UNL     1       2.301   8.078  18.430  0.00  0.00    +0.000 A 
ATOM      5  C   UNL     1       1.496   9.163  18.065  0.00  0.00    +0.000 A 
ATOM      6  C   UNL     1       0.643   9.759  19.004  0.00  0.00    +0.000 A 
ATOM      7  C   UNL     1       0.622   9.253  20.315  0.00  0.00    +0.000 A 
ATOM      8  C   UNL     1       1.420   8.166  20.678  0.00  0.00    +0.000 A 
BRANCH   6   9
ATOM      9  C   UNL     1      -0.285  10.893  18.609  0.00  0.00    +0.000 C 
BRANCH   9  10
ATOM     10  N   UNL     1      -0.140  12.093  19.446  0.00  0.00    +0.000 NA
ATOM     11  C   UNL     1      -1.369  12.914  19.405  0.00  0.00    +0.000 C 
ATOM     12  C   UNL     1      -1.250  14.192  20.275  0.00  0.00    +0.000 C 
ATOM     13  N   UNL     1      -0.071  15.038  19.995  0.00  0.00    +0.000 NA
ATOM     14  C   UNL     1      -0.224  15.792  18.754  0.00  0.00    +0.000 C 
ATOM     15  C   UNL     1       1.132  14.185  19.961  0.00  0.00    +0.000 C 
ATOM     16  C   UNL     1       1.009  12.934  19.062  0.00  0.00    +0.000 C 
ENDBRANCH   9  10
ENDBRANCH   6   9
ENDBRANCH   1   3
BRANCH   1  17
ATOM     17  S   UNL     1       2.807   4.985  19.338  0.00  0.00    +0.000 S 
ATOM     18  O   UNL     1       1.584   5.074  18.558  0.00  0.00    +0.000 OA
ATOM     19  O   UNL     1       2.944   3.964  20.351  0.00  0.00    +0.000 OA
BRANCH  17  26
ATOM     20  C   UNL     1       4.248   3.765  17.291  0.00  0.00    +0.000 A 
ATOM     21  C   UNL     1       5.337   3.730  16.405  0.00  0.00    +0.000 A 
ATOM     22  C   UNL     1       6.320   4.724  16.435  0.00  0.00    +0.000 A 
ATOM     23  C   UNL     1       6.219   5.769  17.345  0.00  0.00    +0.000 A 
ATOM     24 CL   UNL     1       7.407   7.013  17.349  0.00  0.00    +0.000 Cl
ATOM     25  C   UNL     1       5.153   5.824  18.235  0.00  0.00    +0.000 A 
ATOM     26  C   UNL     1       4.169   4.823  18.208  0.00  0.00    +0.000 A 
BRANCH  20  28
ATOM     27  C   UNL     1       3.464   1.624  17.982  0.00  0.00    +0.000 C 
ATOM     28  O   UNL     1       3.241   2.838  17.267  0.00  0.00    +0.000 OA
ENDBRANCH  20  28
ENDBRANCH  17  26
ENDBRANCH   1  17
TORSDOF 6
ENDMDL
