MODEL 1
REMARK VINA RESULT:      -7.2      0.000      0.000
REMARK  Name = 
REMARK  3 active torsions:
REMARK  status: ('A' for Active; 'I' for Inactive)
REMARK    1  A    between atoms: C_2  and  C_23
REMARK    2  A    between atoms: C_7  and  C_8
REMARK    3  A    between atoms: C_14  and  C_15
REMARK                            x       y       z     vdW  Elec       q    Type
REMARK                         _______ _______ _______ _____ _____    ______ ____
ROOT
ATOM      1  O   UNL     1       0.891   9.980  17.770  0.00  0.00    +0.000 OA
ATOM      2  C   UNL     1       0.705   9.448  18.856  0.00  0.00    +0.000 C 
ATOM      3  N   UNL     1       1.420   8.400  19.382  0.00  0.00    +0.000 N 
ATOM      4  C   UNL     1       2.466   7.767  18.710  0.00  0.00    +0.000 A 
ATOM      5  C   UNL     1       3.334   8.444  17.875  0.00  0.00    +0.000 A 
ATOM      6  C   UNL     1       4.254   7.712  17.136  0.00  0.00    +0.000 A 
ATOM      7  C   UNL     1       4.304   6.308  17.215  0.00  0.00    +0.000 A 
ATOM      8  C   UNL     1       3.445   5.717  18.177  0.00  0.00    +0.000 A 
ATOM      9  N   UNL     1       2.562   6.442  18.928  0.00  0.00    +0.000 NA
ATOM     10  H   UNL     1       0.990   7.839  20.104  0.00  0.00    +0.000 HD
ENDROOT
BRANCH   8  11
ATOM     11  C   UNL     1       3.340   4.261  18.463  0.00  0.00    +0.000 A 
ATOM     12  C   UNL     1       2.436   3.458  17.730  0.00  0.00    +0.000 A 
ATOM     13  C   UNL     1       2.359   2.073  17.919  0.00  0.00    +0.000 A 
ATOM     14  C   UNL     1       3.199   1.458  18.839  0.00  0.00    +0.000 A 
ATOM     15  C   UNL     1       4.074   2.235  19.585  0.00  0.00    +0.000 A 
ATOM     16  F   UNL     1       4.905   1.642  20.452  0.00  0.00    +0.000 F 
ATOM     17  C   UNL     1       4.126   3.618  19.431  0.00  0.00    +0.000 A 
ENDBRANCH   8  11
BRANCH   7  18
ATOM     18  C   UNL     1       5.213   5.568  16.301  0.00  0.00    +0.000 A 
ATOM     19  C   UNL     1       4.717   4.864  15.191  0.00  0.00    +0.000 A 
ATOM     20  C   UNL     1       5.603   4.248  14.320  0.00  0.00    +0.000 A 
ATOM     21  N   UNL     1       6.943   4.295  14.455  0.00  0.00    +0.000 NA
ATOM     22  C   UNL     1       7.413   4.942  15.538  0.00  0.00    +0.000 A 
ATOM     23  C   UNL     1       6.602   5.537  16.490  0.00  0.00    +0.000 A 
ENDBRANCH   7  18
BRANCH   2  24
ATOM     24  C   UNL     1      -0.439   9.877  19.710  0.00  0.00    +0.000 C 
ATOM     25  C   UNL     1      -0.400  11.214  20.419  0.00  0.00    +0.000 C 
ATOM     26  C   UNL     1      -1.343  11.005  19.271  0.00  0.00    +0.000 C 
ENDBRANCH   2  24
TORSDOF 3
ENDMDL
MODEL 2
REMARK VINA RESULT:      -7.1      3.063      7.167
REMARK  Name = 
REMARK  3 active torsions:
REMARK  status: ('A' for Active; 'I' for Inactive)
REMARK    1  A    between atoms: C_2  and  C_23
REMARK    2  A    between atoms: C_7  and  C_8
REMARK    3  A    between atoms: C_14  and  C_15
REMARK                            x       y       z     vdW  Elec       q    Type
REMARK                         _______ _______ _______ _____ _____    ______ ____
ROOT
ATOM      1  O   UNL     1       5.964   3.684  13.956  0.00  0.00    +0.000 OA
ATOM      2  C   UNL     1       6.320   4.847  14.095  0.00  0.00    +0.000 C 
ATOM      3  N   UNL     1       6.105   5.638  15.198  0.00  0.00    +0.000 N 
ATOM      4  C   UNL     1       5.404   5.211  16.326  0.00  0.00    +0.000 A 
ATOM      5  C   UNL     1       5.457   3.911  16.790  0.00  0.00    +0.000 A 
ATOM      6  C   UNL     1       4.617   3.540  17.832  0.00  0.00    +0.000 A 
ATOM      7  C   UNL     1       3.715   4.456  18.405  0.00  0.00    +0.000 A 
ATOM      8  C   UNL     1       3.811   5.790  17.930  0.00  0.00    +0.000 A 
ATOM      9  N   UNL     1       4.661   6.161  16.926  0.00  0.00    +0.000 NA
ATOM     10  H   UNL     1       6.137   6.641  15.083  0.00  0.00    +0.000 HD
ENDROOT
BRANCH   8  11
ATOM     11  C   UNL     1       2.987   6.935  18.400  0.00  0.00    +0.000 A 
ATOM     12  C   UNL     1       2.630   7.968  17.502  0.00  0.00    +0.000 A 
ATOM     13  C   UNL     1       1.797   9.025  17.887  0.00  0.00    +0.000 A 
ATOM     14  C   UNL     1       1.290   9.064  19.180  0.00  0.00    +0.000 A 
ATOM     15  C   UNL     1       1.651   8.072  20.082  0.00  0.00    +0.000 A 
ATOM     16  F   UNL     1       1.141   8.090  21.320  0.00  0.00    +0.000 F 
ATOM     17  C   UNL     1       2.513   7.040  19.716  0.00  0.00    +0.000 A 
ENDBRANCH   8  11
BRANCH   7  18
ATOM     18  C   UNL     1       2.745   3.970  19.421  0.00  0.00    +0.000 A 
ATOM     19  C   UNL     1       1.421   3.653  19.073  0.00  0.00    +0.000 A 
ATOM     20  C   UNL     1       0.568   3.133  20.034  0.00  0.00    +0.000 A 
ATOM     21  N   UNL     1       0.933   2.885  21.307  0.00  0.00    +0.000 NA
ATOM     22  C   UNL     1       2.192   3.222  21.644  0.00  0.00    +0.000 A 
ATOM     23  C   UNL     1       3.095   3.798  20.767  0.00  0.00    +0.000 A 
ENDBRANCH   7  18
BRANCH   2  24
ATOM     24  C   UNL     1       6.987   5.562  12.971  0.00  0.00    +0.000 C 
ATOM     25  C   UNL     1       8.494   5.519  12.830  0.00  0.00    +0.000 C 
ATOM     26  C   UNL     1       7.632   4.787  11.844  0.00  0.00    +0.000 C 
ENDBRANCH   2  24
TORSDOF 3
ENDMDL
MODEL 3
REMARK VINA RESULT:      -7.1      1.810      2.305
REMARK  Name = 
REMARK  3 active torsions:
REMARK  status: ('A' for Active; 'I' for Inactive)
REMARK    1  A    between atoms: C_2  and  C_23
REMARK    2  A    between atoms: C_7  and  C_8
REMARK    3  A    between atoms: C_14  and  C_15
REMARK                            x       y       z     vdW  Elec       q    Type
REMARK                         _______ _______ _______ _____ _____    ______ ____
ROOT
ATOM      1  O   UNL     1       0.149  10.829  18.078  0.00  0.00    +0.000 OA
ATOM      2  C   UNL     1      -0.053  10.485  19.235  0.00  0.00    +0.000 C 
ATOM      3  N   UNL     1       0.581   9.466  19.904  0.00  0.00    +0.000 N 
ATOM      4  C   UNL     1       1.545   8.645  19.319  0.00  0.00    +0.000 A 
ATOM      5  C   UNL     1       2.447   9.105  18.379  0.00  0.00    +0.000 A 
ATOM      6  C   UNL     1       3.276   8.189  17.746  0.00  0.00    +0.000 A 
ATOM      7  C   UNL     1       3.203   6.815  18.037  0.00  0.00    +0.000 A 
ATOM      8  C   UNL     1       2.321   6.456  19.090  0.00  0.00    +0.000 A 
ATOM      9  N   UNL     1       1.528   7.364  19.734  0.00  0.00    +0.000 NA
ATOM     10  H   UNL     1       0.122   9.061  20.708  0.00  0.00    +0.000 HD
ENDROOT
BRANCH   8  11
ATOM     11  C   UNL     1       2.095   5.076  19.594  0.00  0.00    +0.000 A 
ATOM     12  C   UNL     1       2.610   4.687  20.852  0.00  0.00    +0.000 A 
ATOM     13  C   UNL     1       2.359   3.421  21.393  0.00  0.00    +0.000 A 
ATOM     14  C   UNL     1       1.570   2.518  20.691  0.00  0.00    +0.000 A 
ATOM     15  C   UNL     1       1.077   2.874  19.443  0.00  0.00    +0.000 A 
ATOM     16  F   UNL     1       0.293   2.018  18.776  0.00  0.00    +0.000 F 
ATOM     17  C   UNL     1       1.359   4.117  18.881  0.00  0.00    +0.000 A 
ENDBRANCH   8  11
BRANCH   7  18
ATOM     18  C   UNL     1       4.015   5.865  17.231  0.00  0.00    +0.000 A 
ATOM     19  C   UNL     1       4.922   6.321  16.260  0.00  0.00    +0.000 A 
ATOM     20  C   UNL     1       5.714   5.407  15.582  0.00  0.00    +0.000 A 
ATOM     21  N   UNL     1       5.691   4.079  15.809  0.00  0.00    +0.000 NA
ATOM     22  C   UNL     1       4.797   3.643  16.716  0.00  0.00    +0.000 A 
ATOM     23  C   UNL     1       3.927   4.476  17.399  0.00  0.00    +0.000 A 
ENDBRANCH   7  18
BRANCH   2  24
ATOM     24  C   UNL     1      -1.129  11.141  20.031  0.00  0.00    +0.000 C 
ATOM     25  C   UNL     1      -0.859  12.451  20.740  0.00  0.00    +0.000 C 
ATOM     26  C   UNL     1      -1.768  12.422  19.547  0.00  0.00    +0.000 C 
ENDBRANCH   2  24
TORSDOF 3
ENDMDL
MODEL 4
REMARK VINA RESULT:      -7.1      1.337      1.559
REMARK  Name = 
REMARK  3 active torsions:
REMARK  status: ('A' for Active; 'I' for Inactive)
REMARK    1  A    between atoms: C_2  and  C_23
REMARK    2  A    between atoms: C_7  and  C_8
REMARK    3  A    between atoms: C_14  and  C_15
REMARK                            x       y       z     vdW  Elec       q    Type
REMARK                         _______ _______ _______ _____ _____    ______ ____
ROOT
ATOM      1  O   UNL     1       0.130  10.049  17.678  0.00  0.00    +0.000 OA
ATOM      2  C   UNL     1       0.046   9.885  18.888  0.00  0.00    +0.000 C 
ATOM      3  N   UNL     1       0.860   9.093  19.661  0.00  0.00    +0.000 N 
ATOM      4  C   UNL     1       1.903   8.324  19.143  0.00  0.00    +0.000 A 
ATOM      5  C   UNL     1       2.672   8.736  18.072  0.00  0.00    +0.000 A 
ATOM      6  C   UNL     1       3.593   7.848  17.532  0.00  0.00    +0.000 A 
ATOM      7  C   UNL     1       3.742   6.547  18.047  0.00  0.00    +0.000 A 
ATOM      8  C   UNL     1       2.983   6.257  19.211  0.00  0.00    +0.000 A 
ATOM      9  N   UNL     1       2.100   7.144  19.760  0.00  0.00    +0.000 NA
ATOM     10  H   UNL     1       0.513   8.774  20.554  0.00  0.00    +0.000 HD
ENDROOT
BRANCH   8  11
ATOM     11  C   UNL     1       2.993   4.967  19.949  0.00  0.00    +0.000 A 
ATOM     12  C   UNL     1       1.974   4.678  20.887  0.00  0.00    +0.000 A 
ATOM     13  C   UNL     1       1.909   3.447  21.549  0.00  0.00    +0.000 A 
ATOM     14  C   UNL     1       2.857   2.468  21.275  0.00  0.00    +0.000 A 
ATOM     15  C   UNL     1       3.878   2.744  20.377  0.00  0.00    +0.000 A 
ATOM     16  F   UNL     1       4.776   1.793  20.089  0.00  0.00    +0.000 F 
ATOM     17  C   UNL     1       3.972   3.982  19.746  0.00  0.00    +0.000 A 
ENDBRANCH   8  11
BRANCH   7  18
ATOM     18  C   UNL     1       4.641   5.593  17.345  0.00  0.00    +0.000 A 
ATOM     19  C   UNL     1       4.127   4.558  16.546  0.00  0.00    +0.000 A 
ATOM     20  C   UNL     1       4.999   3.735  15.849  0.00  0.00    +0.000 A 
ATOM     21  N   UNL     1       6.339   3.875  15.867  0.00  0.00    +0.000 NA
ATOM     22  C   UNL     1       6.828   4.847  16.660  0.00  0.00    +0.000 A 
ATOM     23  C   UNL     1       6.037   5.678  17.435  0.00  0.00    +0.000 A 
ENDBRANCH   7  18
BRANCH   2  24
ATOM     24  C   UNL     1      -1.070  10.514  19.650  0.00  0.00    +0.000 C 
ATOM     25  C   UNL     1      -0.933  11.929  20.170  0.00  0.00    +0.000 C 
ATOM     26  C   UNL     1      -1.877  11.637  19.041  0.00  0.00    +0.000 C 
ENDBRANCH   2  24
TORSDOF 3
ENDMDL
MODEL 5
REMARK VINA RESULT:      -7.1      1.463      1.880
REMARK  Name = 
REMARK  3 active torsions:
REMARK  status: ('A' for Active; 'I' for Inactive)
REMARK    1  A    between atoms: C_2  and  C_23
REMARK    2  A    between atoms: C_7  and  C_8
REMARK    3  A    between atoms: C_14  and  C_15
REMARK                            x       y       z     vdW  Elec       q    Type
REMARK                         _______ _______ _______ _____ _____    ______ ____
ROOT
ATOM      1  O   UNL     1      -0.041  10.331  17.995  0.00  0.00    +0.000 OA
ATOM      2  C   UNL     1      -0.061  10.136  19.204  0.00  0.00    +0.000 C 
ATOM      3  N   UNL     1       0.758   9.284  19.904  0.00  0.00    +0.000 N 
ATOM      4  C   UNL     1       1.730   8.483  19.303  0.00  0.00    +0.000 A 
ATOM      5  C   UNL     1       2.453   8.890  18.199  0.00  0.00    +0.000 A 
ATOM      6  C   UNL     1       3.296   7.976  17.580  0.00  0.00    +0.000 A 
ATOM      7  C   UNL     1       3.411   6.654  18.050  0.00  0.00    +0.000 A 
ATOM      8  C   UNL     1       2.710   6.366  19.250  0.00  0.00    +0.000 A 
ATOM      9  N   UNL     1       1.906   7.277  19.875  0.00  0.00    +0.000 NA
ATOM     10  H   UNL     1       0.449   8.955  20.807  0.00  0.00    +0.000 HD
ENDROOT
BRANCH   8  11
ATOM     11  C   UNL     1       2.701   5.055  19.951  0.00  0.00    +0.000 A 
ATOM     12  C   UNL     1       1.526   4.602  20.593  0.00  0.00    +0.000 A 
ATOM     13  C   UNL     1       1.456   3.344  21.202  0.00  0.00    +0.000 A 
ATOM     14  C   UNL     1       2.561   2.503  21.169  0.00  0.00    +0.000 A 
ATOM     15  C   UNL     1       3.731   2.941  20.565  0.00  0.00    +0.000 A 
ATOM     16  F   UNL     1       4.789   2.122  20.506  0.00  0.00    +0.000 F 
ATOM     17  C   UNL     1       3.820   4.209  19.994  0.00  0.00    +0.000 A 
ENDBRANCH   8  11
BRANCH   7  18
ATOM     18  C   UNL     1       4.220   5.681  17.269  0.00  0.00    +0.000 A 
ATOM     19  C   UNL     1       5.517   5.996  16.830  0.00  0.00    +0.000 A 
ATOM     20  C   UNL     1       6.266   5.035  16.168  0.00  0.00    +0.000 A 
ATOM     21  N   UNL     1       5.836   3.781  15.928  0.00  0.00    +0.000 NA
ATOM     22  C   UNL     1       4.580   3.495  16.320  0.00  0.00    +0.000 A 
ATOM     23  C   UNL     1       3.740   4.407  16.936  0.00  0.00    +0.000 A 
ENDBRANCH   7  18
BRANCH   2  24
ATOM     24  C   UNL     1      -1.098  10.793  20.048  0.00  0.00    +0.000 C 
ATOM     25  C   UNL     1      -0.762  12.046  20.829  0.00  0.00    +0.000 C 
ATOM     26  C   UNL     1      -1.682  12.128  19.646  0.00  0.00    +0.000 C 
ENDBRANCH   2  24
TORSDOF 3
ENDMDL
MODEL 6
REMARK VINA RESULT:      -6.9      2.374      4.191
REMARK  Name = 
REMARK  3 active torsions:
REMARK  status: ('A' for Active; 'I' for Inactive)
REMARK    1  A    between atoms: C_2  and  C_23
REMARK    2  A    between atoms: C_7  and  C_8
REMARK    3  A    between atoms: C_14  and  C_15
REMARK                            x       y       z     vdW  Elec       q    Type
REMARK                         _______ _______ _______ _____ _____    ______ ____
ROOT
ATOM      1  O   UNL     1       1.171  10.435  19.737  0.00  0.00    +0.000 OA
ATOM      2  C   UNL     1       1.708  10.837  18.714  0.00  0.00    +0.000 C 
ATOM      3  N   UNL     1       2.266  10.059  17.729  0.00  0.00    +0.000 N 
ATOM      4  C   UNL     1       2.320   8.666  17.785  0.00  0.00    +0.000 A 
ATOM      5  C   UNL     1       1.319   7.904  18.356  0.00  0.00    +0.000 A 
ATOM      6  C   UNL     1       1.520   6.537  18.498  0.00  0.00    +0.000 A 
ATOM      7  C   UNL     1       2.719   5.928  18.085  0.00  0.00    +0.000 A 
ATOM      8  C   UNL     1       3.640   6.778  17.417  0.00  0.00    +0.000 A 
ATOM      9  N   UNL     1       3.426   8.117  17.249  0.00  0.00    +0.000 NA
ATOM     10  H   UNL     1       2.955  10.476  17.119  0.00  0.00    +0.000 HD
ENDROOT
BRANCH   8  11
ATOM     11  C   UNL     1       4.957   6.360  16.867  0.00  0.00    +0.000 A 
ATOM     12  C   UNL     1       6.146   6.654  17.574  0.00  0.00    +0.000 A 
ATOM     13  C   UNL     1       7.398   6.217  17.126  0.00  0.00    +0.000 A 
ATOM     14  C   UNL     1       7.486   5.460  15.964  0.00  0.00    +0.000 A 
ATOM     15  C   UNL     1       6.332   5.184  15.244  0.00  0.00    +0.000 A 
ATOM     16  F   UNL     1       6.409   4.431  14.140  0.00  0.00    +0.000 F 
ATOM     17  C   UNL     1       5.088   5.652  15.663  0.00  0.00    +0.000 A 
ENDBRANCH   8  11
BRANCH   7  18
ATOM     18  C   UNL     1       2.937   4.489  18.386  0.00  0.00    +0.000 A 
ATOM     19  C   UNL     1       2.411   3.482  17.559  0.00  0.00    +0.000 A 
ATOM     20  C   UNL     1       2.697   2.154  17.832  0.00  0.00    +0.000 A 
ATOM     21  N   UNL     1       3.482   1.749  18.850  0.00  0.00    +0.000 NA
ATOM     22  C   UNL     1       3.956   2.714  19.660  0.00  0.00    +0.000 A 
ATOM     23  C   UNL     1       3.676   4.060  19.497  0.00  0.00    +0.000 A 
ENDBRANCH   7  18
BRANCH   2  24
ATOM     24  C   UNL     1       1.879  12.299  18.486  0.00  0.00    +0.000 C 
ATOM     25  C   UNL     1       0.668  13.208  18.436  0.00  0.00    +0.000 C 
ATOM     26  C   UNL     1       1.613  13.286  19.599  0.00  0.00    +0.000 C 
ENDBRANCH   2  24
TORSDOF 3
ENDMDL
MODEL 7
REMARK VINA RESULT:      -6.9      3.289      7.328
REMARK  Name = 
REMARK  3 active torsions:
REMARK  status: ('A' for Active; 'I' for Inactive)
REMARK    1  A    between atoms: C_2  and  C_23
REMARK    2  A    between atoms: C_7  and  C_8
REMARK    3  A    between atoms: C_14  and  C_15
REMARK                            x       y       z     vdW  Elec       q    Type
REMARK                         _______ _______ _______ _____ _____    ______ ____
ROOT
ATOM      1  O   UNL     1       6.003   3.639  13.915  0.00  0.00    +0.000 OA
ATOM      2  C   UNL     1       6.325   4.809  14.080  0.00  0.00    +0.000 C 
ATOM      3  N   UNL     1       6.093   5.566  15.202  0.00  0.00    +0.000 N 
ATOM      4  C   UNL     1       5.410   5.093  16.323  0.00  0.00    +0.000 A 
ATOM      5  C   UNL     1       5.504   3.784  16.755  0.00  0.00    +0.000 A 
ATOM      6  C   UNL     1       4.681   3.364  17.792  0.00  0.00    +0.000 A 
ATOM      7  C   UNL     1       3.756   4.239  18.390  0.00  0.00    +0.000 A 
ATOM      8  C   UNL     1       3.810   5.586  17.947  0.00  0.00    +0.000 A 
ATOM      9  N   UNL     1       4.643   6.005  16.949  0.00  0.00    +0.000 NA
ATOM     10  H   UNL     1       6.095   6.572  15.111  0.00  0.00    +0.000 HD
ENDROOT
BRANCH   8  11
ATOM     11  C   UNL     1       2.955   6.695  18.448  0.00  0.00    +0.000 A 
ATOM     12  C   UNL     1       2.519   6.702  19.794  0.00  0.00    +0.000 A 
ATOM     13  C   UNL     1       1.774   7.762  20.322  0.00  0.00    +0.000 A 
ATOM     14  C   UNL     1       1.459   8.849  19.517  0.00  0.00    +0.000 A 
ATOM     15  C   UNL     1       1.857   8.848  18.187  0.00  0.00    +0.000 A 
ATOM     16  F   UNL     1       1.582   9.906  17.416  0.00  0.00    +0.000 F 
ATOM     17  C   UNL     1       2.564   7.776  17.645  0.00  0.00    +0.000 A 
ENDBRANCH   8  11
BRANCH   7  18
ATOM     18  C   UNL     1       2.805   3.700  19.399  0.00  0.00    +0.000 A 
ATOM     19  C   UNL     1       3.228   3.368  20.696  0.00  0.00    +0.000 A 
ATOM     20  C   UNL     1       2.297   2.938  21.630  0.00  0.00    +0.000 A 
ATOM     21  N   UNL     1       0.978   2.834  21.381  0.00  0.00    +0.000 NA
ATOM     22  C   UNL     1       0.581   3.122  20.127  0.00  0.00    +0.000 A 
ATOM     23  C   UNL     1       1.447   3.503  19.115  0.00  0.00    +0.000 A 
ENDBRANCH   7  18
BRANCH   2  24
ATOM     24  C   UNL     1       6.965   5.569  12.969  0.00  0.00    +0.000 C 
ATOM     25  C   UNL     1       8.470   5.554  12.806  0.00  0.00    +0.000 C 
ATOM     26  C   UNL     1       7.604   4.841  11.809  0.00  0.00    +0.000 C 
ENDBRANCH   2  24
TORSDOF 3
ENDMDL
MODEL 8
REMARK VINA RESULT:      -6.9      1.134      1.469
REMARK  Name = 
REMARK  3 active torsions:
REMARK  status: ('A' for Active; 'I' for Inactive)
REMARK    1  A    between atoms: C_2  and  C_23
REMARK    2  A    between atoms: C_7  and  C_8
REMARK    3  A    between atoms: C_14  and  C_15
REMARK                            x       y       z     vdW  Elec       q    Type
REMARK                         _______ _______ _______ _____ _____    ______ ____
ROOT
ATOM      1  O   UNL     1       0.867  10.205  17.686  0.00  0.00    +0.000 OA
ATOM      2  C   UNL     1       0.566   9.723  18.770  0.00  0.00    +0.000 C 
ATOM      3  N   UNL     1       1.176   8.656  19.383  0.00  0.00    +0.000 N 
ATOM      4  C   UNL     1       2.232   7.942  18.815  0.00  0.00    +0.000 A 
ATOM      5  C   UNL     1       3.200   8.540  18.032  0.00  0.00    +0.000 A 
ATOM      6  C   UNL     1       4.131   7.733  17.391  0.00  0.00    +0.000 A 
ATOM      7  C   UNL     1       4.093   6.333  17.517  0.00  0.00    +0.000 A 
ATOM      8  C   UNL     1       3.129   5.824  18.425  0.00  0.00    +0.000 A 
ATOM      9  N   UNL     1       2.234   6.622  19.080  0.00  0.00    +0.000 NA
ATOM     10  H   UNL     1       0.659   8.145  20.084  0.00  0.00    +0.000 HD
ENDROOT
BRANCH   8  11
ATOM     11  C   UNL     1       2.918   4.387  18.745  0.00  0.00    +0.000 A 
ATOM     12  C   UNL     1       3.900   3.670  19.466  0.00  0.00    +0.000 A 
ATOM     13  C   UNL     1       3.709   2.337  19.848  0.00  0.00    +0.000 A 
ATOM     14  C   UNL     1       2.518   1.696  19.530  0.00  0.00    +0.000 A 
ATOM     15  C   UNL     1       1.553   2.377  18.802  0.00  0.00    +0.000 A 
ATOM     16  F   UNL     1       0.392   1.772  18.519  0.00  0.00    +0.000 F 
ATOM     17  C   UNL     1       1.755   3.690  18.382  0.00  0.00    +0.000 A 
ENDBRANCH   8  11
BRANCH   7  18
ATOM     18  C   UNL     1       5.026   5.511  16.700  0.00  0.00    +0.000 A 
ATOM     19  C   UNL     1       4.679   5.078  15.410  0.00  0.00    +0.000 A 
ATOM     20  C   UNL     1       5.604   4.377  14.652  0.00  0.00    +0.000 A 
ATOM     21  N   UNL     1       6.853   4.091  15.068  0.00  0.00    +0.000 NA
ATOM     22  C   UNL     1       7.171   4.480  16.318  0.00  0.00    +0.000 A 
ATOM     23  C   UNL     1       6.293   5.134  17.166  0.00  0.00    +0.000 A 
ENDBRANCH   7  18
BRANCH   2  24
ATOM     24  C   UNL     1      -0.614  10.244  19.516  0.00  0.00    +0.000 C 
ATOM     25  C   UNL     1      -0.467  11.441  20.431  0.00  0.00    +0.000 C 
ATOM     26  C   UNL     1      -1.230  11.574  19.146  0.00  0.00    +0.000 C 
ENDBRANCH   2  24
TORSDOF 3
ENDMDL
MODEL 9
REMARK VINA RESULT:      -6.9      1.530      1.737
REMARK  Name = 
REMARK  3 active torsions:
REMARK  status: ('A' for Active; 'I' for Inactive)
REMARK    1  A    between atoms: C_2  and  C_23
REMARK    2  A    between atoms: C_7  and  C_8
REMARK    3  A    between atoms: C_14  and  C_15
REMARK                            x       y       z     vdW  Elec       q    Type
REMARK                         _______ _______ _______ _____ _____    ______ ____
ROOT
ATOM      1  O   UNL     1       0.269  10.020  17.780  0.00  0.00    +0.000 OA
ATOM      2  C   UNL     1       0.172   9.792  18.979  0.00  0.00    +0.000 C 
ATOM      3  N   UNL     1       0.967   8.946  19.713  0.00  0.00    +0.000 N 
ATOM      4  C   UNL     1       2.000   8.188  19.162  0.00  0.00    +0.000 A 
ATOM      5  C   UNL     1       2.785   8.643  18.120  0.00  0.00    +0.000 A 
ATOM      6  C   UNL     1       3.694   7.769  17.539  0.00  0.00    +0.000 A 
ATOM      7  C   UNL     1       3.816   6.440  17.984  0.00  0.00    +0.000 A 
ATOM      8  C   UNL     1       3.044   6.101  19.125  0.00  0.00    +0.000 A 
ATOM      9  N   UNL     1       2.172   6.973  19.716  0.00  0.00    +0.000 NA
ATOM     10  H   UNL     1       0.607   8.584  20.585  0.00  0.00    +0.000 HD
ENDROOT
BRANCH   8  11
ATOM     11  C   UNL     1       3.026   4.773  19.792  0.00  0.00    +0.000 A 
ATOM     12  C   UNL     1       4.141   3.910  19.685  0.00  0.00    +0.000 A 
ATOM     13  C   UNL     1       4.193   2.683  20.356  0.00  0.00    +0.000 A 
ATOM     14  C   UNL     1       3.130   2.298  21.164  0.00  0.00    +0.000 A 
ATOM     15  C   UNL     1       2.017   3.120  21.261  0.00  0.00    +0.000 A 
ATOM     16  F   UNL     1       1.004   2.766  22.062  0.00  0.00    +0.000 F 
ATOM     17  C   UNL     1       1.943   4.323  20.562  0.00  0.00    +0.000 A 
ENDBRANCH   8  11
BRANCH   7  18
ATOM     18  C   UNL     1       4.705   5.510  17.237  0.00  0.00    +0.000 A 
ATOM     19  C   UNL     1       4.178   4.495  16.421  0.00  0.00    +0.000 A 
ATOM     20  C   UNL     1       5.039   3.696  15.684  0.00  0.00    +0.000 A 
ATOM     21  N   UNL     1       6.378   3.841  15.678  0.00  0.00    +0.000 NA
ATOM     22  C   UNL     1       6.880   4.793  16.487  0.00  0.00    +0.000 A 
ATOM     23  C   UNL     1       6.102   5.599  17.300  0.00  0.00    +0.000 A 
ENDBRANCH   7  18
BRANCH   2  24
ATOM     24  C   UNL     1      -0.939  10.398  19.766  0.00  0.00    +0.000 C 
ATOM     25  C   UNL     1      -0.770  11.767  20.391  0.00  0.00    +0.000 C 
ATOM     26  C   UNL     1      -1.701  11.587  19.227  0.00  0.00    +0.000 C 
ENDBRANCH   2  24
TORSDOF 3
ENDMDL
