MODEL 1
REMARK VINA RESULT:      -8.4      0.000      0.000
REMARK  Name = 
REMARK  9 active torsions:
REMARK  status: ('A' for Active; 'I' for Inactive)
REMARK    1  A    between atoms: C_1  and  C_2
REMARK    2  A    between atoms: C_4  and  C_5
REMARK    3  A    between atoms: C_11  and  C_12
REMARK    4  A    between atoms: C_12  and  O_13
REMARK    5  A    between atoms: O_13  and  C_14
REMARK    6  A    between atoms: C_16  and  C_17
REMARK    7  A    between atoms: C_19  and  C_20
REMARK    8  A    between atoms: C_20  and  C_21
REMARK    9  A    between atoms: C_21  and  O_23
REMARK                            x       y       z     vdW  Elec       q    Type
REMARK                         _______ _______ _______ _____ _____    ______ ____
ROOT
ATOM      1  C   UNL     1       1.844   6.275  20.122  0.00  0.00    +0.000 A 
ATOM      2  C   UNL     1       2.648   6.936  19.203  0.00  0.00    +0.000 A 
ATOM      3  C   UNL     1       3.426   6.237  18.244  0.00  0.00    +0.000 A 
ATOM      4  C   UNL     1       4.233   7.083  17.289  0.00  0.00    +0.000 C 
ATOM      5  C   UNL     1       3.407   4.801  18.238  0.00  0.00    +0.000 A 
ATOM      6  C   UNL     1       4.083   3.797  17.414  0.00  0.00    +0.000 A 
ATOM      7  C   UNL     1       3.717   2.510  17.771  0.00  0.00    +0.000 A 
ATOM      8  S   UNL     1       2.663   2.455  19.091  0.00  0.00    +0.000 S 
ATOM      9  C   UNL     1       2.613   4.168  19.206  0.00  0.00    +0.000 A 
ATOM     10  C   UNL     1       1.862   4.885  20.151  0.00  0.00    +0.000 A 
ATOM     11  F   UNL     1       1.163   4.207  21.075  0.00  0.00    +0.000 F 
ENDROOT
BRANCH   1  12
ATOM     12  O   UNL     1       1.079   7.074  20.934  0.00  0.00    +0.000 OA
BRANCH  12  13
ATOM     13  C   UNL     1       1.699   8.315  21.288  0.00  0.00    +0.000 C 
BRANCH  13  20
ATOM     14  C   UNL     1       0.525  10.208  19.254  0.00  0.00    +0.000 C 
ATOM     15  C   UNL     1       0.112  10.219  20.699  0.00  0.00    +0.000 A 
ATOM     16  N   UNL     1      -0.856  11.120  21.019  0.00  0.00    +0.000 NA
ATOM     17  C   UNL     1      -1.312  11.172  22.302  0.00  0.00    +0.000 A 
ATOM     18  C   UNL     1      -0.820  10.320  23.286  0.00  0.00    +0.000 A 
ATOM     19  C   UNL     1       0.170   9.404  22.951  0.00  0.00    +0.000 A 
ATOM     20  C   UNL     1       0.663   9.348  21.642  0.00  0.00    +0.000 A 
BRANCH  17  21
ATOM     21  C   UNL     1      -2.382  12.185  22.680  0.00  0.00    +0.000 C 
ATOM     22  F   UNL     1      -3.273  12.466  21.686  0.00  0.00    +0.000 F 
ATOM     23  F   UNL     1      -3.135  11.779  23.747  0.00  0.00    +0.000 F 
ATOM     24  F   UNL     1      -1.849  13.387  23.050  0.00  0.00    +0.000 F 
ENDBRANCH  17  21
ENDBRANCH  13  20
ENDBRANCH  12  13
ENDBRANCH   1  12
BRANCH   6  25
ATOM     25  C   UNL     1       5.095   4.030  16.324  0.00  0.00    +0.000 C 
BRANCH  25  26
ATOM     26  C   UNL     1       6.494   4.289  16.828  0.00  0.00    +0.000 C 
ATOM     27  O   UNL     1       7.459   4.704  16.208  0.00  0.00    +0.000 OA
BRANCH  26  28
ATOM     28  O   UNL     1       6.593   4.046  18.155  0.00  0.00    +0.000 OA
ATOM     29  H   UNL     1       7.115   3.218  18.217  0.00  0.00    +0.000 HD
ENDBRANCH  26  28
ENDBRANCH  25  26
ENDBRANCH   6  25
TORSDOF 7
ENDMDL
MODEL 2
REMARK VINA RESULT:      -8.2      2.168      2.996
REMARK  Name = 
REMARK  9 active torsions:
REMARK  status: ('A' for Active; 'I' for Inactive)
REMARK    1  A    between atoms: C_1  and  C_2
REMARK    2  A    between atoms: C_4  and  C_5
REMARK    3  A    between atoms: C_11  and  C_12
REMARK    4  A    between atoms: C_12  and  O_13
REMARK    5  A    between atoms: O_13  and  C_14
REMARK    6  A    between atoms: C_16  and  C_17
REMARK    7  A    between atoms: C_19  and  C_20
REMARK    8  A    between atoms: C_20  and  C_21
REMARK    9  A    between atoms: C_21  and  O_23
REMARK                            x       y       z     vdW  Elec       q    Type
REMARK                         _______ _______ _______ _____ _____    ______ ____
ROOT
ATOM      1  C   UNL     1       2.269   7.537  19.151  0.00  0.00    +0.000 A 
ATOM      2  C   UNL     1       3.138   7.794  18.099  0.00  0.00    +0.000 A 
ATOM      3  C   UNL     1       3.854   6.759  17.443  0.00  0.00    +0.000 A 
ATOM      4  C   UNL     1       4.743   7.179  16.298  0.00  0.00    +0.000 C 
ATOM      5  C   UNL     1       3.701   5.405  17.897  0.00  0.00    +0.000 A 
ATOM      6  C   UNL     1       4.287   4.135  17.465  0.00  0.00    +0.000 A 
ATOM      7  C   UNL     1       3.800   3.069  18.202  0.00  0.00    +0.000 A 
ATOM      8  S   UNL     1       2.737   3.534  19.431  0.00  0.00    +0.000 S 
ATOM      9  C   UNL     1       2.846   5.189  18.988  0.00  0.00    +0.000 A 
ATOM     10  C   UNL     1       2.158   6.235  19.625  0.00  0.00    +0.000 A 
ATOM     11  F   UNL     1       1.392   5.954  20.692  0.00  0.00    +0.000 F 
ENDROOT
BRANCH   1  12
ATOM     12  O   UNL     1       1.577   8.618  19.635  0.00  0.00    +0.000 OA
BRANCH  12  13
ATOM     13  C   UNL     1       1.448   9.698  18.704  0.00  0.00    +0.000 C 
BRANCH  13  20
ATOM     14  C   UNL     1       0.050  11.497  20.681  0.00  0.00    +0.000 C 
ATOM     15  C   UNL     1      -0.639  10.946  19.463  0.00  0.00    +0.000 A 
ATOM     16  N   UNL     1      -1.929  11.345  19.296  0.00  0.00    +0.000 NA
ATOM     17  C   UNL     1      -2.615  10.917  18.199  0.00  0.00    +0.000 A 
ATOM     18  C   UNL     1      -2.025  10.095  17.244  0.00  0.00    +0.000 A 
ATOM     19  C   UNL     1      -0.708   9.690  17.424  0.00  0.00    +0.000 A 
ATOM     20  C   UNL     1       0.007  10.105  18.554  0.00  0.00    +0.000 A 
BRANCH  17  21
ATOM     21  C   UNL     1      -4.064  11.340  18.005  0.00  0.00    +0.000 C 
ATOM     22  F   UNL     1      -4.351  11.823  16.763  0.00  0.00    +0.000 F 
ATOM     23  F   UNL     1      -4.942  10.314  18.215  0.00  0.00    +0.000 F 
ATOM     24  F   UNL     1      -4.438  12.321  18.880  0.00  0.00    +0.000 F 
ENDBRANCH  17  21
ENDBRANCH  13  20
ENDBRANCH  12  13
ENDBRANCH   1  12
BRANCH   6  25
ATOM     25  C   UNL     1       5.324   3.916  16.395  0.00  0.00    +0.000 C 
BRANCH  25  26
ATOM     26  C   UNL     1       6.711   4.367  16.781  0.00  0.00    +0.000 C 
ATOM     27  O   UNL     1       7.576   4.852  16.072  0.00  0.00    +0.000 OA
BRANCH  26  28
ATOM     28  O   UNL     1       6.926   4.219  18.109  0.00  0.00    +0.000 OA
ATOM     29  H   UNL     1       6.363   3.459  18.369  0.00  0.00    +0.000 HD
ENDBRANCH  26  28
ENDBRANCH  25  26
ENDBRANCH   6  25
TORSDOF 7
ENDMDL
MODEL 3
REMARK VINA RESULT:      -8.1      1.069      1.845
REMARK  Name = 
REMARK  9 active torsions:
REMARK  status: ('A' for Active; 'I' for Inactive)
REMARK    1  A    between atoms: C_1  and  C_2
REMARK    2  A    between atoms: C_4  and  C_5
REMARK    3  A    between atoms: C_11  and  C_12
REMARK    4  A    between atoms: C_12  and  O_13
REMARK    5  A    between atoms: O_13  and  C_14
REMARK    6  A    between atoms: C_16  and  C_17
REMARK    7  A    between atoms: C_19  and  C_20
REMARK    8  A    between atoms: C_20  and  C_21
REMARK    9  A    between atoms: C_21  and  O_23
REMARK                            x       y       z     vdW  Elec       q    Type
REMARK                         _______ _______ _______ _____ _____    ______ ____
ROOT
ATOM      1  C   UNL     1       1.867   6.166  20.127  0.00  0.00    +0.000 A 
ATOM      2  C   UNL     1       2.667   6.837  19.212  0.00  0.00    +0.000 A 
ATOM      3  C   UNL     1       3.457   6.148  18.256  0.00  0.00    +0.000 A 
ATOM      4  C   UNL     1       4.259   7.005  17.305  0.00  0.00    +0.000 C 
ATOM      5  C   UNL     1       3.456   4.712  18.248  0.00  0.00    +0.000 A 
ATOM      6  C   UNL     1       4.148   3.717  17.427  0.00  0.00    +0.000 A 
ATOM      7  C   UNL     1       3.796   2.426  17.782  0.00  0.00    +0.000 A 
ATOM      8  S   UNL     1       2.737   2.357  19.097  0.00  0.00    +0.000 S 
ATOM      9  C   UNL     1       2.666   4.069  19.213  0.00  0.00    +0.000 A 
ATOM     10  C   UNL     1       1.902   4.776  20.155  0.00  0.00    +0.000 A 
ATOM     11  F   UNL     1       1.207   4.089  21.076  0.00  0.00    +0.000 F 
ENDROOT
BRANCH   1  12
ATOM     12  O   UNL     1       1.089   6.955  20.936  0.00  0.00    +0.000 OA
BRANCH  12  13
ATOM     13  C   UNL     1       1.656   8.238  21.225  0.00  0.00    +0.000 C 
BRANCH  13  20
ATOM     14  C   UNL     1      -0.075   9.526  23.333  0.00  0.00    +0.000 C 
ATOM     15  C   UNL     1      -0.119   9.941  21.888  0.00  0.00    +0.000 A 
ATOM     16  N   UNL     1      -0.969  10.965  21.605  0.00  0.00    +0.000 NA
ATOM     17  C   UNL     1      -1.044  11.424  20.324  0.00  0.00    +0.000 A 
ATOM     18  C   UNL     1      -0.265  10.881  19.307  0.00  0.00    +0.000 A 
ATOM     19  C   UNL     1       0.598   9.834  19.605  0.00  0.00    +0.000 A 
ATOM     20  C   UNL     1       0.677   9.337  20.912  0.00  0.00    +0.000 A 
BRANCH  17  21
ATOM     21  C   UNL     1      -2.002  12.557  19.986  0.00  0.00    +0.000 C 
ATOM     22  F   UNL     1      -1.428  13.609  19.336  0.00  0.00    +0.000 F 
ATOM     23  F   UNL     1      -3.035  12.148  19.189  0.00  0.00    +0.000 F 
ATOM     24  F   UNL     1      -2.591  13.086  21.099  0.00  0.00    +0.000 F 
ENDBRANCH  17  21
ENDBRANCH  13  20
ENDBRANCH  12  13
ENDBRANCH   1  12
BRANCH   6  25
ATOM     25  C   UNL     1       5.162   3.964  16.342  0.00  0.00    +0.000 C 
BRANCH  25  26
ATOM     26  C   UNL     1       6.539   4.308  16.853  0.00  0.00    +0.000 C 
ATOM     27  O   UNL     1       7.477   4.793  16.241  0.00  0.00    +0.000 OA
BRANCH  26  28
ATOM     28  O   UNL     1       6.651   4.057  18.177  0.00  0.00    +0.000 OA
ATOM     29  H   UNL     1       7.379   3.403  18.245  0.00  0.00    +0.000 HD
ENDBRANCH  26  28
ENDBRANCH  25  26
ENDBRANCH   6  25
TORSDOF 7
ENDMDL
MODEL 4
REMARK VINA RESULT:      -8.0      2.417      3.342
REMARK  Name = 
REMARK  9 active torsions:
REMARK  status: ('A' for Active; 'I' for Inactive)
REMARK    1  A    between atoms: C_1  and  C_2
REMARK    2  A    between atoms: C_4  and  C_5
REMARK    3  A    between atoms: C_11  and  C_12
REMARK    4  A    between atoms: C_12  and  O_13
REMARK    5  A    between atoms: O_13  and  C_14
REMARK    6  A    between atoms: C_16  and  C_17
REMARK    7  A    between atoms: C_19  and  C_20
REMARK    8  A    between atoms: C_20  and  C_21
REMARK    9  A    between atoms: C_21  and  O_23
REMARK                            x       y       z     vdW  Elec       q    Type
REMARK                         _______ _______ _______ _____ _____    ______ ____
ROOT
ATOM      1  C   UNL     1       2.230   7.671  19.279  0.00  0.00    +0.000 A 
ATOM      2  C   UNL     1       3.043   7.924  18.182  0.00  0.00    +0.000 A 
ATOM      3  C   UNL     1       3.826   6.909  17.575  0.00  0.00    +0.000 A 
ATOM      4  C   UNL     1       4.643   7.319  16.373  0.00  0.00    +0.000 C 
ATOM      5  C   UNL     1       3.804   5.582  18.126  0.00  0.00    +0.000 A 
ATOM      6  C   UNL     1       4.484   4.338  17.762  0.00  0.00    +0.000 A 
ATOM      7  C   UNL     1       4.112   3.291  18.587  0.00  0.00    +0.000 A 
ATOM      8  S   UNL     1       3.048   3.751  19.817  0.00  0.00    +0.000 S 
ATOM      9  C   UNL     1       3.001   5.375  19.258  0.00  0.00    +0.000 A 
ATOM     10  C   UNL     1       2.245   6.402  19.845  0.00  0.00    +0.000 A 
ATOM     11  F   UNL     1       1.537   6.135  20.954  0.00  0.00    +0.000 F 
ENDROOT
BRANCH   1  12
ATOM     12  O   UNL     1       1.462   8.722  19.711  0.00  0.00    +0.000 OA
BRANCH  12  13
ATOM     13  C   UNL     1       1.341   9.789  18.764  0.00  0.00    +0.000 C 
BRANCH  13  20
ATOM     14  C   UNL     1      -0.333  11.558  20.544  0.00  0.00    +0.000 C 
ATOM     15  C   UNL     1      -0.881  10.918  19.299  0.00  0.00    +0.000 A 
ATOM     16  N   UNL     1      -2.175  11.221  19.012  0.00  0.00    +0.000 NA
ATOM     17  C   UNL     1      -2.738  10.707  17.882  0.00  0.00    +0.000 A 
ATOM     18  C   UNL     1      -2.018   9.893  17.013  0.00  0.00    +0.000 A 
ATOM     19  C   UNL     1      -0.696   9.587  17.316  0.00  0.00    +0.000 A 
ATOM     20  C   UNL     1      -0.107  10.091  18.481  0.00  0.00    +0.000 A 
BRANCH  17  21
ATOM     21  C   UNL     1      -4.189  11.023  17.554  0.00  0.00    +0.000 C 
ATOM     22  F   UNL     1      -5.100  10.316  18.282  0.00  0.00    +0.000 F 
ATOM     23  F   UNL     1      -4.498  12.340  17.754  0.00  0.00    +0.000 F 
ATOM     24  F   UNL     1      -4.490  10.775  16.245  0.00  0.00    +0.000 F 
ENDBRANCH  17  21
ENDBRANCH  13  20
ENDBRANCH  12  13
ENDBRANCH   1  12
BRANCH   6  25
ATOM     25  C   UNL     1       5.505   4.131  16.675  0.00  0.00    +0.000 C 
BRANCH  25  26
ATOM     26  C   UNL     1       6.921   4.444  17.092  0.00  0.00    +0.000 C 
ATOM     27  O   UNL     1       7.404   4.422  18.212  0.00  0.00    +0.000 OA
BRANCH  26  28
ATOM     28  O   UNL     1       7.697   4.734  16.023  0.00  0.00    +0.000 OA
ATOM     29  H   UNL     1       8.321   5.418  16.348  0.00  0.00    +0.000 HD
ENDBRANCH  26  28
ENDBRANCH  25  26
ENDBRANCH   6  25
TORSDOF 7
ENDMDL
MODEL 5
REMARK VINA RESULT:      -7.8      2.082      2.825
REMARK  Name = 
REMARK  9 active torsions:
REMARK  status: ('A' for Active; 'I' for Inactive)
REMARK    1  A    between atoms: C_1  and  C_2
REMARK    2  A    between atoms: C_4  and  C_5
REMARK    3  A    between atoms: C_11  and  C_12
REMARK    4  A    between atoms: C_12  and  O_13
REMARK    5  A    between atoms: O_13  and  C_14
REMARK    6  A    between atoms: C_16  and  C_17
REMARK    7  A    between atoms: C_19  and  C_20
REMARK    8  A    between atoms: C_20  and  C_21
REMARK    9  A    between atoms: C_21  and  O_23
REMARK                            x       y       z     vdW  Elec       q    Type
REMARK                         _______ _______ _______ _____ _____    ______ ____
ROOT
ATOM      1  C   UNL     1       2.140   7.449  19.804  0.00  0.00    +0.000 A 
ATOM      2  C   UNL     1       1.669   6.296  20.417  0.00  0.00    +0.000 A 
ATOM      3  C   UNL     1       2.053   5.001  19.981  0.00  0.00    +0.000 A 
ATOM      4  C   UNL     1       1.486   3.836  20.755  0.00  0.00    +0.000 C 
ATOM      5  C   UNL     1       2.934   4.874  18.853  0.00  0.00    +0.000 A 
ATOM      6  C   UNL     1       3.502   3.719  18.155  0.00  0.00    +0.000 A 
ATOM      7  C   UNL     1       4.339   4.106  17.123  0.00  0.00    +0.000 A 
ATOM      8  S   UNL     1       4.412   5.781  16.910  0.00  0.00    +0.000 S 
ATOM      9  C   UNL     1       3.357   6.060  18.235  0.00  0.00    +0.000 A 
ATOM     10  C   UNL     1       2.951   7.328  18.681  0.00  0.00    +0.000 A 
ATOM     11  F   UNL     1       3.362   8.416  18.010  0.00  0.00    +0.000 F 
ENDROOT
BRANCH   1  12
ATOM     12  O   UNL     1       1.756   8.634  20.380  0.00  0.00    +0.000 OA
BRANCH  12  13
ATOM     13  C   UNL     1       0.752   9.345  19.648  0.00  0.00    +0.000 C 
BRANCH  13  20
ATOM     14  C   UNL     1      -0.834  11.714  18.664  0.00  0.00    +0.000 C 
ATOM     15  C   UNL     1      -0.806  11.307  20.111  0.00  0.00    +0.000 A 
ATOM     16  N   UNL     1      -1.575  12.062  20.941  0.00  0.00    +0.000 NA
ATOM     17  C   UNL     1      -1.631  11.739  22.264  0.00  0.00    +0.000 A 
ATOM     18  C   UNL     1      -0.932  10.653  22.780  0.00  0.00    +0.000 A 
ATOM     19  C   UNL     1      -0.146   9.889  21.926  0.00  0.00    +0.000 A 
ATOM     20  C   UNL     1      -0.063  10.216  20.567  0.00  0.00    +0.000 A 
BRANCH  17  21
ATOM     21  C   UNL     1      -2.473  12.583  23.209  0.00  0.00    +0.000 C 
ATOM     22  F   UNL     1      -3.314  11.868  24.010  0.00  0.00    +0.000 F 
ATOM     23  F   UNL     1      -1.711  13.339  24.056  0.00  0.00    +0.000 F 
ATOM     24  F   UNL     1      -3.265  13.474  22.542  0.00  0.00    +0.000 F 
ENDBRANCH  17  21
ENDBRANCH  13  20
ENDBRANCH  12  13
ENDBRANCH   1  12
BRANCH   6  25
ATOM     25  C   UNL     1       3.238   2.261  18.422  0.00  0.00    +0.000 C 
BRANCH  25  26
ATOM     26  C   UNL     1       4.269   1.599  19.301  0.00  0.00    +0.000 C 
ATOM     27  O   UNL     1       4.775   2.022  20.327  0.00  0.00    +0.000 OA
BRANCH  26  28
ATOM     28  O   UNL     1       4.588   0.365  18.846  0.00  0.00    +0.000 OA
ATOM     29  H   UNL     1       4.925   0.515  17.937  0.00  0.00    +0.000 HD
ENDBRANCH  26  28
ENDBRANCH  25  26
ENDBRANCH   6  25
TORSDOF 7
ENDMDL
MODEL 6
REMARK VINA RESULT:      -7.7      1.307      1.807
REMARK  Name = 
REMARK  9 active torsions:
REMARK  status: ('A' for Active; 'I' for Inactive)
REMARK    1  A    between atoms: C_1  and  C_2
REMARK    2  A    between atoms: C_4  and  C_5
REMARK    3  A    between atoms: C_11  and  C_12
REMARK    4  A    between atoms: C_12  and  O_13
REMARK    5  A    between atoms: O_13  and  C_14
REMARK    6  A    between atoms: C_16  and  C_17
REMARK    7  A    between atoms: C_19  and  C_20
REMARK    8  A    between atoms: C_20  and  C_21
REMARK    9  A    between atoms: C_21  and  O_23
REMARK                            x       y       z     vdW  Elec       q    Type
REMARK                         _______ _______ _______ _____ _____    ______ ____
ROOT
ATOM      1  C   UNL     1       2.565   7.139  19.042  0.00  0.00    +0.000 A 
ATOM      2  C   UNL     1       3.322   7.533  17.947  0.00  0.00    +0.000 A 
ATOM      3  C   UNL     1       4.055   6.603  17.165  0.00  0.00    +0.000 A 
ATOM      4  C   UNL     1       4.814   7.166  15.988  0.00  0.00    +0.000 C 
ATOM      5  C   UNL     1       4.040   5.214  17.531  0.00  0.00    +0.000 A 
ATOM      6  C   UNL     1       4.679   4.025  16.963  0.00  0.00    +0.000 A 
ATOM      7  C   UNL     1       4.334   2.878  17.657  0.00  0.00    +0.000 A 
ATOM      8  S   UNL     1       3.345   3.175  18.995  0.00  0.00    +0.000 S 
ATOM      9  C   UNL     1       3.296   4.860  18.666  0.00  0.00    +0.000 A 
ATOM     10  C   UNL     1       2.589   5.804  19.428  0.00  0.00    +0.000 A 
ATOM     11  F   UNL     1       1.937   5.394  20.528  0.00  0.00    +0.000 F 
ENDROOT
BRANCH   1  12
ATOM     12  O   UNL     1       1.838   8.128  19.656  0.00  0.00    +0.000 OA
BRANCH  12  13
ATOM     13  C   UNL     1       1.335   9.127  18.762  0.00  0.00    +0.000 C 
BRANCH  13  20
ATOM     14  C   UNL     1      -1.282  10.049  17.580  0.00  0.00    +0.000 C 
ATOM     15  C   UNL     1      -0.811  10.488  18.939  0.00  0.00    +0.000 A 
ATOM     16  N   UNL     1      -1.666  11.304  19.614  0.00  0.00    +0.000 NA
ATOM     17  C   UNL     1      -1.330  11.720  20.867  0.00  0.00    +0.000 A 
ATOM     18  C   UNL     1      -0.142  11.323  21.474  0.00  0.00    +0.000 A 
ATOM     19  C   UNL     1       0.726  10.492  20.776  0.00  0.00    +0.000 A 
ATOM     20  C   UNL     1       0.405  10.068  19.481  0.00  0.00    +0.000 A 
BRANCH  17  21
ATOM     21  C   UNL     1      -2.266  12.646  21.629  0.00  0.00    +0.000 C 
ATOM     22  F   UNL     1      -1.695  13.812  22.044  0.00  0.00    +0.000 F 
ATOM     23  F   UNL     1      -3.358  13.011  20.890  0.00  0.00    +0.000 F 
ATOM     24  F   UNL     1      -2.771  12.059  22.754  0.00  0.00    +0.000 F 
ENDBRANCH  17  21
ENDBRANCH  13  20
ENDBRANCH  12  13
ENDBRANCH   1  12
BRANCH   6  25
ATOM     25  C   UNL     1       5.637   3.960  15.804  0.00  0.00    +0.000 C 
BRANCH  25  26
ATOM     26  C   UNL     1       7.008   4.512  16.106  0.00  0.00    +0.000 C 
ATOM     27  O   UNL     1       7.670   4.387  17.123  0.00  0.00    +0.000 OA
BRANCH  26  28
ATOM     28  O   UNL     1       7.515   5.183  15.045  0.00  0.00    +0.000 OA
ATOM     29  H   UNL     1       8.356   4.723  14.840  0.00  0.00    +0.000 HD
ENDBRANCH  26  28
ENDBRANCH  25  26
ENDBRANCH   6  25
TORSDOF 7
ENDMDL
MODEL 7
REMARK VINA RESULT:      -7.7      1.199      1.599
REMARK  Name = 
REMARK  9 active torsions:
REMARK  status: ('A' for Active; 'I' for Inactive)
REMARK    1  A    between atoms: C_1  and  C_2
REMARK    2  A    between atoms: C_4  and  C_5
REMARK    3  A    between atoms: C_11  and  C_12
REMARK    4  A    between atoms: C_12  and  O_13
REMARK    5  A    between atoms: O_13  and  C_14
REMARK    6  A    between atoms: C_16  and  C_17
REMARK    7  A    between atoms: C_19  and  C_20
REMARK    8  A    between atoms: C_20  and  C_21
REMARK    9  A    between atoms: C_21  and  O_23
REMARK                            x       y       z     vdW  Elec       q    Type
REMARK                         _______ _______ _______ _____ _____    ______ ____
ROOT
ATOM      1  C   UNL     1       2.323   7.042  19.539  0.00  0.00    +0.000 A 
ATOM      2  C   UNL     1       3.119   7.449  18.478  0.00  0.00    +0.000 A 
ATOM      3  C   UNL     1       3.835   6.524  17.675  0.00  0.00    +0.000 A 
ATOM      4  C   UNL     1       4.641   7.104  16.537  0.00  0.00    +0.000 C 
ATOM      5  C   UNL     1       3.760   5.123  17.983  0.00  0.00    +0.000 A 
ATOM      6  C   UNL     1       4.366   3.934  17.383  0.00  0.00    +0.000 A 
ATOM      7  C   UNL     1       3.963   2.774  18.022  0.00  0.00    +0.000 A 
ATOM      8  S   UNL     1       2.955   3.056  19.349  0.00  0.00    +0.000 S 
ATOM      9  C   UNL     1       2.976   4.753  19.087  0.00  0.00    +0.000 A 
ATOM     10  C   UNL     1       2.288   5.692  19.871  0.00  0.00    +0.000 A 
ATOM     11  F   UNL     1       1.595   5.265  20.939  0.00  0.00    +0.000 F 
ENDROOT
BRANCH   1  12
ATOM     12  O   UNL     1       1.619   8.033  20.176  0.00  0.00    +0.000 OA
BRANCH  12  13
ATOM     13  C   UNL     1       1.343   9.175  19.358  0.00  0.00    +0.000 C 
BRANCH  13  20
ATOM     14  C   UNL     1       1.747  12.069  18.610  0.00  0.00    +0.000 C 
ATOM     15  C   UNL     1       0.989  11.652  19.840  0.00  0.00    +0.000 A 
ATOM     16  N   UNL     1       0.467  12.672  20.573  0.00  0.00    +0.000 NA
ATOM     17  C   UNL     1      -0.263  12.378  21.685  0.00  0.00    +0.000 A 
ATOM     18  C   UNL     1      -0.495  11.064  22.080  0.00  0.00    +0.000 A 
ATOM     19  C   UNL     1       0.044  10.029  21.327  0.00  0.00    +0.000 A 
ATOM     20  C   UNL     1       0.811  10.312  20.190  0.00  0.00    +0.000 A 
BRANCH  17  21
ATOM     21  C   UNL     1      -0.840  13.507  22.526  0.00  0.00    +0.000 C 
ATOM     22  F   UNL     1      -1.357  13.113  23.725  0.00  0.00    +0.000 F 
ATOM     23  F   UNL     1       0.088  14.468  22.821  0.00  0.00    +0.000 F 
ATOM     24  F   UNL     1      -1.851  14.165  21.886  0.00  0.00    +0.000 F 
ENDBRANCH  17  21
ENDBRANCH  13  20
ENDBRANCH  12  13
ENDBRANCH   1  12
BRANCH   6  25
ATOM     25  C   UNL     1       5.348   3.878  16.242  0.00  0.00    +0.000 C 
BRANCH  25  26
ATOM     26  C   UNL     1       6.738   4.342  16.603  0.00  0.00    +0.000 C 
ATOM     27  O   UNL     1       7.555   4.910  15.898  0.00  0.00    +0.000 OA
BRANCH  26  28
ATOM     28  O   UNL     1       7.018   4.097  17.904  0.00  0.00    +0.000 OA
ATOM     29  H   UNL     1       7.185   3.131  17.944  0.00  0.00    +0.000 HD
ENDBRANCH  26  28
ENDBRANCH  25  26
ENDBRANCH   6  25
TORSDOF 7
ENDMDL
MODEL 8
REMARK VINA RESULT:      -7.7      4.501      9.751
REMARK  Name = 
REMARK  9 active torsions:
REMARK  status: ('A' for Active; 'I' for Inactive)
REMARK    1  A    between atoms: C_1  and  C_2
REMARK    2  A    between atoms: C_4  and  C_5
REMARK    3  A    between atoms: C_11  and  C_12
REMARK    4  A    between atoms: C_12  and  O_13
REMARK    5  A    between atoms: O_13  and  C_14
REMARK    6  A    between atoms: C_16  and  C_17
REMARK    7  A    between atoms: C_19  and  C_20
REMARK    8  A    between atoms: C_20  and  C_21
REMARK    9  A    between atoms: C_21  and  O_23
REMARK                            x       y       z     vdW  Elec       q    Type
REMARK                         _______ _______ _______ _____ _____    ______ ____
ROOT
ATOM      1  C   UNL     1       1.569   8.562  20.033  0.00  0.00    +0.000 A 
ATOM      2  C   UNL     1       1.160   8.602  21.359  0.00  0.00    +0.000 A 
ATOM      3  C   UNL     1       0.206   9.544  21.825  0.00  0.00    +0.000 A 
ATOM      4  C   UNL     1      -0.166   9.456  23.286  0.00  0.00    +0.000 C 
ATOM      5  C   UNL     1      -0.334  10.507  20.906  0.00  0.00    +0.000 A 
ATOM      6  C   UNL     1      -1.301  11.596  21.055  0.00  0.00    +0.000 A 
ATOM      7  C   UNL     1      -1.534  12.242  19.854  0.00  0.00    +0.000 A 
ATOM      8  S   UNL     1      -0.593  11.650  18.580  0.00  0.00    +0.000 S 
ATOM      9  C   UNL     1       0.133  10.460  19.584  0.00  0.00    +0.000 A 
ATOM     10  C   UNL     1       1.086   9.524  19.154  0.00  0.00    +0.000 A 
ATOM     11  F   UNL     1       1.517   9.572  17.883  0.00  0.00    +0.000 F 
ENDROOT
BRANCH   1  12
ATOM     12  O   UNL     1       2.431   7.547  19.702  0.00  0.00    +0.000 OA
BRANCH  12  13
ATOM     13  C   UNL     1       1.997   6.747  18.596  0.00  0.00    +0.000 C 
BRANCH  13  20
ATOM     14  C   UNL     1       2.276   3.780  18.133  0.00  0.00    +0.000 C 
ATOM     15  C   UNL     1       3.301   4.771  17.655  0.00  0.00    +0.000 A 
ATOM     16  N   UNL     1       4.347   4.237  16.967  0.00  0.00    +0.000 NA
ATOM     17  C   UNL     1       5.303   5.071  16.470  0.00  0.00    +0.000 A 
ATOM     18  C   UNL     1       5.228   6.450  16.639  0.00  0.00    +0.000 A 
ATOM     19  C   UNL     1       4.158   6.986  17.345  0.00  0.00    +0.000 A 
ATOM     20  C   UNL     1       3.175   6.144  17.878  0.00  0.00    +0.000 A 
BRANCH  17  21
ATOM     21  C   UNL     1       6.487   4.491  15.713  0.00  0.00    +0.000 C 
ATOM     22  F   UNL     1       7.010   5.315  14.760  0.00  0.00    +0.000 F 
ATOM     23  F   UNL     1       7.530   4.171  16.537  0.00  0.00    +0.000 F 
ATOM     24  F   UNL     1       6.170   3.331  15.065  0.00  0.00    +0.000 F 
ENDBRANCH  17  21
ENDBRANCH  13  20
ENDBRANCH  12  13
ENDBRANCH   1  12
BRANCH   6  25
ATOM     25  C   UNL     1      -1.977  12.060  22.318  0.00  0.00    +0.000 C 
BRANCH  25  26
ATOM     26  C   UNL     1      -1.410  13.339  22.886  0.00  0.00    +0.000 C 
ATOM     27  O   UNL     1      -0.292  13.543  23.328  0.00  0.00    +0.000 OA
BRANCH  26  28
ATOM     28  O   UNL     1      -2.309  14.348  22.819  0.00  0.00    +0.000 OA
ATOM     29  H   UNL     1      -2.414  14.524  21.860  0.00  0.00    +0.000 HD
ENDBRANCH  26  28
ENDBRANCH  25  26
ENDBRANCH   6  25
TORSDOF 7
ENDMDL
MODEL 9
REMARK VINA RESULT:      -7.6      3.213      4.238
REMARK  Name = 
REMARK  9 active torsions:
REMARK  status: ('A' for Active; 'I' for Inactive)
REMARK    1  A    between atoms: C_1  and  C_2
REMARK    2  A    between atoms: C_4  and  C_5
REMARK    3  A    between atoms: C_11  and  C_12
REMARK    4  A    between atoms: C_12  and  O_13
REMARK    5  A    between atoms: O_13  and  C_14
REMARK    6  A    between atoms: C_16  and  C_17
REMARK    7  A    between atoms: C_19  and  C_20
REMARK    8  A    between atoms: C_20  and  C_21
REMARK    9  A    between atoms: C_21  and  O_23
REMARK                            x       y       z     vdW  Elec       q    Type
REMARK                         _______ _______ _______ _____ _____    ______ ____
ROOT
ATOM      1  C   UNL     1       1.760   7.993  19.690  0.00  0.00    +0.000 A 
ATOM      2  C   UNL     1       1.636   6.851  20.470  0.00  0.00    +0.000 A 
ATOM      3  C   UNL     1       2.342   5.656  20.173  0.00  0.00    +0.000 A 
ATOM      4  C   UNL     1       2.134   4.500  21.121  0.00  0.00    +0.000 C 
ATOM      5  C   UNL     1       3.190   5.612  19.014  0.00  0.00    +0.000 A 
ATOM      6  C   UNL     1       4.027   4.564  18.428  0.00  0.00    +0.000 A 
ATOM      7  C   UNL     1       4.697   5.013  17.303  0.00  0.00    +0.000 A 
ATOM      8  S   UNL     1       4.309   6.603  16.880  0.00  0.00    +0.000 S 
ATOM      9  C   UNL     1       3.258   6.773  18.228  0.00  0.00    +0.000 A 
ATOM     10  C   UNL     1       2.539   7.938  18.540  0.00  0.00    +0.000 A 
ATOM     11  F   UNL     1       2.621   8.993  17.714  0.00  0.00    +0.000 F 
ENDROOT
BRANCH   1  12
ATOM     12  O   UNL     1       1.089   9.102  20.140  0.00  0.00    +0.000 OA
BRANCH  12  13
ATOM     13  C   UNL     1       1.025  10.173  19.192  0.00  0.00    +0.000 C 
BRANCH  13  20
ATOM     14  C   UNL     1      -0.811  12.147  20.546  0.00  0.00    +0.000 C 
ATOM     15  C   UNL     1      -1.242  11.325  19.363  0.00  0.00    +0.000 A 
ATOM     16  N   UNL     1      -2.507  11.561  18.923  0.00  0.00    +0.000 NA
ATOM     17  C   UNL     1      -2.964  10.881  17.834  0.00  0.00    +0.000 A 
ATOM     18  C   UNL     1      -2.165   9.965  17.157  0.00  0.00    +0.000 A 
ATOM     19  C   UNL     1      -0.874   9.729  17.615  0.00  0.00    +0.000 A 
ATOM     20  C   UNL     1      -0.393  10.405  18.743  0.00  0.00    +0.000 A 
BRANCH  17  21
ATOM     21  C   UNL     1      -4.382  11.120  17.339  0.00  0.00    +0.000 C 
ATOM     22  F   UNL     1      -4.823  12.403  17.479  0.00  0.00    +0.000 F 
ATOM     23  F   UNL     1      -4.532  10.821  16.013  0.00  0.00    +0.000 F 
ATOM     24  F   UNL     1      -5.296  10.341  17.990  0.00  0.00    +0.000 F 
ENDBRANCH  17  21
ENDBRANCH  13  20
ENDBRANCH  12  13
ENDBRANCH   1  12
BRANCH   6  25
ATOM     25  C   UNL     1       4.174   3.138  18.889  0.00  0.00    +0.000 C 
BRANCH  25  26
ATOM     26  C   UNL     1       3.309   2.156  18.139  0.00  0.00    +0.000 C 
ATOM     27  O   UNL     1       2.316   2.378  17.467  0.00  0.00    +0.000 OA
BRANCH  26  28
ATOM     28  O   UNL     1       3.791   0.896  18.242  0.00  0.00    +0.000 OA
ATOM     29  H   UNL     1       3.288   0.382  17.575  0.00  0.00    +0.000 HD
ENDBRANCH  26  28
ENDBRANCH  25  26
ENDBRANCH   6  25
TORSDOF 7
ENDMDL
