MODEL 1
REMARK VINA RESULT:      -7.6      0.000      0.000
REMARK  Name = 
REMARK  8 active torsions:
REMARK  status: ('A' for Active; 'I' for Inactive)
REMARK    1  A    between atoms: C_1  and  C_2
REMARK    2  A    between atoms: C_2  and  C_3
REMARK    3  A    between atoms: C_2  and  C_4
REMARK    4  A    between atoms: C_4  and  C_5
REMARK    5  A    between atoms: C_5  and  N_6
REMARK    6  A    between atoms: C_7  and  C_8
REMARK    7  A    between atoms: C_8  and  N_9
REMARK    8  A    between atoms: N_12  and  C_13
REMARK                            x       y       z     vdW  Elec       q    Type
REMARK                         _______ _______ _______ _____ _____    ______ ____
ROOT
ATOM      1  N   UNL     1       2.179   6.268  19.777  0.00  0.00    +0.000 N 
ATOM      2  C   UNL     1       2.566   6.057  18.458  0.00  0.00    +0.000 A 
ATOM      3  N   UNL     1       2.491   7.188  17.775  0.00  0.00    +0.000 NA
ATOM      4  C   UNL     1       2.003   8.127  18.641  0.00  0.00    +0.000 A 
ATOM      5  N   UNL     1       1.719   9.408  18.320  0.00  0.00    +0.000 NA
ATOM      6  C   UNL     1       1.236  10.132  19.347  0.00  0.00    +0.000 A 
ATOM      7 CL   UNL     1       0.806  11.745  18.928  0.00  0.00    +0.000 Cl
ATOM      8  C   UNL     1       1.048   9.693  20.651  0.00  0.00    +0.000 A 
ATOM      9  C   UNL     1       1.358   8.375  20.972  0.00  0.00    +0.000 A 
ATOM     10  C   UNL     1       1.828   7.595  19.912  0.00  0.00    +0.000 A 
ENDROOT
BRANCH   1  11
ATOM     11  C   UNL     1       2.003   5.268  20.821  0.00  0.00    +0.000 C 
BRANCH  11  12
ATOM     12  C   UNL     1       0.870   4.273  20.569  0.00  0.00    +0.000 C 
BRANCH  12  14
ATOM     13  C   UNL     1       1.446   2.062  19.408  0.00  0.00    +0.000 C 
ATOM     14  C   UNL     1       1.289   2.798  20.740  0.00  0.00    +0.000 C 
ATOM     15  C   UNL     1       2.603   2.732  21.522  0.00  0.00    +0.000 C 
ENDBRANCH  12  14
ENDBRANCH  11  12
ENDBRANCH   1  11
BRANCH   2  16
ATOM     16  C   UNL     1       3.075   4.743  17.937  0.00  0.00    +0.000 C 
BRANCH  16  17
ATOM     17  N   UNL     1       4.416   4.804  17.406  0.00  0.00    +0.000 N 
ATOM     18  C   UNL     1       4.760   4.409  16.095  0.00  0.00    +0.000 A 
ATOM     19  O   UNL     1       3.976   4.107  15.207  0.00  0.00    +0.000 OA
ATOM     20  N   UNL     1       6.185   4.375  16.044  0.00  0.00    +0.000 N 
ATOM     21  C   UNL     1       6.683   4.765  17.296  0.00  0.00    +0.000 A 
ATOM     22  C   UNL     1       7.982   4.875  17.738  0.00  0.00    +0.000 A 
ATOM     23  C   UNL     1       8.126   5.226  19.073  0.00  0.00    +0.000 A 
ATOM     24  N   UNL     1       7.090   5.457  19.930  0.00  0.00    +0.000 NA
ATOM     25  C   UNL     1       5.828   5.359  19.439  0.00  0.00    +0.000 A 
ATOM     26  C   UNL     1       5.598   5.012  18.133  0.00  0.00    +0.000 A 
BRANCH  20  27
ATOM     27  C   UNL     1       6.956   4.005  14.903  0.00  0.00    +0.000 C 
ATOM     28  C   UNL     1       6.400   3.884  13.505  0.00  0.00    +0.000 C 
ATOM     29  C   UNL     1       7.288   5.037  13.851  0.00  0.00    +0.000 C 
ENDBRANCH  20  27
ENDBRANCH  16  17
ENDBRANCH   2  16
TORSDOF 6
ENDMDL
MODEL 2
REMARK VINA RESULT:      -7.4      1.195      2.804
REMARK  Name = 
REMARK  8 active torsions:
REMARK  status: ('A' for Active; 'I' for Inactive)
REMARK    1  A    between atoms: C_1  and  C_2
REMARK    2  A    between atoms: C_2  and  C_3
REMARK    3  A    between atoms: C_2  and  C_4
REMARK    4  A    between atoms: C_4  and  C_5
REMARK    5  A    between atoms: C_5  and  N_6
REMARK    6  A    between atoms: C_7  and  C_8
REMARK    7  A    between atoms: C_8  and  N_9
REMARK    8  A    between atoms: N_12  and  C_13
REMARK                            x       y       z     vdW  Elec       q    Type
REMARK                         _______ _______ _______ _____ _____    ______ ____
ROOT
ATOM      1  N   UNL     1       2.202   6.241  19.665  0.00  0.00    +0.000 N 
ATOM      2  C   UNL     1       2.602   6.021  18.352  0.00  0.00    +0.000 A 
ATOM      3  N   UNL     1       2.527   7.146  17.660  0.00  0.00    +0.000 NA
ATOM      4  C   UNL     1       2.026   8.089  18.513  0.00  0.00    +0.000 A 
ATOM      5  N   UNL     1       1.737   9.366  18.179  0.00  0.00    +0.000 NA
ATOM      6  C   UNL     1       1.241  10.096  19.195  0.00  0.00    +0.000 A 
ATOM      7 CL   UNL     1       0.806  11.702  18.759  0.00  0.00    +0.000 Cl
ATOM      8  C   UNL     1       1.043   9.666  20.501  0.00  0.00    +0.000 A 
ATOM      9  C   UNL     1       1.358   8.353  20.835  0.00  0.00    +0.000 A 
ATOM     10  C   UNL     1       1.842   7.566  19.787  0.00  0.00    +0.000 A 
ENDROOT
BRANCH   1  11
ATOM     11  C   UNL     1       2.022   5.248  20.716  0.00  0.00    +0.000 C 
BRANCH  11  12
ATOM     12  C   UNL     1       0.860   4.280  20.489  0.00  0.00    +0.000 C 
BRANCH  12  14
ATOM     13  C   UNL     1       1.217   2.125  19.149  0.00  0.00    +0.000 C 
ATOM     14  C   UNL     1       1.274   2.794  20.524  0.00  0.00    +0.000 C 
ATOM     15  C   UNL     1       2.689   2.675  21.096  0.00  0.00    +0.000 C 
ENDBRANCH  12  14
ENDBRANCH  11  12
ENDBRANCH   1  11
BRANCH   2  16
ATOM     16  C   UNL     1       3.124   4.706  17.846  0.00  0.00    +0.000 C 
BRANCH  16  17
ATOM     17  N   UNL     1       4.540   4.706  17.567  0.00  0.00    +0.000 N 
ATOM     18  C   UNL     1       5.525   5.086  18.504  0.00  0.00    +0.000 A 
ATOM     19  O   UNL     1       5.337   5.321  19.689  0.00  0.00    +0.000 OA
ATOM     20  N   UNL     1       6.750   5.197  17.781  0.00  0.00    +0.000 N 
ATOM     21  C   UNL     1       6.504   4.867  16.441  0.00  0.00    +0.000 A 
ATOM     22  C   UNL     1       7.361   4.839  15.363  0.00  0.00    +0.000 A 
ATOM     23  C   UNL     1       6.772   4.531  14.145  0.00  0.00    +0.000 A 
ATOM     24  N   UNL     1       5.445   4.265  13.971  0.00  0.00    +0.000 NA
ATOM     25  C   UNL     1       4.646   4.281  15.068  0.00  0.00    +0.000 A 
ATOM     26  C   UNL     1       5.147   4.582  16.308  0.00  0.00    +0.000 A 
BRANCH  20  27
ATOM     27  C   UNL     1       8.003   5.579  18.344  0.00  0.00    +0.000 C 
ATOM     28  C   UNL     1       8.296   6.947  18.912  0.00  0.00    +0.000 C 
ATOM     29  C   UNL     1       8.128   5.782  19.835  0.00  0.00    +0.000 C 
ENDBRANCH  20  27
ENDBRANCH  16  17
ENDBRANCH   2  16
TORSDOF 6
ENDMDL
MODEL 3
REMARK VINA RESULT:      -6.9      3.214      7.733
REMARK  Name = 
REMARK  8 active torsions:
REMARK  status: ('A' for Active; 'I' for Inactive)
REMARK    1  A    between atoms: C_1  and  C_2
REMARK    2  A    between atoms: C_2  and  C_3
REMARK    3  A    between atoms: C_2  and  C_4
REMARK    4  A    between atoms: C_4  and  C_5
REMARK    5  A    between atoms: C_5  and  N_6
REMARK    6  A    between atoms: C_7  and  C_8
REMARK    7  A    between atoms: C_8  and  N_9
REMARK    8  A    between atoms: N_12  and  C_13
REMARK                            x       y       z     vdW  Elec       q    Type
REMARK                         _______ _______ _______ _____ _____    ______ ____
ROOT
ATOM      1  N   UNL     1       3.217   6.821  18.417  0.00  0.00    +0.000 N 
ATOM      2  C   UNL     1       2.349   7.724  19.021  0.00  0.00    +0.000 A 
ATOM      3  N   UNL     1       1.740   7.153  20.047  0.00  0.00    +0.000 NA
ATOM      4  C   UNL     1       2.174   5.858  20.078  0.00  0.00    +0.000 A 
ATOM      5  N   UNL     1       1.743   4.913  20.943  0.00  0.00    +0.000 NA
ATOM      6  C   UNL     1       2.314   3.707  20.761  0.00  0.00    +0.000 A 
ATOM      7 CL   UNL     1       1.720   2.484  21.814  0.00  0.00    +0.000 Cl
ATOM      8  C   UNL     1       3.285   3.387  19.821  0.00  0.00    +0.000 A 
ATOM      9  C   UNL     1       3.730   4.372  18.945  0.00  0.00    +0.000 A 
ATOM     10  C   UNL     1       3.125   5.623  19.093  0.00  0.00    +0.000 A 
ENDROOT
BRANCH   1  11
ATOM     11  C   UNL     1       3.982   7.009  17.192  0.00  0.00    +0.000 C 
BRANCH  11  12
ATOM     12  C   UNL     1       5.498   7.075  17.387  0.00  0.00    +0.000 C 
BRANCH  12  14
ATOM     13  C   UNL     1       7.091   5.068  17.392  0.00  0.00    +0.000 C 
ATOM     14  C   UNL     1       6.278   6.047  16.542  0.00  0.00    +0.000 C 
ATOM     15  C   UNL     1       5.300   5.271  15.657  0.00  0.00    +0.000 C 
ENDBRANCH  12  14
ENDBRANCH  11  12
ENDBRANCH   1  11
BRANCH   2  16
ATOM     16  C   UNL     1       2.213   9.161  18.601  0.00  0.00    +0.000 C 
BRANCH  16  17
ATOM     17  N   UNL     1       0.898   9.712  18.817  0.00  0.00    +0.000 N 
ATOM     18  C   UNL     1      -0.157   9.617  17.884  0.00  0.00    +0.000 A 
ATOM     19  O   UNL     1      -0.151   8.951  16.858  0.00  0.00    +0.000 OA
ATOM     20  N   UNL     1      -1.186  10.490  18.346  0.00  0.00    +0.000 N 
ATOM     21  C   UNL     1      -0.762  11.079  19.546  0.00  0.00    +0.000 A 
ATOM     22  C   UNL     1      -1.396  11.994  20.357  0.00  0.00    +0.000 A 
ATOM     23  C   UNL     1      -0.658  12.428  21.449  0.00  0.00    +0.000 A 
ATOM     24  N   UNL     1       0.606  12.011  21.746  0.00  0.00    +0.000 NA
ATOM     25  C   UNL     1       1.178  11.090  20.929  0.00  0.00    +0.000 A 
ATOM     26  C   UNL     1       0.520  10.614  19.825  0.00  0.00    +0.000 A 
BRANCH  20  27
ATOM     27  C   UNL     1      -2.430  10.713  17.686  0.00  0.00    +0.000 C 
ATOM     28  C   UNL     1      -2.865   9.998  16.429  0.00  0.00    +0.000 C 
ATOM     29  C   UNL     1      -3.510   9.658  17.736  0.00  0.00    +0.000 C 
ENDBRANCH  20  27
ENDBRANCH  16  17
ENDBRANCH   2  16
TORSDOF 6
ENDMDL
MODEL 4
REMARK VINA RESULT:      -6.9      3.231      7.614
REMARK  Name = 
REMARK  8 active torsions:
REMARK  status: ('A' for Active; 'I' for Inactive)
REMARK    1  A    between atoms: C_1  and  C_2
REMARK    2  A    between atoms: C_2  and  C_3
REMARK    3  A    between atoms: C_2  and  C_4
REMARK    4  A    between atoms: C_4  and  C_5
REMARK    5  A    between atoms: C_5  and  N_6
REMARK    6  A    between atoms: C_7  and  C_8
REMARK    7  A    between atoms: C_8  and  N_9
REMARK    8  A    between atoms: N_12  and  C_13
REMARK                            x       y       z     vdW  Elec       q    Type
REMARK                         _______ _______ _______ _____ _____    ______ ____
ROOT
ATOM      1  N   UNL     1       2.135   6.383  19.688  0.00  0.00    +0.000 N 
ATOM      2  C   UNL     1       1.833   7.732  19.539  0.00  0.00    +0.000 A 
ATOM      3  N   UNL     1       2.467   8.227  18.489  0.00  0.00    +0.000 NA
ATOM      4  C   UNL     1       3.225   7.209  17.984  0.00  0.00    +0.000 A 
ATOM      5  N   UNL     1       4.075   7.315  16.939  0.00  0.00    +0.000 NA
ATOM      6  C   UNL     1       4.719   6.171  16.641  0.00  0.00    +0.000 A 
ATOM      7 CL   UNL     1       5.854   6.317  15.356  0.00  0.00    +0.000 Cl
ATOM      8  C   UNL     1       4.560   4.945  17.274  0.00  0.00    +0.000 A 
ATOM      9  C   UNL     1       3.671   4.845  18.340  0.00  0.00    +0.000 A 
ATOM     10  C   UNL     1       3.018   6.030  18.690  0.00  0.00    +0.000 A 
ENDROOT
BRANCH   1  11
ATOM     11  C   UNL     1       1.746   5.502  20.780  0.00  0.00    +0.000 C 
BRANCH  11  12
ATOM     12  C   UNL     1       0.734   4.420  20.400  0.00  0.00    +0.000 C 
BRANCH  12  14
ATOM     13  C   UNL     1       1.511   2.176  19.435  0.00  0.00    +0.000 C 
ATOM     14  C   UNL     1       1.217   2.986  20.700  0.00  0.00    +0.000 C 
ATOM     15  C   UNL     1       2.471   3.045  21.575  0.00  0.00    +0.000 C 
ENDBRANCH  12  14
ENDBRANCH  11  12
ENDBRANCH   1  11
BRANCH   2  16
ATOM     16  C   UNL     1       0.854   8.470  20.409  0.00  0.00    +0.000 C 
BRANCH  16  17
ATOM     17  N   UNL     1       0.561   9.808  19.956  0.00  0.00    +0.000 N 
ATOM     18  C   UNL     1       0.940  10.975  20.654  0.00  0.00    +0.000 A 
ATOM     19  O   UNL     1       1.670  11.020  21.634  0.00  0.00    +0.000 OA
ATOM     20  N   UNL     1       0.256  12.060  20.031  0.00  0.00    +0.000 N 
ATOM     21  C   UNL     1      -0.500  11.553  18.964  0.00  0.00    +0.000 A 
ATOM     22  C   UNL     1      -1.332  12.202  18.080  0.00  0.00    +0.000 A 
ATOM     23  C   UNL     1      -1.991  11.382  17.175  0.00  0.00    +0.000 A 
ATOM     24  N   UNL     1      -1.860  10.025  17.120  0.00  0.00    +0.000 NA
ATOM     25  C   UNL     1      -1.009   9.435  17.998  0.00  0.00    +0.000 A 
ATOM     26  C   UNL     1      -0.324  10.172  18.929  0.00  0.00    +0.000 A 
BRANCH  20  27
ATOM     27  C   UNL     1       0.339  13.424  20.438  0.00  0.00    +0.000 C 
ATOM     28  C   UNL     1       1.575  14.061  21.026  0.00  0.00    +0.000 C 
ATOM     29  C   UNL     1       1.160  14.402  19.630  0.00  0.00    +0.000 C 
ENDBRANCH  20  27
ENDBRANCH  16  17
ENDBRANCH   2  16
TORSDOF 6
ENDMDL
MODEL 5
REMARK VINA RESULT:      -6.8      2.630      5.326
REMARK  Name = 
REMARK  8 active torsions:
REMARK  status: ('A' for Active; 'I' for Inactive)
REMARK    1  A    between atoms: C_1  and  C_2
REMARK    2  A    between atoms: C_2  and  C_3
REMARK    3  A    between atoms: C_2  and  C_4
REMARK    4  A    between atoms: C_4  and  C_5
REMARK    5  A    between atoms: C_5  and  N_6
REMARK    6  A    between atoms: C_7  and  C_8
REMARK    7  A    between atoms: C_8  and  N_9
REMARK    8  A    between atoms: N_12  and  C_13
REMARK                            x       y       z     vdW  Elec       q    Type
REMARK                         _______ _______ _______ _____ _____    ______ ____
ROOT
ATOM      1  N   UNL     1       0.706  10.349  19.571  0.00  0.00    +0.000 N 
ATOM      2  C   UNL     1       1.284   9.360  18.784  0.00  0.00    +0.000 A 
ATOM      3  N   UNL     1       0.516   9.103  17.738  0.00  0.00    +0.000 NA
ATOM      4  C   UNL     1      -0.593   9.891  17.874  0.00  0.00    +0.000 A 
ATOM      5  N   UNL     1      -1.658   9.886  17.043  0.00  0.00    +0.000 NA
ATOM      6  C   UNL     1      -2.631  10.745  17.400  0.00  0.00    +0.000 A 
ATOM      7 CL   UNL     1      -4.019  10.694  16.385  0.00  0.00    +0.000 Cl
ATOM      8  C   UNL     1      -2.610  11.613  18.484  0.00  0.00    +0.000 A 
ATOM      9  C   UNL     1      -1.501  11.618  19.324  0.00  0.00    +0.000 A 
ATOM     10  C   UNL     1      -0.493  10.708  18.993  0.00  0.00    +0.000 A 
ENDROOT
BRANCH   1  11
ATOM     11  C   UNL     1       1.163  10.833  20.866  0.00  0.00    +0.000 C 
BRANCH  11  12
ATOM     12  C   UNL     1       1.285   9.756  21.945  0.00  0.00    +0.000 C 
BRANCH  12  14
ATOM     13  C   UNL     1      -0.849  10.799  22.909  0.00  0.00    +0.000 C 
ATOM     14  C   UNL     1      -0.015   9.526  22.744  0.00  0.00    +0.000 C 
ATOM     15  C   UNL     1      -0.852   8.449  22.050  0.00  0.00    +0.000 C 
ENDBRANCH  12  14
ENDBRANCH  11  12
ENDBRANCH   1  11
BRANCH   2  16
ATOM     16  C   UNL     1       2.632   8.755  19.059  0.00  0.00    +0.000 C 
BRANCH  16  17
ATOM     17  N   UNL     1       2.695   7.333  18.822  0.00  0.00    +0.000 N 
ATOM     18  C   UNL     1       2.147   6.366  19.693  0.00  0.00    +0.000 A 
ATOM     19  O   UNL     1       1.439   6.593  20.664  0.00  0.00    +0.000 OA
ATOM     20  N   UNL     1       2.633   5.100  19.250  0.00  0.00    +0.000 N 
ATOM     21  C   UNL     1       3.439   5.306  18.121  0.00  0.00    +0.000 A 
ATOM     22  C   UNL     1       4.136   4.400  17.353  0.00  0.00    +0.000 A 
ATOM     23  C   UNL     1       4.900   4.951  16.335  0.00  0.00    +0.000 A 
ATOM     24  N   UNL     1       4.990   6.286  16.068  0.00  0.00    +0.000 NA
ATOM     25  C   UNL     1       4.265   7.136  16.839  0.00  0.00    +0.000 A 
ATOM     26  C   UNL     1       3.489   6.674  17.870  0.00  0.00    +0.000 A 
BRANCH  20  27
ATOM     27  C   UNL     1       2.338   3.848  19.865  0.00  0.00    +0.000 C 
ATOM     28  C   UNL     1       1.056   3.545  20.602  0.00  0.00    +0.000 C 
ATOM     29  C   UNL     1       1.297   2.937  19.257  0.00  0.00    +0.000 C 
ENDBRANCH  20  27
ENDBRANCH  16  17
ENDBRANCH   2  16
TORSDOF 6
ENDMDL
MODEL 6
REMARK VINA RESULT:      -6.8      3.019      6.066
REMARK  Name = 
REMARK  8 active torsions:
REMARK  status: ('A' for Active; 'I' for Inactive)
REMARK    1  A    between atoms: C_1  and  C_2
REMARK    2  A    between atoms: C_2  and  C_3
REMARK    3  A    between atoms: C_2  and  C_4
REMARK    4  A    between atoms: C_4  and  C_5
REMARK    5  A    between atoms: C_5  and  N_6
REMARK    6  A    between atoms: C_7  and  C_8
REMARK    7  A    between atoms: C_8  and  N_9
REMARK    8  A    between atoms: N_12  and  C_13
REMARK                            x       y       z     vdW  Elec       q    Type
REMARK                         _______ _______ _______ _____ _____    ______ ____
ROOT
ATOM      1  N   UNL     1       0.034  10.272  19.745  0.00  0.00    +0.000 N 
ATOM      2  C   UNL     1       0.840   9.409  19.012  0.00  0.00    +0.000 A 
ATOM      3  N   UNL     1       0.331   9.228  17.804  0.00  0.00    +0.000 NA
ATOM      4  C   UNL     1      -0.839   9.934  17.770  0.00  0.00    +0.000 A 
ATOM      5  N   UNL     1      -1.700   9.964  16.730  0.00  0.00    +0.000 NA
ATOM      6  C   UNL     1      -2.790  10.724  16.948  0.00  0.00    +0.000 A 
ATOM      7 CL   UNL     1      -3.925  10.710  15.654  0.00  0.00    +0.000 Cl
ATOM      8  C   UNL     1      -3.065  11.467  18.088  0.00  0.00    +0.000 A 
ATOM      9  C   UNL     1      -2.162  11.439  19.147  0.00  0.00    +0.000 A 
ATOM     10  C   UNL     1      -1.040  10.628  18.957  0.00  0.00    +0.000 A 
ENDROOT
BRANCH   1  11
ATOM     11  C   UNL     1       0.169  10.634  21.149  0.00  0.00    +0.000 C 
BRANCH  11  12
ATOM     12  C   UNL     1       0.196  12.139  21.423  0.00  0.00    +0.000 C 
BRANCH  12  14
ATOM     13  C   UNL     1      -1.782  13.650  22.035  0.00  0.00    +0.000 C 
ATOM     14  C   UNL     1      -0.792  12.588  22.520  0.00  0.00    +0.000 C 
ATOM     15  C   UNL     1      -1.558  11.371  23.042  0.00  0.00    +0.000 C 
ENDBRANCH  12  14
ENDBRANCH  11  12
ENDBRANCH   1  11
BRANCH   2  16
ATOM     16  C   UNL     1       2.141   8.851  19.515  0.00  0.00    +0.000 C 
BRANCH  16  17
ATOM     17  N   UNL     1       2.340   7.456  19.203  0.00  0.00    +0.000 N 
ATOM     18  C   UNL     1       1.891   6.396  20.020  0.00  0.00    +0.000 A 
ATOM     19  O   UNL     1       1.168   6.502  21.001  0.00  0.00    +0.000 OA
ATOM     20  N   UNL     1       2.495   5.209  19.511  0.00  0.00    +0.000 N 
ATOM     21  C   UNL     1       3.273   5.550  18.396  0.00  0.00    +0.000 A 
ATOM     22  C   UNL     1       4.051   4.758  17.582  0.00  0.00    +0.000 A 
ATOM     23  C   UNL     1       4.755   5.434  16.595  0.00  0.00    +0.000 A 
ATOM     24  N   UNL     1       4.714   6.784  16.399  0.00  0.00    +0.000 NA
ATOM     25  C   UNL     1       3.913   7.518  17.213  0.00  0.00    +0.000 A 
ATOM     26  C   UNL     1       3.189   6.929  18.218  0.00  0.00    +0.000 A 
BRANCH  20  27
ATOM     27  C   UNL     1       2.325   3.903  20.058  0.00  0.00    +0.000 C 
ATOM     28  C   UNL     1       1.097   3.451  20.810  0.00  0.00    +0.000 C 
ATOM     29  C   UNL     1       1.345   2.943  19.426  0.00  0.00    +0.000 C 
ENDBRANCH  20  27
ENDBRANCH  16  17
ENDBRANCH   2  16
TORSDOF 6
ENDMDL
MODEL 7
REMARK VINA RESULT:      -6.8      3.908      8.608
REMARK  Name = 
REMARK  8 active torsions:
REMARK  status: ('A' for Active; 'I' for Inactive)
REMARK    1  A    between atoms: C_1  and  C_2
REMARK    2  A    between atoms: C_2  and  C_3
REMARK    3  A    between atoms: C_2  and  C_4
REMARK    4  A    between atoms: C_4  and  C_5
REMARK    5  A    between atoms: C_5  and  N_6
REMARK    6  A    between atoms: C_7  and  C_8
REMARK    7  A    between atoms: C_8  and  N_9
REMARK    8  A    between atoms: N_12  and  C_13
REMARK                            x       y       z     vdW  Elec       q    Type
REMARK                         _______ _______ _______ _____ _____    ______ ____
ROOT
ATOM      1  N   UNL     1       1.474   8.707  19.823  0.00  0.00    +0.000 N 
ATOM      2  C   UNL     1       1.600   9.341  18.593  0.00  0.00    +0.000 A 
ATOM      3  N   UNL     1       2.095   8.502  17.697  0.00  0.00    +0.000 NA
ATOM      4  C   UNL     1       2.341   7.333  18.361  0.00  0.00    +0.000 A 
ATOM      5  N   UNL     1       2.909   6.235  17.819  0.00  0.00    +0.000 NA
ATOM      6  C   UNL     1       3.057   5.214  18.684  0.00  0.00    +0.000 A 
ATOM      7 CL   UNL     1       3.843   3.836  18.017  0.00  0.00    +0.000 Cl
ATOM      8  C   UNL     1       2.662   5.196  20.015  0.00  0.00    +0.000 A 
ATOM      9  C   UNL     1       2.065   6.329  20.558  0.00  0.00    +0.000 A 
ATOM     10  C   UNL     1       1.933   7.414  19.687  0.00  0.00    +0.000 A 
ENDROOT
BRANCH   1  11
ATOM     11  C   UNL     1       1.087   9.304  21.094  0.00  0.00    +0.000 C 
BRANCH  11  12
ATOM     12  C   UNL     1      -0.336   8.975  21.549  0.00  0.00    +0.000 C 
BRANCH  12  14
ATOM     13  C   UNL     1       0.617   9.256  23.912  0.00  0.00    +0.000 C 
ATOM     14  C   UNL     1      -0.621   9.353  23.018  0.00  0.00    +0.000 C 
ATOM     15  C   UNL     1      -1.185  10.775  23.075  0.00  0.00    +0.000 C 
ENDBRANCH  12  14
ENDBRANCH  11  12
ENDBRANCH   1  11
BRANCH   2  16
ATOM     16  C   UNL     1       1.147  10.749  18.328  0.00  0.00    +0.000 C 
BRANCH  16  17
ATOM     17  N   UNL     1      -0.243  10.985  18.635  0.00  0.00    +0.000 N 
ATOM     18  C   UNL     1      -1.314  10.406  17.920  0.00  0.00    +0.000 A 
ATOM     19  O   UNL     1      -1.220   9.539  17.062  0.00  0.00    +0.000 OA
ATOM     20  N   UNL     1      -2.497  11.074  18.353  0.00  0.00    +0.000 N 
ATOM     21  C   UNL     1      -2.142  12.019  19.326  0.00  0.00    +0.000 A 
ATOM     22  C   UNL     1      -2.925  12.910  20.025  0.00  0.00    +0.000 A 
ATOM     23  C   UNL     1      -2.238  13.764  20.875  0.00  0.00    +0.000 A 
ATOM     24  N   UNL     1      -0.884  13.764  21.046  0.00  0.00    +0.000 NA
ATOM     25  C   UNL     1      -0.158  12.851  20.351  0.00  0.00    +0.000 A 
ATOM     26  C   UNL     1      -0.759  11.974  19.485  0.00  0.00    +0.000 A 
BRANCH  20  27
ATOM     27  C   UNL     1      -3.812  10.811  17.867  0.00  0.00    +0.000 C 
ATOM     28  C   UNL     1      -4.828  11.880  17.545  0.00  0.00    +0.000 C 
ATOM     29  C   UNL     1      -4.164  11.131  16.434  0.00  0.00    +0.000 C 
ENDBRANCH  20  27
ENDBRANCH  16  17
ENDBRANCH   2  16
TORSDOF 6
ENDMDL
MODEL 8
REMARK VINA RESULT:      -6.8      3.118      7.535
REMARK  Name = 
REMARK  8 active torsions:
REMARK  status: ('A' for Active; 'I' for Inactive)
REMARK    1  A    between atoms: C_1  and  C_2
REMARK    2  A    between atoms: C_2  and  C_3
REMARK    3  A    between atoms: C_2  and  C_4
REMARK    4  A    between atoms: C_4  and  C_5
REMARK    5  A    between atoms: C_5  and  N_6
REMARK    6  A    between atoms: C_7  and  C_8
REMARK    7  A    between atoms: C_8  and  N_9
REMARK    8  A    between atoms: N_12  and  C_13
REMARK                            x       y       z     vdW  Elec       q    Type
REMARK                         _______ _______ _______ _____ _____    ______ ____
ROOT
ATOM      1  N   UNL     1       2.497   6.697  19.353  0.00  0.00    +0.000 N 
ATOM      2  C   UNL     1       2.094   7.744  18.532  0.00  0.00    +0.000 A 
ATOM      3  N   UNL     1       2.985   7.938  17.573  0.00  0.00    +0.000 NA
ATOM      4  C   UNL     1       3.997   7.049  17.803  0.00  0.00    +0.000 A 
ATOM      5  N   UNL     1       5.136   6.963  17.082  0.00  0.00    +0.000 NA
ATOM      6  C   UNL     1       5.985   6.014  17.517  0.00  0.00    +0.000 A 
ATOM      7 CL   UNL     1       7.468   5.945  16.646  0.00  0.00    +0.000 Cl
ATOM      8  C   UNL     1       5.776   5.141  18.577  0.00  0.00    +0.000 A 
ATOM      9  C   UNL     1       4.592   5.231  19.303  0.00  0.00    +0.000 A 
ATOM     10  C   UNL     1       3.711   6.234  18.891  0.00  0.00    +0.000 A 
ENDROOT
BRANCH   1  11
ATOM     11  C   UNL     1       1.870   6.245  20.587  0.00  0.00    +0.000 C 
BRANCH  11  12
ATOM     12  C   UNL     1       0.908   5.068  20.422  0.00  0.00    +0.000 C 
BRANCH  12  14
ATOM     13  C   UNL     1       1.358   2.793  21.513  0.00  0.00    +0.000 C 
ATOM     14  C   UNL     1       1.613   3.701  20.309  0.00  0.00    +0.000 C 
ATOM     15  C   UNL     1       1.154   2.998  19.029  0.00  0.00    +0.000 C 
ENDBRANCH  12  14
ENDBRANCH  11  12
ENDBRANCH   1  11
BRANCH   2  16
ATOM     16  C   UNL     1       0.787   8.470  18.684  0.00  0.00    +0.000 C 
BRANCH  16  17
ATOM     17  N   UNL     1       0.840   9.588  19.594  0.00  0.00    +0.000 N 
ATOM     18  C   UNL     1       0.145   9.637  20.821  0.00  0.00    +0.000 A 
ATOM     19  O   UNL     1      -0.465   8.711  21.338  0.00  0.00    +0.000 OA
ATOM     20  N   UNL     1       0.246  10.980  21.291  0.00  0.00    +0.000 N 
ATOM     21  C   UNL     1       1.008  11.714  20.372  0.00  0.00    +0.000 A 
ATOM     22  C   UNL     1       1.367  13.043  20.380  0.00  0.00    +0.000 A 
ATOM     23  C   UNL     1       2.078  13.472  19.268  0.00  0.00    +0.000 A 
ATOM     24  N   UNL     1       2.424  12.677  18.215  0.00  0.00    +0.000 NA
ATOM     25  C   UNL     1       2.067  11.368  18.265  0.00  0.00    +0.000 A 
ATOM     26  C   UNL     1       1.358  10.865  19.325  0.00  0.00    +0.000 A 
BRANCH  20  27
ATOM     27  C   UNL     1      -0.337  11.473  22.495  0.00  0.00    +0.000 C 
ATOM     28  C   UNL     1      -0.971  12.836  22.636  0.00  0.00    +0.000 C 
ATOM     29  C   UNL     1      -1.836  11.616  22.604  0.00  0.00    +0.000 C 
ENDBRANCH  20  27
ENDBRANCH  16  17
ENDBRANCH   2  16
TORSDOF 6
ENDMDL
MODEL 9
REMARK VINA RESULT:      -6.8      3.143      7.779
REMARK  Name = 
REMARK  8 active torsions:
REMARK  status: ('A' for Active; 'I' for Inactive)
REMARK    1  A    between atoms: C_1  and  C_2
REMARK    2  A    between atoms: C_2  and  C_3
REMARK    3  A    between atoms: C_2  and  C_4
REMARK    4  A    between atoms: C_4  and  C_5
REMARK    5  A    between atoms: C_5  and  N_6
REMARK    6  A    between atoms: C_7  and  C_8
REMARK    7  A    between atoms: C_8  and  N_9
REMARK    8  A    between atoms: N_12  and  C_13
REMARK                            x       y       z     vdW  Elec       q    Type
REMARK                         _______ _______ _______ _____ _____    ______ ____
ROOT
ATOM      1  N   UNL     1       3.322   6.331  18.128  0.00  0.00    +0.000 N 
ATOM      2  C   UNL     1       2.471   6.990  19.008  0.00  0.00    +0.000 A 
ATOM      3  N   UNL     1       1.640   6.127  19.569  0.00  0.00    +0.000 NA
ATOM      4  C   UNL     1       1.917   4.910  19.012  0.00  0.00    +0.000 A 
ATOM      5  N   UNL     1       1.247   3.766  19.269  0.00  0.00    +0.000 NA
ATOM      6  C   UNL     1       1.703   2.701  18.583  0.00  0.00    +0.000 A 
ATOM      7 CL   UNL     1       0.810   1.256  18.854  0.00  0.00    +0.000 Cl
ATOM      8  C   UNL     1       2.775   2.686  17.700  0.00  0.00    +0.000 A 
ATOM      9  C   UNL     1       3.465   3.868  17.454  0.00  0.00    +0.000 A 
ATOM     10  C   UNL     1       2.986   4.994  18.129  0.00  0.00    +0.000 A 
ENDROOT
BRANCH   1  11
ATOM     11  C   UNL     1       4.296   6.926  17.223  0.00  0.00    +0.000 C 
BRANCH  11  12
ATOM     12  C   UNL     1       5.754   6.592  17.542  0.00  0.00    +0.000 C 
BRANCH  12  14
ATOM     13  C   UNL     1       7.168   4.595  16.779  0.00  0.00    +0.000 C 
ATOM     14  C   UNL     1       6.505   5.914  16.377  0.00  0.00    +0.000 C 
ATOM     15  C   UNL     1       5.533   5.670  15.220  0.00  0.00    +0.000 C 
ENDBRANCH  12  14
ENDBRANCH  11  12
ENDBRANCH   1  11
BRANCH   2  16
ATOM     16  C   UNL     1       2.567   8.456  19.322  0.00  0.00    +0.000 C 
BRANCH  16  17
ATOM     17  N   UNL     1       1.308   9.060  19.689  0.00  0.00    +0.000 N 
ATOM     18  C   UNL     1       0.437   9.681  18.768  0.00  0.00    +0.000 A 
ATOM     19  O   UNL     1       0.552   9.669  17.550  0.00  0.00    +0.000 OA
ATOM     20  N   UNL     1      -0.548  10.365  19.540  0.00  0.00    +0.000 N 
ATOM     21  C   UNL     1      -0.283  10.138  20.897  0.00  0.00    +0.000 A 
ATOM     22  C   UNL     1      -0.941  10.594  22.018  0.00  0.00    +0.000 A 
ATOM     23  C   UNL     1      -0.369  10.232  23.229  0.00  0.00    +0.000 A 
ATOM     24  N   UNL     1       0.762   9.480  23.359  0.00  0.00    +0.000 NA
ATOM     25  C   UNL     1       1.360   9.034  22.225  0.00  0.00    +0.000 A 
ATOM     26  C   UNL     1       0.863   9.351  20.987  0.00  0.00    +0.000 A 
BRANCH  20  27
ATOM     27  C   UNL     1      -1.615  11.144  19.003  0.00  0.00    +0.000 C 
ATOM     28  C   UNL     1      -2.007  12.511  19.509  0.00  0.00    +0.000 C 
ATOM     29  C   UNL     1      -1.311  12.381  18.192  0.00  0.00    +0.000 C 
ENDBRANCH  20  27
ENDBRANCH  16  17
ENDBRANCH   2  16
TORSDOF 6
ENDMDL
