MODEL 1
REMARK VINA RESULT:      -6.7      0.000      0.000
REMARK  Name = 
REMARK  5 active torsions:
REMARK  status: ('A' for Active; 'I' for Inactive)
REMARK    1  A    between atoms: C_1  and  O_2
REMARK    2  A    between atoms: O_2  and  C_3
REMARK    3  A    between atoms: C_8  and  C_9
REMARK    4  A    between atoms: C_9  and  N_10
REMARK    5  A    between atoms: C_9  and  C_11
REMARK                            x       y       z     vdW  Elec       q    Type
REMARK                         _______ _______ _______ _____ _____    ______ ____
ROOT
ATOM      1  C   UNL     1       4.342   3.500  18.552  0.00  0.00    +0.000 C 
ENDROOT
BRANCH   1   7
ATOM      2  C   UNL     1       6.519   4.626  17.618  0.00  0.00    +0.000 A 
ATOM      3  C   UNL     1       7.221   5.129  16.494  0.00  0.00    +0.000 A 
ATOM      4  C   UNL     1       6.684   5.037  15.216  0.00  0.00    +0.000 A 
ATOM      5  C   UNL     1       5.447   4.438  15.020  0.00  0.00    +0.000 A 
ATOM      6  C   UNL     1       4.730   3.946  16.110  0.00  0.00    +0.000 A 
ATOM      7  C   UNL     1       5.234   4.042  17.424  0.00  0.00    +0.000 A 
BRANCH   2   9
ATOM      8  C   UNL     1       7.821   5.776  19.328  0.00  0.00    +0.000 C 
ATOM      9  O   UNL     1       7.079   4.700  18.855  0.00  0.00    +0.000 OA
ENDBRANCH   2   9
ENDBRANCH   1   7
BRANCH   1  10
ATOM     10  C   UNL     1       3.453   4.529  19.244  0.00  0.00    +0.000 A 
ATOM     11  C   UNL     1       3.440   5.897  18.898  0.00  0.00    +0.000 A 
ATOM     12  C   UNL     1       2.550   6.780  19.523  0.00  0.00    +0.000 A 
ATOM     13  C   UNL     1       1.660   6.314  20.493  0.00  0.00    +0.000 A 
ATOM     14  C   UNL     1       1.661   4.965  20.847  0.00  0.00    +0.000 A 
ATOM     15  C   UNL     1       2.549   4.078  20.228  0.00  0.00    +0.000 A 
ENDBRANCH   1  10
BRANCH   1  16
ATOM     16  N   UNL     1       5.102   2.714  19.528  0.00  0.00    +0.000 NA
ATOM     17  H   UNL     1       6.076   2.534  19.203  0.00  0.00    +0.000 HD
ATOM     18  H   UNL     1       4.613   1.807  19.706  0.00  0.00    +0.000 HD
ENDBRANCH   1  16
TORSDOF 4
ENDMDL
MODEL 2
REMARK VINA RESULT:      -6.6      1.765      2.815
REMARK  Name = 
REMARK  5 active torsions:
REMARK  status: ('A' for Active; 'I' for Inactive)
REMARK    1  A    between atoms: C_1  and  O_2
REMARK    2  A    between atoms: O_2  and  C_3
REMARK    3  A    between atoms: C_8  and  C_9
REMARK    4  A    between atoms: C_9  and  N_10
REMARK    5  A    between atoms: C_9  and  C_11
REMARK                            x       y       z     vdW  Elec       q    Type
REMARK                         _______ _______ _______ _____ _____    ______ ____
ROOT
ATOM      1  C   UNL     1       3.910   3.255  17.920  0.00  0.00    +0.000 C 
ENDROOT
BRANCH   1   7
ATOM      2  C   UNL     1       6.026   4.311  16.786  0.00  0.00    +0.000 A 
ATOM      3  C   UNL     1       7.187   5.111  16.926  0.00  0.00    +0.000 A 
ATOM      4  C   UNL     1       7.487   5.733  18.132  0.00  0.00    +0.000 A 
ATOM      5  C   UNL     1       6.639   5.586  19.222  0.00  0.00    +0.000 A 
ATOM      6  C   UNL     1       5.496   4.795  19.115  0.00  0.00    +0.000 A 
ATOM      7  C   UNL     1       5.173   4.130  17.913  0.00  0.00    +0.000 A 
BRANCH   2   9
ATOM      8  C   UNL     1       6.381   4.035  14.391  0.00  0.00    +0.000 C 
ATOM      9  O   UNL     1       5.739   3.738  15.587  0.00  0.00    +0.000 OA
ENDBRANCH   2   9
ENDBRANCH   1   7
BRANCH   1  10
ATOM     10  C   UNL     1       3.035   3.366  19.164  0.00  0.00    +0.000 A 
ATOM     11  C   UNL     1       1.868   4.158  19.221  0.00  0.00    +0.000 A 
ATOM     12  C   UNL     1       1.068   4.163  20.370  0.00  0.00    +0.000 A 
ATOM     13  C   UNL     1       1.414   3.381  21.474  0.00  0.00    +0.000 A 
ATOM     14  C   UNL     1       2.565   2.594  21.436  0.00  0.00    +0.000 A 
ATOM     15  C   UNL     1       3.370   2.586  20.290  0.00  0.00    +0.000 A 
ENDBRANCH   1  10
BRANCH   1  16
ATOM     16  N   UNL     1       4.206   1.855  17.602  0.00  0.00    +0.000 NA
ATOM     17  H   UNL     1       4.294   1.703  16.576  0.00  0.00    +0.000 HD
ATOM     18  H   UNL     1       3.456   1.240  17.991  0.00  0.00    +0.000 HD
ENDBRANCH   1  16
TORSDOF 4
ENDMDL
MODEL 3
REMARK VINA RESULT:      -6.6      0.194      1.219
REMARK  Name = 
REMARK  5 active torsions:
REMARK  status: ('A' for Active; 'I' for Inactive)
REMARK    1  A    between atoms: C_1  and  O_2
REMARK    2  A    between atoms: O_2  and  C_3
REMARK    3  A    between atoms: C_8  and  C_9
REMARK    4  A    between atoms: C_9  and  N_10
REMARK    5  A    between atoms: C_9  and  C_11
REMARK                            x       y       z     vdW  Elec       q    Type
REMARK                         _______ _______ _______ _____ _____    ______ ____
ROOT
ATOM      1  C   UNL     1       4.314   3.506  18.480  0.00  0.00    +0.000 C 
ENDROOT
BRANCH   1   7
ATOM      2  C   UNL     1       6.518   4.611  17.583  0.00  0.00    +0.000 A 
ATOM      3  C   UNL     1       7.250   5.091  16.469  0.00  0.00    +0.000 A 
ATOM      4  C   UNL     1       6.748   4.975  15.179  0.00  0.00    +0.000 A 
ATOM      5  C   UNL     1       5.515   4.374  14.962  0.00  0.00    +0.000 A 
ATOM      6  C   UNL     1       4.768   3.903  16.041  0.00  0.00    +0.000 A 
ATOM      7  C   UNL     1       5.237   4.025  17.366  0.00  0.00    +0.000 A 
BRANCH   2   9
ATOM      8  C   UNL     1       7.823   5.766  19.286  0.00  0.00    +0.000 C 
ATOM      9  O   UNL     1       7.044   4.708  18.833  0.00  0.00    +0.000 OA
ENDBRANCH   2   9
ENDBRANCH   1   7
BRANCH   1  10
ATOM     10  C   UNL     1       3.384   4.542  19.105  0.00  0.00    +0.000 A 
ATOM     11  C   UNL     1       2.549   4.266  20.209  0.00  0.00    +0.000 A 
ATOM     12  C   UNL     1       1.770   5.279  20.781  0.00  0.00    +0.000 A 
ATOM     13  C   UNL     1       1.815   6.578  20.268  0.00  0.00    +0.000 A 
ATOM     14  C   UNL     1       2.633   6.867  19.176  0.00  0.00    +0.000 A 
ATOM     15  C   UNL     1       3.413   5.858  18.598  0.00  0.00    +0.000 A 
ENDBRANCH   1  10
BRANCH   1  16
ATOM     16  N   UNL     1       5.051   2.766  19.508  0.00  0.00    +0.000 NA
ATOM     17  H   UNL     1       4.900   3.170  20.457  0.00  0.00    +0.000 HD
ATOM     18  H   UNL     1       6.071   2.767  19.279  0.00  0.00    +0.000 HD
ENDBRANCH   1  16
TORSDOF 4
ENDMDL
MODEL 4
REMARK VINA RESULT:      -6.5      2.191      3.071
REMARK  Name = 
REMARK  5 active torsions:
REMARK  status: ('A' for Active; 'I' for Inactive)
REMARK    1  A    between atoms: C_1  and  O_2
REMARK    2  A    between atoms: O_2  and  C_3
REMARK    3  A    between atoms: C_8  and  C_9
REMARK    4  A    between atoms: C_9  and  N_10
REMARK    5  A    between atoms: C_9  and  C_11
REMARK                            x       y       z     vdW  Elec       q    Type
REMARK                         _______ _______ _______ _____ _____    ______ ____
ROOT
ATOM      1  C   UNL     1       3.327   3.200  17.658  0.00  0.00    +0.000 C 
ENDROOT
BRANCH   1   7
ATOM      2  C   UNL     1       4.924   4.792  16.317  0.00  0.00    +0.000 A 
ATOM      3  C   UNL     1       5.385   6.112  16.089  0.00  0.00    +0.000 A 
ATOM      4  C   UNL     1       4.829   7.191  16.764  0.00  0.00    +0.000 A 
ATOM      5  C   UNL     1       3.799   6.989  17.673  0.00  0.00    +0.000 A 
ATOM      6  C   UNL     1       3.334   5.699  17.926  0.00  0.00    +0.000 A 
ATOM      7  C   UNL     1       3.891   4.578  17.275  0.00  0.00    +0.000 A 
BRANCH   2   9
ATOM      8  C   UNL     1       6.222   3.886  14.464  0.00  0.00    +0.000 C 
ATOM      9  O   UNL     1       5.463   3.755  15.620  0.00  0.00    +0.000 OA
ENDBRANCH   2   9
ENDBRANCH   1   7
BRANCH   1  10
ATOM     10  C   UNL     1       2.600   3.132  18.997  0.00  0.00    +0.000 A 
ATOM     11  C   UNL     1       1.202   3.284  19.127  0.00  0.00    +0.000 A 
ATOM     12  C   UNL     1       0.585   3.141  20.375  0.00  0.00    +0.000 A 
ATOM     13  C   UNL     1       1.346   2.841  21.507  0.00  0.00    +0.000 A 
ATOM     14  C   UNL     1       2.728   2.690  21.397  0.00  0.00    +0.000 A 
ATOM     15  C   UNL     1       3.351   2.834  20.152  0.00  0.00    +0.000 A 
ENDBRANCH   1  10
BRANCH   1  16
ATOM     16  N   UNL     1       4.334   2.141  17.546  0.00  0.00    +0.000 NA
ATOM     17  H   UNL     1       3.977   1.230  17.905  0.00  0.00    +0.000 HD
ATOM     18  H   UNL     1       5.195   2.418  18.069  0.00  0.00    +0.000 HD
ENDBRANCH   1  16
TORSDOF 4
ENDMDL
MODEL 5
REMARK VINA RESULT:      -6.5      1.806      2.954
REMARK  Name = 
REMARK  5 active torsions:
REMARK  status: ('A' for Active; 'I' for Inactive)
REMARK    1  A    between atoms: C_1  and  O_2
REMARK    2  A    between atoms: O_2  and  C_3
REMARK    3  A    between atoms: C_8  and  C_9
REMARK    4  A    between atoms: C_9  and  N_10
REMARK    5  A    between atoms: C_9  and  C_11
REMARK                            x       y       z     vdW  Elec       q    Type
REMARK                         _______ _______ _______ _____ _____    ______ ____
ROOT
ATOM      1  C   UNL     1       3.871   3.201  17.866  0.00  0.00    +0.000 C 
ENDROOT
BRANCH   1   7
ATOM      2  C   UNL     1       5.866   4.453  16.711  0.00  0.00    +0.000 A 
ATOM      3  C   UNL     1       7.000   5.289  16.856  0.00  0.00    +0.000 A 
ATOM      4  C   UNL     1       7.351   5.812  18.094  0.00  0.00    +0.000 A 
ATOM      5  C   UNL     1       6.582   5.527  19.215  0.00  0.00    +0.000 A 
ATOM      6  C   UNL     1       5.467   4.697  19.102  0.00  0.00    +0.000 A 
ATOM      7  C   UNL     1       5.095   4.131  17.865  0.00  0.00    +0.000 A 
BRANCH   2   9
ATOM      8  C   UNL     1       6.351   4.005  14.365  0.00  0.00    +0.000 C 
ATOM      9  O   UNL     1       5.526   3.978  15.483  0.00  0.00    +0.000 OA
ENDBRANCH   2   9
ENDBRANCH   1   7
BRANCH   1  10
ATOM     10  C   UNL     1       3.015   3.236  19.128  0.00  0.00    +0.000 A 
ATOM     11  C   UNL     1       3.335   2.519  20.300  0.00  0.00    +0.000 A 
ATOM     12  C   UNL     1       2.546   2.647  21.450  0.00  0.00    +0.000 A 
ATOM     13  C   UNL     1       1.434   3.492  21.451  0.00  0.00    +0.000 A 
ATOM     14  C   UNL     1       1.102   4.207  20.300  0.00  0.00    +0.000 A 
ATOM     15  C   UNL     1       1.886   4.081  19.147  0.00  0.00    +0.000 A 
ENDBRANCH   1  10
BRANCH   1  16
ATOM     16  N   UNL     1       4.222   1.826  17.500  0.00  0.00    +0.000 NA
ATOM     17  H   UNL     1       5.061   1.491  18.019  0.00  0.00    +0.000 HD
ATOM     18  H   UNL     1       4.393   1.769  16.470  0.00  0.00    +0.000 HD
ENDBRANCH   1  16
TORSDOF 4
ENDMDL
MODEL 6
REMARK VINA RESULT:      -6.4      1.785      2.159
REMARK  Name = 
REMARK  5 active torsions:
REMARK  status: ('A' for Active; 'I' for Inactive)
REMARK    1  A    between atoms: C_1  and  O_2
REMARK    2  A    between atoms: O_2  and  C_3
REMARK    3  A    between atoms: C_8  and  C_9
REMARK    4  A    between atoms: C_9  and  N_10
REMARK    5  A    between atoms: C_9  and  C_11
REMARK                            x       y       z     vdW  Elec       q    Type
REMARK                         _______ _______ _______ _____ _____    ______ ____
ROOT
ATOM      1  C   UNL     1       4.068   6.206  18.191  0.00  0.00    +0.000 C 
ENDROOT
BRANCH   1   7
ATOM      2  C   UNL     1       6.324   4.963  17.693  0.00  0.00    +0.000 A 
ATOM      3  C   UNL     1       7.232   4.472  16.723  0.00  0.00    +0.000 A 
ATOM      4  C   UNL     1       6.951   4.568  15.366  0.00  0.00    +0.000 A 
ATOM      5  C   UNL     1       5.762   5.144  14.939  0.00  0.00    +0.000 A 
ATOM      6  C   UNL     1       4.856   5.647  15.871  0.00  0.00    +0.000 A 
ATOM      7  C   UNL     1       5.119   5.587  17.256  0.00  0.00    +0.000 A 
BRANCH   2   9
ATOM      8  C   UNL     1       7.531   5.600  19.712  0.00  0.00    +0.000 C 
ATOM      9  O   UNL     1       6.607   4.830  19.016  0.00  0.00    +0.000 OA
ENDBRANCH   2   9
ENDBRANCH   1   7
BRANCH   1  10
ATOM     10  C   UNL     1       2.959   5.266  18.655  0.00  0.00    +0.000 A 
ATOM     11  C   UNL     1       2.337   4.326  17.806  0.00  0.00    +0.000 A 
ATOM     12  C   UNL     1       1.374   3.442  18.309  0.00  0.00    +0.000 A 
ATOM     13  C   UNL     1       1.022   3.478  19.660  0.00  0.00    +0.000 A 
ATOM     14  C   UNL     1       1.625   4.403  20.512  0.00  0.00    +0.000 A 
ATOM     15  C   UNL     1       2.587   5.290  20.015  0.00  0.00    +0.000 A 
ENDBRANCH   1  10
BRANCH   1  16
ATOM     16  N   UNL     1       3.517   7.453  17.654  0.00  0.00    +0.000 NA
ATOM     17  H   UNL     1       2.983   7.291  16.774  0.00  0.00    +0.000 HD
ATOM     18  H   UNL     1       4.291   8.134  17.481  0.00  0.00    +0.000 HD
ENDBRANCH   1  16
TORSDOF 4
ENDMDL
MODEL 7
REMARK VINA RESULT:      -6.4      2.176      3.095
REMARK  Name = 
REMARK  5 active torsions:
REMARK  status: ('A' for Active; 'I' for Inactive)
REMARK    1  A    between atoms: C_1  and  O_2
REMARK    2  A    between atoms: O_2  and  C_3
REMARK    3  A    between atoms: C_8  and  C_9
REMARK    4  A    between atoms: C_9  and  N_10
REMARK    5  A    between atoms: C_9  and  C_11
REMARK                            x       y       z     vdW  Elec       q    Type
REMARK                         _______ _______ _______ _____ _____    ______ ____
ROOT
ATOM      1  C   UNL     1       3.306   3.114  17.649  0.00  0.00    +0.000 C 
ENDROOT
BRANCH   1   7
ATOM      2  C   UNL     1       4.919   4.757  16.393  0.00  0.00    +0.000 A 
ATOM      3  C   UNL     1       5.361   6.090  16.201  0.00  0.00    +0.000 A 
ATOM      4  C   UNL     1       4.756   7.147  16.869  0.00  0.00    +0.000 A 
ATOM      5  C   UNL     1       3.696   6.911  17.734  0.00  0.00    +0.000 A 
ATOM      6  C   UNL     1       3.249   5.608  17.950  0.00  0.00    +0.000 A 
ATOM      7  C   UNL     1       3.854   4.508  17.307  0.00  0.00    +0.000 A 
BRANCH   2   9
ATOM      8  C   UNL     1       6.167   3.885  14.490  0.00  0.00    +0.000 C 
ATOM      9  O   UNL     1       5.507   3.742  15.705  0.00  0.00    +0.000 OA
ENDBRANCH   2   9
ENDBRANCH   1   7
BRANCH   1  10
ATOM     10  C   UNL     1       2.634   2.984  19.012  0.00  0.00    +0.000 A 
ATOM     11  C   UNL     1       3.348   2.758  20.208  0.00  0.00    +0.000 A 
ATOM     12  C   UNL     1       2.680   2.718  21.438  0.00  0.00    +0.000 A 
ATOM     13  C   UNL     1       1.298   2.907  21.496  0.00  0.00    +0.000 A 
ATOM     14  C   UNL     1       0.576   3.129  20.323  0.00  0.00    +0.000 A 
ATOM     15  C   UNL     1       1.238   3.168  19.090  0.00  0.00    +0.000 A 
ENDBRANCH   1  10
BRANCH   1  16
ATOM     16  N   UNL     1       4.306   2.062  17.447  0.00  0.00    +0.000 NA
ATOM     17  H   UNL     1       4.744   2.123  16.504  0.00  0.00    +0.000 HD
ATOM     18  H   UNL     1       3.861   1.125  17.574  0.00  0.00    +0.000 HD
ENDBRANCH   1  16
TORSDOF 4
ENDMDL
MODEL 8
REMARK VINA RESULT:      -6.4      1.781      2.203
REMARK  Name = 
REMARK  5 active torsions:
REMARK  status: ('A' for Active; 'I' for Inactive)
REMARK    1  A    between atoms: C_1  and  O_2
REMARK    2  A    between atoms: O_2  and  C_3
REMARK    3  A    between atoms: C_8  and  C_9
REMARK    4  A    between atoms: C_9  and  N_10
REMARK    5  A    between atoms: C_9  and  C_11
REMARK                            x       y       z     vdW  Elec       q    Type
REMARK                         _______ _______ _______ _____ _____    ______ ____
ROOT
ATOM      1  C   UNL     1       4.133   6.286  18.206  0.00  0.00    +0.000 C 
ENDROOT
BRANCH   1   7
ATOM      2  C   UNL     1       6.365   5.006  17.699  0.00  0.00    +0.000 A 
ATOM      3  C   UNL     1       7.263   4.503  16.726  0.00  0.00    +0.000 A 
ATOM      4  C   UNL     1       6.984   4.613  15.369  0.00  0.00    +0.000 A 
ATOM      5  C   UNL     1       5.805   5.213  14.946  0.00  0.00    +0.000 A 
ATOM      6  C   UNL     1       4.910   5.727  15.883  0.00  0.00    +0.000 A 
ATOM      7  C   UNL     1       5.172   5.654  17.267  0.00  0.00    +0.000 A 
BRANCH   2   9
ATOM      8  C   UNL     1       7.604   5.589  19.715  0.00  0.00    +0.000 C 
ATOM      9  O   UNL     1       6.647   4.859  19.022  0.00  0.00    +0.000 OA
ENDBRANCH   2   9
ENDBRANCH   1   7
BRANCH   1  10
ATOM     10  C   UNL     1       3.081   5.334  18.766  0.00  0.00    +0.000 A 
ATOM     11  C   UNL     1       2.678   5.336  20.119  0.00  0.00    +0.000 A 
ATOM     12  C   UNL     1       1.656   4.485  20.557  0.00  0.00    +0.000 A 
ATOM     13  C   UNL     1       1.020   3.626  19.658  0.00  0.00    +0.000 A 
ATOM     14  C   UNL     1       1.408   3.610  18.318  0.00  0.00    +0.000 A 
ATOM     15  C   UNL     1       2.430   4.457  17.875  0.00  0.00    +0.000 A 
ENDBRANCH   1  10
BRANCH   1  16
ATOM     16  N   UNL     1       3.513   7.478  17.621  0.00  0.00    +0.000 NA
ATOM     17  H   UNL     1       3.497   8.274  18.294  0.00  0.00    +0.000 HD
ATOM     18  H   UNL     1       2.540   7.253  17.313  0.00  0.00    +0.000 HD
ENDBRANCH   1  16
TORSDOF 4
ENDMDL
MODEL 9
REMARK VINA RESULT:      -6.4      2.705      5.320
REMARK  Name = 
REMARK  5 active torsions:
REMARK  status: ('A' for Active; 'I' for Inactive)
REMARK    1  A    between atoms: C_1  and  O_2
REMARK    2  A    between atoms: O_2  and  C_3
REMARK    3  A    between atoms: C_8  and  C_9
REMARK    4  A    between atoms: C_9  and  N_10
REMARK    5  A    between atoms: C_9  and  C_11
REMARK                            x       y       z     vdW  Elec       q    Type
REMARK                         _______ _______ _______ _____ _____    ______ ____
ROOT
ATOM      1  C   UNL     1       3.488   6.256  17.675  0.00  0.00    +0.000 C 
ENDROOT
BRANCH   1   7
ATOM      2  C   UNL     1       2.068   5.706  19.811  0.00  0.00    +0.000 A 
ATOM      3  C   UNL     1       1.273   4.765  20.512  0.00  0.00    +0.000 A 
ATOM      4  C   UNL     1       0.970   3.529  19.955  0.00  0.00    +0.000 A 
ATOM      5  C   UNL     1       1.437   3.200  18.690  0.00  0.00    +0.000 A 
ATOM      6  C   UNL     1       2.231   4.102  17.983  0.00  0.00    +0.000 A 
ATOM      7  C   UNL     1       2.577   5.357  18.526  0.00  0.00    +0.000 A 
BRANCH   2   9
ATOM      8  C   UNL     1       1.363   7.773  20.893  0.00  0.00    +0.000 C 
ATOM      9  O   UNL     1       2.325   6.922  20.363  0.00  0.00    +0.000 OA
ENDBRANCH   2   9
ENDBRANCH   1   7
BRANCH   1  10
ATOM     10  C   UNL     1       4.972   6.218  18.028  0.00  0.00    +0.000 A 
ATOM     11  C   UNL     1       5.496   5.440  19.083  0.00  0.00    +0.000 A 
ATOM     12  C   UNL     1       6.877   5.393  19.312  0.00  0.00    +0.000 A 
ATOM     13  C   UNL     1       7.752   6.113  18.496  0.00  0.00    +0.000 A 
ATOM     14  C   UNL     1       7.250   6.888  17.451  0.00  0.00    +0.000 A 
ATOM     15  C   UNL     1       5.871   6.941  17.217  0.00  0.00    +0.000 A 
ENDBRANCH   1  10
BRANCH   1  16
ATOM     16  N   UNL     1       2.994   7.634  17.605  0.00  0.00    +0.000 NA
ATOM     17  H   UNL     1       3.070   8.118  18.524  0.00  0.00    +0.000 HD
ATOM     18  H   UNL     1       2.000   7.635  17.282  0.00  0.00    +0.000 HD
ENDBRANCH   1  16
TORSDOF 4
ENDMDL
