MODEL 1
REMARK VINA RESULT:      -7.4      0.000      0.000
REMARK  Name = 
REMARK  1 active torsions:
REMARK  status: ('A' for Active; 'I' for Inactive)
REMARK    1  A    between atoms: C_1  and  C_2
REMARK                            x       y       z     vdW  Elec       q    Type
REMARK                         _______ _______ _______ _____ _____    ______ ____
ROOT
ATOM      1  C   UNL     1      -2.172   9.862  17.020  0.00  0.00    +0.000 C 
ATOM      2  C   UNL     1      -1.237  10.606  17.986  0.00  0.00    +0.000 C 
ATOM      3  C   UNL     1      -1.439  12.145  18.332  0.00  0.00    +0.000 C 
ATOM      4  O   UNL     1      -0.329  12.746  19.028  0.00  0.00    +0.000 OA
ATOM      5  C   UNL     1       0.097  13.586  19.992  0.00  0.00    +0.000 A 
ATOM      6  N   UNL     1       1.363  13.936  19.603  0.00  0.00    +0.000 NA
ATOM      7  C   UNL     1       2.215  14.611  20.419  0.00  0.00    +0.000 A 
ATOM      8  C   UNL     1       1.858  15.032  21.677  0.00  0.00    +0.000 A 
ATOM      9  F   UNL     1       2.717  15.681  22.486  0.00  0.00    +0.000 F 
ATOM     10  C   UNL     1       0.574  14.752  22.084  0.00  0.00    +0.000 A 
ATOM     11  C   UNL     1      -0.387  14.035  21.279  0.00  0.00    +0.000 A 
ATOM     12  C   UNL     1      -1.713  13.777  22.045  0.00  0.00    +0.000 C 
ATOM     13  C   UNL     1      -2.133  14.639  23.253  0.00  0.00    +0.000 C 
ATOM     14  C   UNL     1      -2.882  14.750  21.966  0.00  0.00    +0.000 C 
ATOM     15  C   UNL     1      -4.120  13.913  21.766  0.00  0.00    +0.000 C 
ATOM     16  C   UNL     1      -3.527  12.599  21.214  0.00  0.00    +0.000 C 
ATOM     17  N   UNL     1      -2.293  12.412  21.990  0.00  0.00    +0.000 N 
ATOM     18  C   UNL     1      -1.398  11.356  21.948  0.00  0.00    +0.000 A 
ATOM     19  C   UNL     1      -0.838  10.832  23.242  0.00  0.00    +0.000 A 
ATOM     20  C   UNL     1      -0.075   9.729  23.170  0.00  0.00    +0.000 A 
ATOM     21  N   UNL     1       0.287   9.203  21.933  0.00  0.00    +0.000 N 
ATOM     22  N   UNL     1       0.999   8.084  21.665  0.00  0.00    +0.000 NA
ATOM     23  C   UNL     1       1.322   8.222  20.377  0.00  0.00    +0.000 A 
ATOM     24  C   UNL     1       0.791   9.387  19.789  0.00  0.00    +0.000 A 
ATOM     25  C   UNL     1      -0.059   9.877  20.775  0.00  0.00    +0.000 A 
ATOM     26  N   UNL     1      -1.019  10.859  20.807  0.00  0.00    +0.000 NA
ATOM     27  C   UNL     1       1.116   9.847  18.452  0.00  0.00    +0.000 C 
ATOM     28  O   UNL     1       2.258   9.742  18.000  0.00  0.00    +0.000 OA
ATOM     29  N   UNL     1       0.134  10.319  17.623  0.00  0.00    +0.000 N 
ATOM     30  H   UNL     1       0.482  10.635  16.725  0.00  0.00    +0.000 HD
ENDROOT
TORSDOF 0
ENDMDL
MODEL 2
REMARK VINA RESULT:      -7.1      4.160      6.068
REMARK  Name = 
REMARK  1 active torsions:
REMARK  status: ('A' for Active; 'I' for Inactive)
REMARK    1  A    between atoms: C_1  and  C_2
REMARK                            x       y       z     vdW  Elec       q    Type
REMARK                         _______ _______ _______ _____ _____    ______ ____
ROOT
ATOM      1  C   UNL     1      -7.056   9.325  19.391  0.00  0.00    +0.000 C 
ATOM      2  C   UNL     1      -6.616  10.793  19.266  0.00  0.00    +0.000 C 
ATOM      3  C   UNL     1      -7.532  11.990  19.771  0.00  0.00    +0.000 C 
ATOM      4  O   UNL     1      -7.097  13.293  19.334  0.00  0.00    +0.000 OA
ATOM      5  C   UNL     1      -6.914  14.596  19.628  0.00  0.00    +0.000 A 
ATOM      6  N   UNL     1      -6.927  15.224  18.410  0.00  0.00    +0.000 NA
ATOM      7  C   UNL     1      -6.564  16.525  18.258  0.00  0.00    +0.000 A 
ATOM      8  C   UNL     1      -6.201  17.321  19.318  0.00  0.00    +0.000 A 
ATOM      9  F   UNL     1      -5.822  18.602  19.154  0.00  0.00    +0.000 F 
ATOM     10  C   UNL     1      -6.232  16.744  20.566  0.00  0.00    +0.000 A 
ATOM     11  C   UNL     1      -6.599  15.369  20.809  0.00  0.00    +0.000 A 
ATOM     12  C   UNL     1      -6.436  14.976  22.302  0.00  0.00    +0.000 C 
ATOM     13  C   UNL     1      -6.430  16.034  23.423  0.00  0.00    +0.000 C 
ATOM     14  C   UNL     1      -7.588  15.103  23.291  0.00  0.00    +0.000 C 
ATOM     15  C   UNL     1      -7.599  13.830  24.098  0.00  0.00    +0.000 C 
ATOM     16  C   UNL     1      -6.820  12.865  23.177  0.00  0.00    +0.000 C 
ATOM     17  N   UNL     1      -5.749  13.699  22.614  0.00  0.00    +0.000 N 
ATOM     18  C   UNL     1      -4.717  13.324  21.770  0.00  0.00    +0.000 A 
ATOM     19  C   UNL     1      -3.340  13.876  22.022  0.00  0.00    +0.000 A 
ATOM     20  C   UNL     1      -2.344  13.393  21.262  0.00  0.00    +0.000 A 
ATOM     21  N   UNL     1      -2.621  12.534  20.202  0.00  0.00    +0.000 N 
ATOM     22  N   UNL     1      -1.755  11.913  19.368  0.00  0.00    +0.000 NA
ATOM     23  C   UNL     1      -2.534  11.489  18.371  0.00  0.00    +0.000 A 
ATOM     24  C   UNL     1      -3.899  11.779  18.564  0.00  0.00    +0.000 A 
ATOM     25  C   UNL     1      -3.935  12.258  19.869  0.00  0.00    +0.000 A 
ATOM     26  N   UNL     1      -4.947  12.545  20.753  0.00  0.00    +0.000 NA
ATOM     27  C   UNL     1      -4.928  11.563  17.565  0.00  0.00    +0.000 C 
ATOM     28  O   UNL     1      -4.715  11.774  16.370  0.00  0.00    +0.000 OA
ATOM     29  N   UNL     1      -6.136  11.023  17.920  0.00  0.00    +0.000 N 
ATOM     30  H   UNL     1      -6.784  10.942  17.146  0.00  0.00    +0.000 HD
ENDROOT
TORSDOF 0
ENDMDL
MODEL 3
REMARK VINA RESULT:      -6.9      7.920     11.253
REMARK  Name = 
REMARK  1 active torsions:
REMARK  status: ('A' for Active; 'I' for Inactive)
REMARK    1  A    between atoms: C_1  and  C_2
REMARK                            x       y       z     vdW  Elec       q    Type
REMARK                         _______ _______ _______ _____ _____    ______ ____
ROOT
ATOM      1  C   UNL     1       8.204  13.066  23.767  0.00  0.00    +0.000 C 
ATOM      2  C   UNL     1       8.494  14.057  22.628  0.00  0.00    +0.000 C 
ATOM      3  C   UNL     1       9.915  14.125  21.917  0.00  0.00    +0.000 C 
ATOM      4  O   UNL     1      10.098  15.279  21.072  0.00  0.00    +0.000 OA
ATOM      5  C   UNL     1      10.583  15.789  19.922  0.00  0.00    +0.000 A 
ATOM      6  N   UNL     1      10.755  17.122  20.188  0.00  0.00    +0.000 NA
ATOM      7  C   UNL     1      11.032  18.028  19.214  0.00  0.00    +0.000 A 
ATOM      8  C   UNL     1      11.205  17.671  17.897  0.00  0.00    +0.000 A 
ATOM      9  F   UNL     1      11.457  18.580  16.937  0.00  0.00    +0.000 F 
ATOM     10  C   UNL     1      11.098  16.333  17.598  0.00  0.00    +0.000 A 
ATOM     11  C   UNL     1      10.799  15.311  18.574  0.00  0.00    +0.000 A 
ATOM     12  C   UNL     1      10.636  13.912  17.922  0.00  0.00    +0.000 C 
ATOM     13  C   UNL     1      11.250  13.580  16.548  0.00  0.00    +0.000 C 
ATOM     14  C   UNL     1      11.813  12.955  17.781  0.00  0.00    +0.000 C 
ATOM     15  C   UNL     1      11.311  11.598  18.206  0.00  0.00    +0.000 C 
ATOM     16  C   UNL     1      10.075  11.969  19.055  0.00  0.00    +0.000 C 
ATOM     17  N   UNL     1       9.467  13.090  18.324  0.00  0.00    +0.000 N 
ATOM     18  C   UNL     1       8.295  13.770  18.608  0.00  0.00    +0.000 A 
ATOM     19  C   UNL     1       7.376  14.132  17.472  0.00  0.00    +0.000 A 
ATOM     20  C   UNL     1       6.194  14.678  17.800  0.00  0.00    +0.000 A 
ATOM     21  N   UNL     1       5.916  15.017  19.121  0.00  0.00    +0.000 N 
ATOM     22  N   UNL     1       4.775  15.522  19.643  0.00  0.00    +0.000 NA
ATOM     23  C   UNL     1       5.148  15.952  20.850  0.00  0.00    +0.000 A 
ATOM     24  C   UNL     1       6.501  15.691  21.143  0.00  0.00    +0.000 A 
ATOM     25  C   UNL     1       6.901  14.884  20.083  0.00  0.00    +0.000 A 
ATOM     26  N   UNL     1       8.019  14.126  19.829  0.00  0.00    +0.000 NA
ATOM     27  C   UNL     1       7.192  16.188  22.318  0.00  0.00    +0.000 C 
ATOM     28  O   UNL     1       6.973  17.317  22.759  0.00  0.00    +0.000 OA
ATOM     29  N   UNL     1       8.034  15.371  23.024  0.00  0.00    +0.000 N 
ATOM     30  H   UNL     1       8.479  15.832  23.809  0.00  0.00    +0.000 HD
ENDROOT
TORSDOF 0
ENDMDL
MODEL 4
REMARK VINA RESULT:      -6.8      2.340      5.869
REMARK  Name = 
REMARK  1 active torsions:
REMARK  status: ('A' for Active; 'I' for Inactive)
REMARK    1  A    between atoms: C_1  and  C_2
REMARK                            x       y       z     vdW  Elec       q    Type
REMARK                         _______ _______ _______ _____ _____    ______ ____
ROOT
ATOM      1  C   UNL     1      -4.014  15.458  21.436  0.00  0.00    +0.000 C 
ATOM      2  C   UNL     1      -2.878  14.448  21.670  0.00  0.00    +0.000 C 
ATOM      3  C   UNL     1      -3.030  12.912  21.291  0.00  0.00    +0.000 C 
ATOM      4  O   UNL     1      -1.991  12.066  21.822  0.00  0.00    +0.000 OA
ATOM      5  C   UNL     1      -1.152  11.027  21.632  0.00  0.00    +0.000 A 
ATOM      6  N   UNL     1      -0.861  10.590  22.897  0.00  0.00    +0.000 NA
ATOM      7  C   UNL     1       0.121   9.684  23.146  0.00  0.00    +0.000 A 
ATOM      8  C   UNL     1       0.866   9.105  22.147  0.00  0.00    +0.000 A 
ATOM      9  F   UNL     1       1.851   8.225  22.406  0.00  0.00    +0.000 F 
ATOM     10  C   UNL     1       0.564   9.474  20.856  0.00  0.00    +0.000 A 
ATOM     11  C   UNL     1      -0.458  10.433  20.510  0.00  0.00    +0.000 A 
ATOM     12  C   UNL     1      -0.494  10.724  18.986  0.00  0.00    +0.000 C 
ATOM     13  C   UNL     1       0.082   9.732  17.956  0.00  0.00    +0.000 C 
ATOM     14  C   UNL     1      -1.394   9.935  18.043  0.00  0.00    +0.000 C 
ATOM     15  C   UNL     1      -2.047  10.945  17.134  0.00  0.00    +0.000 C 
ATOM     16  C   UNL     1      -1.901  12.247  17.951  0.00  0.00    +0.000 C 
ATOM     17  N   UNL     1      -0.564  12.141  18.551  0.00  0.00    +0.000 N 
ATOM     18  C   UNL     1       0.107  13.067  19.333  0.00  0.00    +0.000 A 
ATOM     19  C   UNL     1       1.575  13.290  19.089  0.00  0.00    +0.000 A 
ATOM     20  C   UNL     1       2.160  14.282  19.779  0.00  0.00    +0.000 A 
ATOM     21  N   UNL     1       1.458  14.959  20.772  0.00  0.00    +0.000 N 
ATOM     22  N   UNL     1       1.859  16.008  21.528  0.00  0.00    +0.000 NA
ATOM     23  C   UNL     1       0.954  16.049  22.507  0.00  0.00    +0.000 A 
ATOM     24  C   UNL     1      -0.059  15.078  22.376  0.00  0.00    +0.000 A 
ATOM     25  C   UNL     1       0.185  14.540  21.116  0.00  0.00    +0.000 A 
ATOM     26  N   UNL     1      -0.514  13.697  20.287  0.00  0.00    +0.000 NA
ATOM     27  C   UNL     1      -1.070  14.812  23.381  0.00  0.00    +0.000 C 
ATOM     28  O   UNL     1      -0.802  14.845  24.583  0.00  0.00    +0.000 OA
ATOM     29  N   UNL     1      -2.375  14.616  23.016  0.00  0.00    +0.000 N 
ATOM     30  H   UNL     1      -2.987  14.414  23.799  0.00  0.00    +0.000 HD
ENDROOT
TORSDOF 0
ENDMDL
MODEL 5
REMARK VINA RESULT:      -6.8      4.153      5.792
REMARK  Name = 
REMARK  1 active torsions:
REMARK  status: ('A' for Active; 'I' for Inactive)
REMARK    1  A    between atoms: C_1  and  C_2
REMARK                            x       y       z     vdW  Elec       q    Type
REMARK                         _______ _______ _______ _____ _____    ______ ____
ROOT
ATOM      1  C   UNL     1      -7.814  10.447  20.783  0.00  0.00    +0.000 C 
ATOM      2  C   UNL     1      -7.011  11.680  20.339  0.00  0.00    +0.000 C 
ATOM      3  C   UNL     1      -6.865  12.964  21.264  0.00  0.00    +0.000 C 
ATOM      4  O   UNL     1      -6.319  14.118  20.594  0.00  0.00    +0.000 OA
ATOM      5  C   UNL     1      -5.502  15.189  20.642  0.00  0.00    +0.000 A 
ATOM      6  N   UNL     1      -6.005  16.043  19.697  0.00  0.00    +0.000 NA
ATOM      7  C   UNL     1      -5.337  17.154  19.290  0.00  0.00    +0.000 A 
ATOM      8  C   UNL     1      -4.128  17.530  19.827  0.00  0.00    +0.000 A 
ATOM      9  F   UNL     1      -3.464  18.621  19.401  0.00  0.00    +0.000 F 
ATOM     10  C   UNL     1      -3.617  16.730  20.822  0.00  0.00    +0.000 A 
ATOM     11  C   UNL     1      -4.262  15.532  21.304  0.00  0.00    +0.000 A 
ATOM     12  C   UNL     1      -3.396  14.783  22.353  0.00  0.00    +0.000 C 
ATOM     13  C   UNL     1      -2.293  15.502  23.156  0.00  0.00    +0.000 C 
ATOM     14  C   UNL     1      -3.539  15.053  23.845  0.00  0.00    +0.000 C 
ATOM     15  C   UNL     1      -3.555  13.705  24.521  0.00  0.00    +0.000 C 
ATOM     16  C   UNL     1      -3.958  12.772  23.358  0.00  0.00    +0.000 C 
ATOM     17  N   UNL     1      -3.234  13.316  22.200  0.00  0.00    +0.000 N 
ATOM     18  C   UNL     1      -3.183  12.826  20.906  0.00  0.00    +0.000 A 
ATOM     19  C   UNL     1      -1.864  12.828  20.184  0.00  0.00    +0.000 A 
ATOM     20  C   UNL     1      -1.829  12.230  18.981  0.00  0.00    +0.000 A 
ATOM     21  N   UNL     1      -3.003  11.770  18.391  0.00  0.00    +0.000 N 
ATOM     22  N   UNL     1      -3.157  11.104  17.222  0.00  0.00    +0.000 NA
ATOM     23  C   UNL     1      -4.468  11.192  16.986  0.00  0.00    +0.000 A 
ATOM     24  C   UNL     1      -5.177  11.859  18.004  0.00  0.00    +0.000 A 
ATOM     25  C   UNL     1      -4.219  12.018  19.000  0.00  0.00    +0.000 A 
ATOM     26  N   UNL     1      -4.267  12.412  20.315  0.00  0.00    +0.000 NA
ATOM     27  C   UNL     1      -6.579  12.220  17.919  0.00  0.00    +0.000 C 
ATOM     28  O   UNL     1      -7.077  12.612  16.862  0.00  0.00    +0.000 OA
ATOM     29  N   UNL     1      -7.408  12.036  18.994  0.00  0.00    +0.000 N 
ATOM     30  H   UNL     1      -8.359  12.347  18.828  0.00  0.00    +0.000 HD
ENDROOT
TORSDOF 0
ENDMDL
MODEL 6
REMARK VINA RESULT:      -6.7      2.966      5.922
REMARK  Name = 
REMARK  1 active torsions:
REMARK  status: ('A' for Active; 'I' for Inactive)
REMARK    1  A    between atoms: C_1  and  C_2
REMARK                            x       y       z     vdW  Elec       q    Type
REMARK                         _______ _______ _______ _____ _____    ______ ____
ROOT
ATOM      1  C   UNL     1      -4.222  12.322  24.469  0.00  0.00    +0.000 C 
ATOM      2  C   UNL     1      -3.805  13.097  23.209  0.00  0.00    +0.000 C 
ATOM      3  C   UNL     1      -2.311  13.594  22.985  0.00  0.00    +0.000 C 
ATOM      4  O   UNL     1      -2.156  14.530  21.899  0.00  0.00    +0.000 OA
ATOM      5  C   UNL     1      -1.423  14.953  20.850  0.00  0.00    +0.000 A 
ATOM      6  N   UNL     1      -1.784  16.265  20.690  0.00  0.00    +0.000 NA
ATOM      7  C   UNL     1      -1.421  16.992  19.601  0.00  0.00    +0.000 A 
ATOM      8  C   UNL     1      -0.628  16.483  18.601  0.00  0.00    +0.000 A 
ATOM      9  F   UNL     1      -0.292  17.205  17.516  0.00  0.00    +0.000 F 
ATOM     10  C   UNL     1      -0.195  15.186  18.753  0.00  0.00    +0.000 A 
ATOM     11  C   UNL     1      -0.542  14.347  19.875  0.00  0.00    +0.000 A 
ATOM     12  C   UNL     1       0.005  12.903  19.716  0.00  0.00    +0.000 C 
ATOM     13  C   UNL     1       1.196  12.584  18.791  0.00  0.00    +0.000 C 
ATOM     14  C   UNL     1       1.366  12.500  20.271  0.00  0.00    +0.000 C 
ATOM     15  C   UNL     1       1.169  11.170  20.954  0.00  0.00    +0.000 C 
ATOM     16  C   UNL     1      -0.354  11.168  21.209  0.00  0.00    +0.000 C 
ATOM     17  N   UNL     1      -0.918  11.776  19.996  0.00  0.00    +0.000 N 
ATOM     18  C   UNL     1      -2.249  11.963  19.663  0.00  0.00    +0.000 A 
ATOM     19  C   UNL     1      -2.686  11.687  18.250  0.00  0.00    +0.000 A 
ATOM     20  C   UNL     1      -4.003  11.758  17.998  0.00  0.00    +0.000 A 
ATOM     21  N   UNL     1      -4.884  12.211  18.976  0.00  0.00    +0.000 N 
ATOM     22  N   UNL     1      -6.233  12.301  18.924  0.00  0.00    +0.000 NA
ATOM     23  C   UNL     1      -6.533  13.075  19.968  0.00  0.00    +0.000 A 
ATOM     24  C   UNL     1      -5.408  13.451  20.729  0.00  0.00    +0.000 A 
ATOM     25  C   UNL     1      -4.388  12.682  20.178  0.00  0.00    +0.000 A 
ATOM     26  N   UNL     1      -3.093  12.411  20.547  0.00  0.00    +0.000 NA
ATOM     27  C   UNL     1      -5.442  14.407  21.818  0.00  0.00    +0.000 C 
ATOM     28  O   UNL     1      -6.152  15.413  21.764  0.00  0.00    +0.000 OA
ATOM     29  N   UNL     1      -4.759  14.161  22.979  0.00  0.00    +0.000 N 
ATOM     30  H   UNL     1      -4.835  14.909  23.658  0.00  0.00    +0.000 HD
ENDROOT
TORSDOF 0
ENDMDL
MODEL 7
REMARK VINA RESULT:      -6.5      4.546      6.375
REMARK  Name = 
REMARK  1 active torsions:
REMARK  status: ('A' for Active; 'I' for Inactive)
REMARK    1  A    between atoms: C_1  and  C_2
REMARK                            x       y       z     vdW  Elec       q    Type
REMARK                         _______ _______ _______ _____ _____    ______ ____
ROOT
ATOM      1  C   UNL     1      -7.828  14.985  17.626  0.00  0.00    +0.000 C 
ATOM      2  C   UNL     1      -6.827  14.577  18.719  0.00  0.00    +0.000 C 
ATOM      3  C   UNL     1      -5.876  15.638  19.423  0.00  0.00    +0.000 C 
ATOM      4  O   UNL     1      -4.823  15.053  20.217  0.00  0.00    +0.000 OA
ATOM      5  C   UNL     1      -4.082  15.093  21.342  0.00  0.00    +0.000 A 
ATOM      6  N   UNL     1      -2.935  14.418  21.017  0.00  0.00    +0.000 NA
ATOM      7  C   UNL     1      -2.015  14.056  21.950  0.00  0.00    +0.000 A 
ATOM      8  C   UNL     1      -2.143  14.377  23.280  0.00  0.00    +0.000 A 
ATOM      9  F   UNL     1      -1.236  13.994  24.199  0.00  0.00    +0.000 F 
ATOM     10  C   UNL     1      -3.253  15.106  23.638  0.00  0.00    +0.000 A 
ATOM     11  C   UNL     1      -4.277  15.522  22.710  0.00  0.00    +0.000 A 
ATOM     12  C   UNL     1      -5.457  16.235  23.423  0.00  0.00    +0.000 C 
ATOM     13  C   UNL     1      -5.292  16.888  24.810  0.00  0.00    +0.000 C 
ATOM     14  C   UNL     1      -5.484  17.747  23.604  0.00  0.00    +0.000 C 
ATOM     15  C   UNL     1      -6.877  18.195  23.241  0.00  0.00    +0.000 C 
ATOM     16  C   UNL     1      -7.374  17.014  22.379  0.00  0.00    +0.000 C 
ATOM     17  N   UNL     1      -6.837  15.827  23.060  0.00  0.00    +0.000 N 
ATOM     18  C   UNL     1      -7.031  14.492  22.748  0.00  0.00    +0.000 A 
ATOM     19  C   UNL     1      -7.269  13.516  23.868  0.00  0.00    +0.000 A 
ATOM     20  C   UNL     1      -7.577  12.256  23.519  0.00  0.00    +0.000 A 
ATOM     21  N   UNL     1      -7.527  11.863  22.185  0.00  0.00    +0.000 N 
ATOM     22  N   UNL     1      -7.849  10.666  21.643  0.00  0.00    +0.000 NA
ATOM     23  C   UNL     1      -7.324  10.728  20.418  0.00  0.00    +0.000 A 
ATOM     24  C   UNL     1      -6.709  11.964  20.134  0.00  0.00    +0.000 A 
ATOM     25  C   UNL     1      -7.062  12.747  21.228  0.00  0.00    +0.000 A 
ATOM     26  N   UNL     1      -6.963  14.087  21.513  0.00  0.00    +0.000 NA
ATOM     27  C   UNL     1      -5.936  12.234  18.937  0.00  0.00    +0.000 C 
ATOM     28  O   UNL     1      -5.196  11.380  18.447  0.00  0.00    +0.000 OA
ATOM     29  N   UNL     1      -6.089  13.418  18.266  0.00  0.00    +0.000 N 
ATOM     30  H   UNL     1      -5.480  13.507  17.461  0.00  0.00    +0.000 HD
ENDROOT
TORSDOF 0
ENDMDL
MODEL 8
REMARK VINA RESULT:      -6.4      8.138     10.881
REMARK  Name = 
REMARK  1 active torsions:
REMARK  status: ('A' for Active; 'I' for Inactive)
REMARK    1  A    between atoms: C_1  and  C_2
REMARK                            x       y       z     vdW  Elec       q    Type
REMARK                         _______ _______ _______ _____ _____    ______ ____
ROOT
ATOM      1  C   UNL     1      10.703  18.625  22.148  0.00  0.00    +0.000 C 
ATOM      2  C   UNL     1      10.339  17.273  21.513  0.00  0.00    +0.000 C 
ATOM      3  C   UNL     1      10.746  15.892  22.187  0.00  0.00    +0.000 C 
ATOM      4  O   UNL     1      10.572  14.743  21.335  0.00  0.00    +0.000 OA
ATOM      5  C   UNL     1      10.190  13.456  21.213  0.00  0.00    +0.000 A 
ATOM      6  N   UNL     1      10.860  13.006  20.106  0.00  0.00    +0.000 NA
ATOM      7  C   UNL     1      10.583  11.809  19.525  0.00  0.00    +0.000 A 
ATOM      8  C   UNL     1       9.644  10.940  20.028  0.00  0.00    +0.000 A 
ATOM      9  F   UNL     1       9.363   9.767  19.432  0.00  0.00    +0.000 F 
ATOM     10  C   UNL     1       8.990  11.330  21.174  0.00  0.00    +0.000 A 
ATOM     11  C   UNL     1       9.222  12.587  21.846  0.00  0.00    +0.000 A 
ATOM     12  C   UNL     1       8.261  12.792  23.048  0.00  0.00    +0.000 C 
ATOM     13  C   UNL     1       7.568  11.604  23.745  0.00  0.00    +0.000 C 
ATOM     14  C   UNL     1       8.642  12.357  24.458  0.00  0.00    +0.000 C 
ATOM     15  C   UNL     1       8.255  13.491  25.372  0.00  0.00    +0.000 C 
ATOM     16  C   UNL     1       8.186  14.681  24.389  0.00  0.00    +0.000 C 
ATOM     17  N   UNL     1       7.583  14.105  23.178  0.00  0.00    +0.000 N 
ATOM     18  C   UNL     1       7.232  14.745  22.001  0.00  0.00    +0.000 A 
ATOM     19  C   UNL     1       5.930  14.381  21.342  0.00  0.00    +0.000 A 
ATOM     20  C   UNL     1       5.566  15.111  20.274  0.00  0.00    +0.000 A 
ATOM     21  N   UNL     1       6.438  16.053  19.736  0.00  0.00    +0.000 N 
ATOM     22  N   UNL     1       6.229  16.907  18.707  0.00  0.00    +0.000 NA
ATOM     23  C   UNL     1       7.456  17.339  18.409  0.00  0.00    +0.000 A 
ATOM     24  C   UNL     1       8.455  16.820  19.257  0.00  0.00    +0.000 A 
ATOM     25  C   UNL     1       7.720  16.167  20.241  0.00  0.00    +0.000 A 
ATOM     26  N   UNL     1       8.036  15.611  21.457  0.00  0.00    +0.000 NA
ATOM     27  C   UNL     1       9.878  17.009  19.053  0.00  0.00    +0.000 C 
ATOM     28  O   UNL     1      10.370  16.999  17.923  0.00  0.00    +0.000 OA
ATOM     29  N   UNL     1      10.696  17.306  20.111  0.00  0.00    +0.000 N 
ATOM     30  H   UNL     1      11.672  17.391  19.853  0.00  0.00    +0.000 HD
ENDROOT
TORSDOF 0
ENDMDL
MODEL 9
REMARK VINA RESULT:      -6.4      3.239      5.686
REMARK  Name = 
REMARK  1 active torsions:
REMARK  status: ('A' for Active; 'I' for Inactive)
REMARK    1  A    between atoms: C_1  and  C_2
REMARK                            x       y       z     vdW  Elec       q    Type
REMARK                         _______ _______ _______ _____ _____    ______ ____
ROOT
ATOM      1  C   UNL     1      -3.255  12.255  23.942  0.00  0.00    +0.000 C 
ATOM      2  C   UNL     1      -3.081  13.123  22.685  0.00  0.00    +0.000 C 
ATOM      3  C   UNL     1      -1.901  14.181  22.553  0.00  0.00    +0.000 C 
ATOM      4  O   UNL     1      -2.044  15.091  21.445  0.00  0.00    +0.000 OA
ATOM      5  C   UNL     1      -1.458  15.767  20.436  0.00  0.00    +0.000 A 
ATOM      6  N   UNL     1      -2.302  16.819  20.196  0.00  0.00    +0.000 NA
ATOM      7  C   UNL     1      -2.172  17.623  19.109  0.00  0.00    +0.000 A 
ATOM      8  C   UNL     1      -1.159  17.471  18.192  0.00  0.00    +0.000 A 
ATOM      9  F   UNL     1      -1.052  18.260  17.106  0.00  0.00    +0.000 F 
ATOM     10  C   UNL     1      -0.255  16.462  18.429  0.00  0.00    +0.000 A 
ATOM     11  C   UNL     1      -0.329  15.562  19.556  0.00  0.00    +0.000 A 
ATOM     12  C   UNL     1       0.765  14.462  19.498  0.00  0.00    +0.000 C 
ATOM     13  C   UNL     1       2.058  14.646  18.677  0.00  0.00    +0.000 C 
ATOM     14  C   UNL     1       2.120  14.648  20.168  0.00  0.00    +0.000 C 
ATOM     15  C   UNL     1       2.419  13.359  20.889  0.00  0.00    +0.000 C 
ATOM     16  C   UNL     1       1.010  12.741  21.030  0.00  0.00    +0.000 C 
ATOM     17  N   UNL     1       0.355  13.060  19.754  0.00  0.00    +0.000 N 
ATOM     18  C   UNL     1      -0.906  12.690  19.315  0.00  0.00    +0.000 A 
ATOM     19  C   UNL     1      -1.073  12.250  17.886  0.00  0.00    +0.000 A 
ATOM     20  C   UNL     1      -2.281  11.780  17.533  0.00  0.00    +0.000 A 
ATOM     21  N   UNL     1      -3.348  11.844  18.424  0.00  0.00    +0.000 N 
ATOM     22  N   UNL     1      -4.610  11.380  18.268  0.00  0.00    +0.000 NA
ATOM     23  C   UNL     1      -5.284  11.975  19.254  0.00  0.00    +0.000 A 
ATOM     24  C   UNL     1      -4.475  12.779  20.081  0.00  0.00    +0.000 A 
ATOM     25  C   UNL     1      -3.188  12.486  19.639  0.00  0.00    +0.000 A 
ATOM     26  N   UNL     1      -1.930  12.764  20.114  0.00  0.00    +0.000 NA
ATOM     27  C   UNL     1      -4.984  13.648  21.124  0.00  0.00    +0.000 C 
ATOM     28  O   UNL     1      -6.031  14.280  20.976  0.00  0.00    +0.000 OA
ATOM     29  N   UNL     1      -4.360  13.708  22.342  0.00  0.00    +0.000 N 
ATOM     30  H   UNL     1      -4.788  14.366  22.982  0.00  0.00    +0.000 HD
ENDROOT
TORSDOF 0
ENDMDL
