MODEL 1
REMARK VINA RESULT:      -7.5      0.000      0.000
REMARK  Name = 
REMARK  12 active torsions:
REMARK  status: ('A' for Active; 'I' for Inactive)
REMARK    1  A    between atoms: C_1  and  C_2
REMARK    2  A    between atoms: C_2  and  N_3
REMARK    3  A    between atoms: C_5  and  C_6
REMARK    4  A    between atoms: C_6  and  N_7
REMARK    5  A    between atoms: N_10  and  C_11
REMARK    6  A    between atoms: C_11  and  C_12
REMARK    7  A    between atoms: C_16  and  O_17
REMARK    8  A    between atoms: O_17  and  C_18
REMARK    9  A    between atoms: C_20  and  C_21
REMARK   10  A    between atoms: C_21  and  C_22
REMARK   11  A    between atoms: C_22  and  O_23
REMARK   12  A    between atoms: C_25  and  C_26
REMARK                            x       y       z     vdW  Elec       q    Type
REMARK                         _______ _______ _______ _____ _____    ______ ____
ROOT
ATOM      1  N   UNL     1       4.617   5.299  18.558  0.00  0.00    +0.000 NA
ATOM      2  C   UNL     1       4.316   6.716  18.237  0.00  0.00    +0.000 C 
ATOM      3  C   UNL     1       2.820   7.130  18.174  0.00  0.00    +0.000 C 
ATOM      4  N   UNL     1       1.955   6.627  19.273  0.00  0.00    +0.000 NA
ATOM      5  C   UNL     1       2.245   5.176  19.432  0.00  0.00    +0.000 C 
ATOM      6  C   UNL     1       3.754   4.883  19.693  0.00  0.00    +0.000 C 
ENDROOT
BRANCH   1   7
ATOM      7  C   UNL     1       4.424   4.366  17.424  0.00  0.00    +0.000 C 
BRANCH   7  10
ATOM      8  N   UNL     1       6.488   4.539  14.412  0.00  0.00    +0.000 N 
ATOM      9  C   UNL     1       5.249   4.621  14.970  0.00  0.00    +0.000 A 
ATOM     10  C   UNL     1       5.434   4.513  16.333  0.00  0.00    +0.000 A 
ATOM     11  C   UNL     1       6.852   4.593  16.491  0.00  0.00    +0.000 A 
ATOM     12  C   UNL     1       7.651   4.662  17.742  0.00  0.00    +0.000 C 
ATOM     13  N   UNL     1       7.484   4.594  15.310  0.00  0.00    +0.000 NA
BRANCH   8  15
ATOM     14  C   UNL     1       5.782   3.278  12.435  0.00  0.00    +0.000 C 
ATOM     15  C   UNL     1       6.776   4.270  13.017  0.00  0.00    +0.000 C 
ENDBRANCH   8  15
ENDBRANCH   7  10
ENDBRANCH   1   7
BRANCH   4  16
ATOM     16  C   UNL     1       2.135   7.415  20.512  0.00  0.00    +0.000 C 
BRANCH  16  17
ATOM     17  C   UNL     1       1.192   8.604  20.641  0.00  0.00    +0.000 A 
ATOM     18  C   UNL     1       0.922   9.421  19.535  0.00  0.00    +0.000 A 
ATOM     19  C   UNL     1       0.028  10.491  19.640  0.00  0.00    +0.000 A 
ATOM     20  C   UNL     1      -0.608  10.748  20.853  0.00  0.00    +0.000 A 
ATOM     21  C   UNL     1      -0.365   9.942  21.967  0.00  0.00    +0.000 A 
ATOM     22  C   UNL     1       0.535   8.874  21.860  0.00  0.00    +0.000 A 
BRANCH  21  23
ATOM     23  O   UNL     1      -1.055  10.306  23.090  0.00  0.00    +0.000 OA
ATOM     24  C   UNL     1      -1.670  11.590  23.093  0.00  0.00    +0.000 C 
ENDBRANCH  21  23
ENDBRANCH  16  17
ENDBRANCH   4  16
BRANCH   5  25
ATOM     25  C   UNL     1       1.315   4.399  20.378  0.00  0.00    +0.000 C 
BRANCH  25  26
ATOM     26  C   UNL     1       1.877   3.007  20.670  0.00  0.00    +0.000 C 
BRANCH  26  27
ATOM     27  O   UNL     1       1.933   2.789  22.073  0.00  0.00    +0.000 OA
ATOM     28  H   UNL     1       1.438   3.507  22.504  0.00  0.00    +0.000 HD
ENDBRANCH  26  27
ENDBRANCH  25  26
ENDBRANCH   5  25
TORSDOF 9
ENDMDL
MODEL 2
REMARK VINA RESULT:      -7.4      1.364      1.825
REMARK  Name = 
REMARK  12 active torsions:
REMARK  status: ('A' for Active; 'I' for Inactive)
REMARK    1  A    between atoms: C_1  and  C_2
REMARK    2  A    between atoms: C_2  and  N_3
REMARK    3  A    between atoms: C_5  and  C_6
REMARK    4  A    between atoms: C_6  and  N_7
REMARK    5  A    between atoms: N_10  and  C_11
REMARK    6  A    between atoms: C_11  and  C_12
REMARK    7  A    between atoms: C_16  and  O_17
REMARK    8  A    between atoms: O_17  and  C_18
REMARK    9  A    between atoms: C_20  and  C_21
REMARK   10  A    between atoms: C_21  and  C_22
REMARK   11  A    between atoms: C_22  and  O_23
REMARK   12  A    between atoms: C_25  and  C_26
REMARK                            x       y       z     vdW  Elec       q    Type
REMARK                         _______ _______ _______ _____ _____    ______ ____
ROOT
ATOM      1  N   UNL     1       4.713   4.955  18.601  0.00  0.00    +0.000 NA
ATOM      2  C   UNL     1       4.563   6.393  18.272  0.00  0.00    +0.000 C 
ATOM      3  C   UNL     1       3.119   6.930  18.066  0.00  0.00    +0.000 C 
ATOM      4  N   UNL     1       2.111   6.493  19.066  0.00  0.00    +0.000 NA
ATOM      5  C   UNL     1       2.264   5.022  19.232  0.00  0.00    +0.000 C 
ATOM      6  C   UNL     1       3.710   4.605  19.638  0.00  0.00    +0.000 C 
ENDROOT
BRANCH   1   7
ATOM      7  C   UNL     1       4.560   4.048  17.440  0.00  0.00    +0.000 C 
BRANCH   7  10
ATOM      8  N   UNL     1       6.511   4.487  14.380  0.00  0.00    +0.000 N 
ATOM      9  C   UNL     1       5.286   4.455  14.976  0.00  0.00    +0.000 A 
ATOM     10  C   UNL     1       5.522   4.311  16.327  0.00  0.00    +0.000 A 
ATOM     11  C   UNL     1       6.934   4.492  16.448  0.00  0.00    +0.000 A 
ATOM     12  C   UNL     1       7.765   4.574  17.677  0.00  0.00    +0.000 C 
ATOM     13  N   UNL     1       7.527   4.583  15.251  0.00  0.00    +0.000 NA
BRANCH   8  15
ATOM     14  C   UNL     1       5.772   3.329  12.353  0.00  0.00    +0.000 C 
ATOM     15  C   UNL     1       6.774   4.293  12.968  0.00  0.00    +0.000 C 
ENDBRANCH   8  15
ENDBRANCH   7  10
ENDBRANCH   1   7
BRANCH   4  16
ATOM     16  C   UNL     1       2.229   7.257  20.328  0.00  0.00    +0.000 C 
BRANCH  16  17
ATOM     17  C   UNL     1       1.252   8.419  20.451  0.00  0.00    +0.000 A 
ATOM     18  C   UNL     1       0.579   8.658  21.657  0.00  0.00    +0.000 A 
ATOM     19  C   UNL     1      -0.291   9.745  21.784  0.00  0.00    +0.000 A 
ATOM     20  C   UNL     1      -0.489  10.606  20.706  0.00  0.00    +0.000 A 
ATOM     21  C   UNL     1       0.177  10.396  19.497  0.00  0.00    +0.000 A 
ATOM     22  C   UNL     1       1.044   9.303  19.371  0.00  0.00    +0.000 A 
BRANCH  21  23
ATOM     23  O   UNL     1      -0.109  11.315  18.526  0.00  0.00    +0.000 OA
ATOM     24  C   UNL     1      -1.481  11.589  18.269  0.00  0.00    +0.000 C 
ENDBRANCH  21  23
ENDBRANCH  16  17
ENDBRANCH   4  16
BRANCH   5  25
ATOM     25  C   UNL     1       1.183   4.320  20.070  0.00  0.00    +0.000 C 
BRANCH  25  26
ATOM     26  C   UNL     1       0.884   2.928  19.513  0.00  0.00    +0.000 C 
BRANCH  26  27
ATOM     27  O   UNL     1       1.038   2.924  18.101  0.00  0.00    +0.000 OA
ATOM     28  H   UNL     1       1.342   3.809  17.835  0.00  0.00    +0.000 HD
ENDBRANCH  26  27
ENDBRANCH  25  26
ENDBRANCH   5  25
TORSDOF 9
ENDMDL
MODEL 3
REMARK VINA RESULT:      -7.2      1.153      1.269
REMARK  Name = 
REMARK  12 active torsions:
REMARK  status: ('A' for Active; 'I' for Inactive)
REMARK    1  A    between atoms: C_1  and  C_2
REMARK    2  A    between atoms: C_2  and  N_3
REMARK    3  A    between atoms: C_5  and  C_6
REMARK    4  A    between atoms: C_6  and  N_7
REMARK    5  A    between atoms: N_10  and  C_11
REMARK    6  A    between atoms: C_11  and  C_12
REMARK    7  A    between atoms: C_16  and  O_17
REMARK    8  A    between atoms: O_17  and  C_18
REMARK    9  A    between atoms: C_20  and  C_21
REMARK   10  A    between atoms: C_21  and  C_22
REMARK   11  A    between atoms: C_22  and  O_23
REMARK   12  A    between atoms: C_25  and  C_26
REMARK                            x       y       z     vdW  Elec       q    Type
REMARK                         _______ _______ _______ _____ _____    ______ ____
ROOT
ATOM      1  N   UNL     1       4.733   4.627  18.707  0.00  0.00    +0.000 NA
ATOM      2  C   UNL     1       4.585   6.076  18.423  0.00  0.00    +0.000 C 
ATOM      3  C   UNL     1       3.156   6.599  18.110  0.00  0.00    +0.000 C 
ATOM      4  N   UNL     1       2.071   6.105  18.997  0.00  0.00    +0.000 NA
ATOM      5  C   UNL     1       2.236   4.631  19.117  0.00  0.00    +0.000 C 
ATOM      6  C   UNL     1       3.647   4.219  19.635  0.00  0.00    +0.000 C 
ENDROOT
BRANCH   1   7
ATOM      7  C   UNL     1       4.701   3.767  17.501  0.00  0.00    +0.000 C 
BRANCH   7  10
ATOM      8  N   UNL     1       6.617   4.593  14.500  0.00  0.00    +0.000 N 
ATOM      9  C   UNL     1       5.399   4.399  15.076  0.00  0.00    +0.000 A 
ATOM     10  C   UNL     1       5.638   4.195  16.419  0.00  0.00    +0.000 A 
ATOM     11  C   UNL     1       7.024   4.512  16.569  0.00  0.00    +0.000 A 
ATOM     12  C   UNL     1       7.833   4.601  17.812  0.00  0.00    +0.000 C 
ATOM     13  N   UNL     1       7.613   4.738  15.388  0.00  0.00    +0.000 NA
BRANCH   8  15
ATOM     14  C   UNL     1       8.044   5.454  12.705  0.00  0.00    +0.000 C 
ATOM     15  C   UNL     1       6.909   4.515  13.082  0.00  0.00    +0.000 C 
ENDBRANCH   8  15
ENDBRANCH   7  10
ENDBRANCH   1   7
BRANCH   4  16
ATOM     16  C   UNL     1       2.061   6.817  20.294  0.00  0.00    +0.000 C 
BRANCH  16  17
ATOM     17  C   UNL     1       1.540   8.247  20.220  0.00  0.00    +0.000 A 
ATOM     18  C   UNL     1       1.444   8.906  18.987  0.00  0.00    +0.000 A 
ATOM     19  C   UNL     1       0.932  10.205  18.912  0.00  0.00    +0.000 A 
ATOM     20  C   UNL     1       0.507  10.852  20.071  0.00  0.00    +0.000 A 
ATOM     21  C   UNL     1       0.583  10.214  21.310  0.00  0.00    +0.000 A 
ATOM     22  C   UNL     1       1.101   8.914  21.383  0.00  0.00    +0.000 A 
BRANCH  21  23
ATOM     23  O   UNL     1       0.131  10.963  22.361  0.00  0.00    +0.000 OA
ATOM     24  C   UNL     1      -0.914  10.415  23.154  0.00  0.00    +0.000 C 
ENDBRANCH  21  23
ENDBRANCH  16  17
ENDBRANCH   4  16
BRANCH   5  25
ATOM     25  C   UNL     1       1.099   3.878  19.825  0.00  0.00    +0.000 C 
BRANCH  25  26
ATOM     26  C   UNL     1       1.199   2.375  19.566  0.00  0.00    +0.000 C 
BRANCH  26  27
ATOM     27  O   UNL     1       1.283   2.125  18.170  0.00  0.00    +0.000 OA
ATOM     28  H   UNL     1       2.024   2.649  17.821  0.00  0.00    +0.000 HD
ENDBRANCH  26  27
ENDBRANCH  25  26
ENDBRANCH   5  25
TORSDOF 9
ENDMDL
MODEL 4
REMARK VINA RESULT:      -6.7      4.169      6.734
REMARK  Name = 
REMARK  12 active torsions:
REMARK  status: ('A' for Active; 'I' for Inactive)
REMARK    1  A    between atoms: C_1  and  C_2
REMARK    2  A    between atoms: C_2  and  N_3
REMARK    3  A    between atoms: C_5  and  C_6
REMARK    4  A    between atoms: C_6  and  N_7
REMARK    5  A    between atoms: N_10  and  C_11
REMARK    6  A    between atoms: C_11  and  C_12
REMARK    7  A    between atoms: C_16  and  O_17
REMARK    8  A    between atoms: O_17  and  C_18
REMARK    9  A    between atoms: C_20  and  C_21
REMARK   10  A    between atoms: C_21  and  C_22
REMARK   11  A    between atoms: C_22  and  O_23
REMARK   12  A    between atoms: C_25  and  C_26
REMARK                            x       y       z     vdW  Elec       q    Type
REMARK                         _______ _______ _______ _____ _____    ______ ____
ROOT
ATOM      1  N   UNL     1       0.257   8.578  20.831  0.00  0.00    +0.000 NA
ATOM      2  C   UNL     1      -0.511   8.706  22.094  0.00  0.00    +0.000 C 
ATOM      3  C   UNL     1      -0.218   9.946  22.982  0.00  0.00    +0.000 C 
ATOM      4  N   UNL     1      -0.116  11.249  22.274  0.00  0.00    +0.000 NA
ATOM      5  C   UNL     1       0.770  11.041  21.097  0.00  0.00    +0.000 C 
ATOM      6  C   UNL     1       0.273   9.901  20.157  0.00  0.00    +0.000 C 
ENDROOT
BRANCH   1   7
ATOM      7  C   UNL     1       1.646   8.098  21.013  0.00  0.00    +0.000 C 
BRANCH   7  10
ATOM      8  N   UNL     1       2.362   4.715  19.826  0.00  0.00    +0.000 N 
ATOM      9  C   UNL     1       1.751   5.513  20.745  0.00  0.00    +0.000 A 
ATOM     10  C   UNL     1       1.945   6.810  20.318  0.00  0.00    +0.000 A 
ATOM     11  C   UNL     1       2.496   6.657  19.008  0.00  0.00    +0.000 A 
ATOM     12  C   UNL     1       2.798   7.700  17.993  0.00  0.00    +0.000 C 
ATOM     13  N   UNL     1       2.759   5.374  18.726  0.00  0.00    +0.000 NA
BRANCH   8  15
ATOM     14  C   UNL     1       2.216   2.804  21.350  0.00  0.00    +0.000 C 
ATOM     15  C   UNL     1       2.714   3.322  20.009  0.00  0.00    +0.000 C 
ENDBRANCH   8  15
ENDBRANCH   7  10
ENDBRANCH   1   7
BRANCH   4  16
ATOM     16  C   UNL     1      -1.450  11.791  21.934  0.00  0.00    +0.000 C 
BRANCH  16  17
ATOM     17  C   UNL     1      -2.008  12.770  22.959  0.00  0.00    +0.000 A 
ATOM     18  C   UNL     1      -3.297  12.596  23.481  0.00  0.00    +0.000 A 
ATOM     19  C   UNL     1      -3.798  13.472  24.448  0.00  0.00    +0.000 A 
ATOM     20  C   UNL     1      -3.010  14.526  24.906  0.00  0.00    +0.000 A 
ATOM     21  C   UNL     1      -1.718  14.714  24.411  0.00  0.00    +0.000 A 
ATOM     22  C   UNL     1      -1.221  13.838  23.437  0.00  0.00    +0.000 A 
BRANCH  21  23
ATOM     23  O   UNL     1      -1.057  15.785  24.947  0.00  0.00    +0.000 OA
ATOM     24  C   UNL     1      -1.007  15.879  26.366  0.00  0.00    +0.000 C 
ENDBRANCH  21  23
ENDBRANCH  16  17
ENDBRANCH   4  16
BRANCH   5  25
ATOM     25  C   UNL     1       1.185  12.307  20.329  0.00  0.00    +0.000 C 
BRANCH  25  26
ATOM     26  C   UNL     1       1.482  11.982  18.865  0.00  0.00    +0.000 C 
BRANCH  26  27
ATOM     27  O   UNL     1       0.555  12.649  18.020  0.00  0.00    +0.000 OA
ATOM     28  H   UNL     1       1.059  13.258  17.453  0.00  0.00    +0.000 HD
ENDBRANCH  26  27
ENDBRANCH  25  26
ENDBRANCH   5  25
TORSDOF 9
ENDMDL
MODEL 5
REMARK VINA RESULT:      -6.6      4.211     10.718
REMARK  Name = 
REMARK  12 active torsions:
REMARK  status: ('A' for Active; 'I' for Inactive)
REMARK    1  A    between atoms: C_1  and  C_2
REMARK    2  A    between atoms: C_2  and  N_3
REMARK    3  A    between atoms: C_5  and  C_6
REMARK    4  A    between atoms: C_6  and  N_7
REMARK    5  A    between atoms: N_10  and  C_11
REMARK    6  A    between atoms: C_11  and  C_12
REMARK    7  A    between atoms: C_16  and  O_17
REMARK    8  A    between atoms: O_17  and  C_18
REMARK    9  A    between atoms: C_20  and  C_21
REMARK   10  A    between atoms: C_21  and  C_22
REMARK   11  A    between atoms: C_22  and  O_23
REMARK   12  A    between atoms: C_25  and  C_26
REMARK                            x       y       z     vdW  Elec       q    Type
REMARK                         _______ _______ _______ _____ _____    ______ ____
ROOT
ATOM      1  N   UNL     1      -0.372  11.157  22.870  0.00  0.00    +0.000 NA
ATOM      2  C   UNL     1      -0.191   9.758  23.329  0.00  0.00    +0.000 C 
ATOM      3  C   UNL     1      -0.462   8.629  22.297  0.00  0.00    +0.000 C 
ATOM      4  N   UNL     1       0.109   8.833  20.940  0.00  0.00    +0.000 NA
ATOM      5  C   UNL     1      -0.232  10.221  20.523  0.00  0.00    +0.000 C 
ATOM      6  C   UNL     1       0.265  11.297  21.535  0.00  0.00    +0.000 C 
ENDROOT
BRANCH   1   7
ATOM      7  C   UNL     1      -1.785  11.592  22.791  0.00  0.00    +0.000 C 
BRANCH   7  10
ATOM      8  N   UNL     1      -1.879  14.936  24.265  0.00  0.00    +0.000 N 
ATOM      9  C   UNL     1      -1.278  14.068  23.404  0.00  0.00    +0.000 A 
ATOM     10  C   UNL     1      -2.051  12.925  23.409  0.00  0.00    +0.000 A 
ATOM     11  C   UNL     1      -3.216  13.307  24.143  0.00  0.00    +0.000 A 
ATOM     12  C   UNL     1      -4.467  12.538  24.377  0.00  0.00    +0.000 C 
ATOM     13  N   UNL     1      -3.092  14.530  24.672  0.00  0.00    +0.000 NA
BRANCH   8  15
ATOM     14  C   UNL     1      -1.071  15.956  26.339  0.00  0.00    +0.000 C 
ATOM     15  C   UNL     1      -1.273  16.119  24.840  0.00  0.00    +0.000 C 
ENDBRANCH   8  15
ENDBRANCH   7  10
ENDBRANCH   1   7
BRANCH   4  16
ATOM     16  C   UNL     1       1.557   8.534  20.907  0.00  0.00    +0.000 C 
BRANCH  16  17
ATOM     17  C   UNL     1       1.935   7.363  20.010  0.00  0.00    +0.000 A 
ATOM     18  C   UNL     1       2.398   7.586  18.706  0.00  0.00    +0.000 A 
ATOM     19  C   UNL     1       2.779   6.514  17.892  0.00  0.00    +0.000 A 
ATOM     20  C   UNL     1       2.707   5.211  18.381  0.00  0.00    +0.000 A 
ATOM     21  C   UNL     1       2.260   4.963  19.680  0.00  0.00    +0.000 A 
ATOM     22  C   UNL     1       1.873   6.038  20.490  0.00  0.00    +0.000 A 
BRANCH  21  23
ATOM     23  O   UNL     1       2.240   3.641  20.028  0.00  0.00    +0.000 OA
ATOM     24  C   UNL     1       0.996   3.093  20.446  0.00  0.00    +0.000 C 
ENDBRANCH  21  23
ENDBRANCH  16  17
ENDBRANCH   4  16
BRANCH   5  25
ATOM     25  C   UNL     1       0.081  10.586  19.063  0.00  0.00    +0.000 C 
BRANCH  25  26
ATOM     26  C   UNL     1       0.734  11.966  18.977  0.00  0.00    +0.000 C 
BRANCH  26  27
ATOM     27  O   UNL     1      -0.182  12.904  18.431  0.00  0.00    +0.000 OA
ATOM     28  H   UNL     1      -0.032  12.940  17.471  0.00  0.00    +0.000 HD
ENDBRANCH  26  27
ENDBRANCH  25  26
ENDBRANCH   5  25
TORSDOF 9
ENDMDL
MODEL 6
REMARK VINA RESULT:      -6.6      3.787      6.509
REMARK  Name = 
REMARK  12 active torsions:
REMARK  status: ('A' for Active; 'I' for Inactive)
REMARK    1  A    between atoms: C_1  and  C_2
REMARK    2  A    between atoms: C_2  and  N_3
REMARK    3  A    between atoms: C_5  and  C_6
REMARK    4  A    between atoms: C_6  and  N_7
REMARK    5  A    between atoms: N_10  and  C_11
REMARK    6  A    between atoms: C_11  and  C_12
REMARK    7  A    between atoms: C_16  and  O_17
REMARK    8  A    between atoms: O_17  and  C_18
REMARK    9  A    between atoms: C_20  and  C_21
REMARK   10  A    between atoms: C_21  and  C_22
REMARK   11  A    between atoms: C_22  and  O_23
REMARK   12  A    between atoms: C_25  and  C_26
REMARK                            x       y       z     vdW  Elec       q    Type
REMARK                         _______ _______ _______ _____ _____    ______ ____
ROOT
ATOM      1  N   UNL     1       0.314   8.738  20.728  0.00  0.00    +0.000 NA
ATOM      2  C   UNL     1      -0.523   8.951  21.934  0.00  0.00    +0.000 C 
ATOM      3  C   UNL     1      -0.202  10.191  22.814  0.00  0.00    +0.000 C 
ATOM      4  N   UNL     1       0.037  11.465  22.086  0.00  0.00    +0.000 NA
ATOM      5  C   UNL     1       0.981  11.166  20.975  0.00  0.00    +0.000 C 
ATOM      6  C   UNL     1       0.467  10.039  20.029  0.00  0.00    +0.000 C 
ENDROOT
BRANCH   1   7
ATOM      7  C   UNL     1       1.652   8.169  21.011  0.00  0.00    +0.000 C 
BRANCH   7  10
ATOM      8  N   UNL     1       2.468   4.929  19.528  0.00  0.00    +0.000 N 
ATOM      9  C   UNL     1       1.842   5.622  20.520  0.00  0.00    +0.000 A 
ATOM     10  C   UNL     1       1.985   6.957  20.204  0.00  0.00    +0.000 A 
ATOM     11  C   UNL     1       2.522   6.937  18.881  0.00  0.00    +0.000 A 
ATOM     12  C   UNL     1       2.774   8.074  17.957  0.00  0.00    +0.000 C 
ATOM     13  N   UNL     1       2.826   5.694  18.486  0.00  0.00    +0.000 NA
BRANCH   8  15
ATOM     14  C   UNL     1       4.296   3.360  19.089  0.00  0.00    +0.000 C 
ATOM     15  C   UNL     1       2.870   3.538  19.587  0.00  0.00    +0.000 C 
ENDBRANCH   8  15
ENDBRANCH   7  10
ENDBRANCH   1   7
BRANCH   4  16
ATOM     16  C   UNL     1      -1.231  12.088  21.647  0.00  0.00    +0.000 C 
BRANCH  16  17
ATOM     17  C   UNL     1      -2.049  12.704  22.774  0.00  0.00    +0.000 A 
ATOM     18  C   UNL     1      -1.640  13.901  23.377  0.00  0.00    +0.000 A 
ATOM     19  C   UNL     1      -2.408  14.489  24.387  0.00  0.00    +0.000 A 
ATOM     20  C   UNL     1      -3.595  13.885  24.797  0.00  0.00    +0.000 A 
ATOM     21  C   UNL     1      -4.031  12.698  24.205  0.00  0.00    +0.000 A 
ATOM     22  C   UNL     1      -3.256  12.109  23.197  0.00  0.00    +0.000 A 
BRANCH  21  23
ATOM     23  O   UNL     1      -5.210  12.217  24.703  0.00  0.00    +0.000 OA
ATOM     24  C   UNL     1      -6.413  12.719  24.133  0.00  0.00    +0.000 C 
ENDBRANCH  21  23
ENDBRANCH  16  17
ENDBRANCH   4  16
BRANCH   5  25
ATOM     25  C   UNL     1       1.532  12.380  20.210  0.00  0.00    +0.000 C 
BRANCH  25  26
ATOM     26  C   UNL     1       1.685  12.062  18.723  0.00  0.00    +0.000 C 
BRANCH  26  27
ATOM     27  O   UNL     1       0.794  12.863  17.959  0.00  0.00    +0.000 OA
ATOM     28  H   UNL     1       0.332  12.278  17.335  0.00  0.00    +0.000 HD
ENDBRANCH  26  27
ENDBRANCH  25  26
ENDBRANCH   5  25
TORSDOF 9
ENDMDL
MODEL 7
REMARK VINA RESULT:      -6.5      4.134      6.801
REMARK  Name = 
REMARK  12 active torsions:
REMARK  status: ('A' for Active; 'I' for Inactive)
REMARK    1  A    between atoms: C_1  and  C_2
REMARK    2  A    between atoms: C_2  and  N_3
REMARK    3  A    between atoms: C_5  and  C_6
REMARK    4  A    between atoms: C_6  and  N_7
REMARK    5  A    between atoms: N_10  and  C_11
REMARK    6  A    between atoms: C_11  and  C_12
REMARK    7  A    between atoms: C_16  and  O_17
REMARK    8  A    between atoms: O_17  and  C_18
REMARK    9  A    between atoms: C_20  and  C_21
REMARK   10  A    between atoms: C_21  and  C_22
REMARK   11  A    between atoms: C_22  and  O_23
REMARK   12  A    between atoms: C_25  and  C_26
REMARK                            x       y       z     vdW  Elec       q    Type
REMARK                         _______ _______ _______ _____ _____    ______ ____
ROOT
ATOM      1  N   UNL     1       0.217   8.582  20.868  0.00  0.00    +0.000 NA
ATOM      2  C   UNL     1      -0.425   8.811  22.185  0.00  0.00    +0.000 C 
ATOM      3  C   UNL     1      -0.077  10.131  22.927  0.00  0.00    +0.000 C 
ATOM      4  N   UNL     1      -0.078  11.366  22.100  0.00  0.00    +0.000 NA
ATOM      5  C   UNL     1       0.692  11.067  20.862  0.00  0.00    +0.000 C 
ATOM      6  C   UNL     1       0.133   9.840  20.082  0.00  0.00    +0.000 C 
ENDROOT
BRANCH   1   7
ATOM      7  C   UNL     1       1.629   8.144  20.949  0.00  0.00    +0.000 C 
BRANCH   7  10
ATOM      8  N   UNL     1       2.265   4.723  19.827  0.00  0.00    +0.000 N 
ATOM      9  C   UNL     1       1.656   5.553  20.719  0.00  0.00    +0.000 A 
ATOM     10  C   UNL     1       1.904   6.837  20.280  0.00  0.00    +0.000 A 
ATOM     11  C   UNL     1       2.484   6.648  18.988  0.00  0.00    +0.000 A 
ATOM     12  C   UNL     1       2.848   7.665  17.968  0.00  0.00    +0.000 C 
ATOM     13  N   UNL     1       2.713   5.353  18.731  0.00  0.00    +0.000 NA
BRANCH   8  15
ATOM     14  C   UNL     1       2.338   2.927  21.490  0.00  0.00    +0.000 C 
ATOM     15  C   UNL     1       2.566   3.322  20.039  0.00  0.00    +0.000 C 
ENDBRANCH   8  15
ENDBRANCH   7  10
ENDBRANCH   1   7
BRANCH   4  16
ATOM     16  C   UNL     1      -1.453  11.853  21.851  0.00  0.00    +0.000 C 
BRANCH  16  17
ATOM     17  C   UNL     1      -1.974  12.824  22.902  0.00  0.00    +0.000 A 
ATOM     18  C   UNL     1      -3.284  12.714  23.386  0.00  0.00    +0.000 A 
ATOM     19  C   UNL     1      -3.754  13.581  24.377  0.00  0.00    +0.000 A 
ATOM     20  C   UNL     1      -2.912  14.562  24.897  0.00  0.00    +0.000 A 
ATOM     21  C   UNL     1      -1.598  14.687  24.440  0.00  0.00    +0.000 A 
ATOM     22  C   UNL     1      -1.133  13.820  23.443  0.00  0.00    +0.000 A 
BRANCH  21  23
ATOM     23  O   UNL     1      -0.885  15.690  25.036  0.00  0.00    +0.000 OA
ATOM     24  C   UNL     1      -0.194  16.596  24.184  0.00  0.00    +0.000 C 
ENDBRANCH  21  23
ENDBRANCH  16  17
ENDBRANCH   4  16
BRANCH   5  25
ATOM     25  C   UNL     1       0.996  12.266  19.949  0.00  0.00    +0.000 C 
BRANCH  25  26
ATOM     26  C   UNL     1       2.153  13.095  20.508  0.00  0.00    +0.000 C 
BRANCH  26  27
ATOM     27  O   UNL     1       1.750  13.751  21.701  0.00  0.00    +0.000 OA
ATOM     28  H   UNL     1       0.809  13.553  21.844  0.00  0.00    +0.000 HD
ENDBRANCH  26  27
ENDBRANCH  25  26
ENDBRANCH   5  25
TORSDOF 9
ENDMDL
MODEL 8
REMARK VINA RESULT:      -6.4      1.627      1.926
REMARK  Name = 
REMARK  12 active torsions:
REMARK  status: ('A' for Active; 'I' for Inactive)
REMARK    1  A    between atoms: C_1  and  C_2
REMARK    2  A    between atoms: C_2  and  N_3
REMARK    3  A    between atoms: C_5  and  C_6
REMARK    4  A    between atoms: C_6  and  N_7
REMARK    5  A    between atoms: N_10  and  C_11
REMARK    6  A    between atoms: C_11  and  C_12
REMARK    7  A    between atoms: C_16  and  O_17
REMARK    8  A    between atoms: O_17  and  C_18
REMARK    9  A    between atoms: C_20  and  C_21
REMARK   10  A    between atoms: C_21  and  C_22
REMARK   11  A    between atoms: C_22  and  O_23
REMARK   12  A    between atoms: C_25  and  C_26
REMARK                            x       y       z     vdW  Elec       q    Type
REMARK                         _______ _______ _______ _____ _____    ______ ____
ROOT
ATOM      1  N   UNL     1       4.479   6.048  18.236  0.00  0.00    +0.000 NA
ATOM      2  C   UNL     1       3.970   7.284  17.593  0.00  0.00    +0.000 C 
ATOM      3  C   UNL     1       2.431   7.493  17.571  0.00  0.00    +0.000 C 
ATOM      4  N   UNL     1       1.714   7.206  18.840  0.00  0.00    +0.000 NA
ATOM      5  C   UNL     1       2.206   5.892  19.337  0.00  0.00    +0.000 C 
ATOM      6  C   UNL     1       3.754   5.854  19.517  0.00  0.00    +0.000 C 
ENDROOT
BRANCH   1   7
ATOM      7  C   UNL     1       4.343   4.831  17.402  0.00  0.00    +0.000 C 
BRANCH   7  10
ATOM      8  N   UNL     1       6.394   4.394  14.408  0.00  0.00    +0.000 N 
ATOM      9  C   UNL     1       5.180   4.702  14.943  0.00  0.00    +0.000 A 
ATOM     10  C   UNL     1       5.357   4.720  16.311  0.00  0.00    +0.000 A 
ATOM     11  C   UNL     1       6.774   4.627  16.471  0.00  0.00    +0.000 A 
ATOM     12  C   UNL     1       7.582   4.726  17.714  0.00  0.00    +0.000 C 
ATOM     13  N   UNL     1       7.393   4.413  15.303  0.00  0.00    +0.000 NA
BRANCH   8  15
ATOM     14  C   UNL     1       5.354   3.424  12.414  0.00  0.00    +0.000 C 
ATOM     15  C   UNL     1       6.635   3.937  13.054  0.00  0.00    +0.000 C 
ENDBRANCH   8  15
ENDBRANCH   7  10
ENDBRANCH   1   7
BRANCH   4  16
ATOM     16  C   UNL     1       1.863   8.311  19.813  0.00  0.00    +0.000 C 
BRANCH  16  17
ATOM     17  C   UNL     1       1.136   9.591  19.424  0.00  0.00    +0.000 A 
ATOM     18  C   UNL     1       1.856  10.752  19.113  0.00  0.00    +0.000 A 
ATOM     19  C   UNL     1       1.193  11.919  18.720  0.00  0.00    +0.000 A 
ATOM     20  C   UNL     1      -0.198  11.930  18.629  0.00  0.00    +0.000 A 
ATOM     21  C   UNL     1      -0.938  10.783  18.922  0.00  0.00    +0.000 A 
ATOM     22  C   UNL     1      -0.271   9.618  19.321  0.00  0.00    +0.000 A 
BRANCH  21  23
ATOM     23  O   UNL     1      -2.291  10.934  18.791  0.00  0.00    +0.000 OA
ATOM     24  C   UNL     1      -2.784  11.332  17.517  0.00  0.00    +0.000 C 
ENDBRANCH  21  23
ENDBRANCH  16  17
ENDBRANCH   4  16
BRANCH   5  25
ATOM     25  C   UNL     1       1.452   5.295  20.536  0.00  0.00    +0.000 C 
BRANCH  25  26
ATOM     26  C   UNL     1       1.640   3.779  20.596  0.00  0.00    +0.000 C 
BRANCH  26  27
ATOM     27  O   UNL     1       0.413   3.124  20.309  0.00  0.00    +0.000 OA
ATOM     28  H   UNL     1       0.389   2.302  20.828  0.00  0.00    +0.000 HD
ENDBRANCH  26  27
ENDBRANCH  25  26
ENDBRANCH   5  25
TORSDOF 9
ENDMDL
MODEL 9
REMARK VINA RESULT:      -6.4      2.383      8.410
REMARK  Name = 
REMARK  12 active torsions:
REMARK  status: ('A' for Active; 'I' for Inactive)
REMARK    1  A    between atoms: C_1  and  C_2
REMARK    2  A    between atoms: C_2  and  N_3
REMARK    3  A    between atoms: C_5  and  C_6
REMARK    4  A    between atoms: C_6  and  N_7
REMARK    5  A    between atoms: N_10  and  C_11
REMARK    6  A    between atoms: C_11  and  C_12
REMARK    7  A    between atoms: C_16  and  O_17
REMARK    8  A    between atoms: O_17  and  C_18
REMARK    9  A    between atoms: C_20  and  C_21
REMARK   10  A    between atoms: C_21  and  C_22
REMARK   11  A    between atoms: C_22  and  O_23
REMARK   12  A    between atoms: C_25  and  C_26
REMARK                            x       y       z     vdW  Elec       q    Type
REMARK                         _______ _______ _______ _____ _____    ______ ____
ROOT
ATOM      1  N   UNL     1       2.108   6.627  19.183  0.00  0.00    +0.000 NA
ATOM      2  C   UNL     1       3.549   6.624  18.831  0.00  0.00    +0.000 C 
ATOM      3  C   UNL     1       4.418   5.468  19.397  0.00  0.00    +0.000 C 
ATOM      4  N   UNL     1       3.833   4.105  19.304  0.00  0.00    +0.000 NA
ATOM      5  C   UNL     1       2.431   4.193  19.793  0.00  0.00    +0.000 C 
ATOM      6  C   UNL     1       1.583   5.248  19.019  0.00  0.00    +0.000 C 
ENDROOT
BRANCH   1   7
ATOM      7  C   UNL     1       1.820   7.106  20.555  0.00  0.00    +0.000 C 
BRANCH   7  10
ATOM      8  N   UNL     1       0.462  10.429  21.243  0.00  0.00    +0.000 N 
ATOM      9  C   UNL     1       1.061   9.303  21.721  0.00  0.00    +0.000 A 
ATOM     10  C   UNL     1       1.330   8.515  20.621  0.00  0.00    +0.000 A 
ATOM     11  C   UNL     1       1.048   9.371  19.513  0.00  0.00    +0.000 A 
ATOM     12  C   UNL     1       1.269   9.128  18.063  0.00  0.00    +0.000 C 
ATOM     13  N   UNL     1       0.505  10.531  19.906  0.00  0.00    +0.000 NA
BRANCH   8  15
ATOM     14  C   UNL     1      -1.102  10.692  23.108  0.00  0.00    +0.000 C 
ATOM     15  C   UNL     1      -0.293  11.387  22.025  0.00  0.00    +0.000 C 
ENDBRANCH   8  15
ENDBRANCH   7  10
ENDBRANCH   1   7
BRANCH   4  16
ATOM     16  C   UNL     1       3.960   3.549  17.938  0.00  0.00    +0.000 C 
BRANCH  16  17
ATOM     17  C   UNL     1       5.206   4.004  17.190  0.00  0.00    +0.000 A 
ATOM     18  C   UNL     1       6.387   4.297  17.887  0.00  0.00    +0.000 A 
ATOM     19  C   UNL     1       7.543   4.680  17.200  0.00  0.00    +0.000 A 
ATOM     20  C   UNL     1       7.528   4.766  15.809  0.00  0.00    +0.000 A 
ATOM     21  C   UNL     1       6.368   4.469  15.091  0.00  0.00    +0.000 A 
ATOM     22  C   UNL     1       5.210   4.091  15.782  0.00  0.00    +0.000 A 
BRANCH  21  23
ATOM     23  O   UNL     1       6.495   4.594  13.735  0.00  0.00    +0.000 OA
ATOM     24  C   UNL     1       6.013   3.523  12.932  0.00  0.00    +0.000 C 
ENDBRANCH  21  23
ENDBRANCH  16  17
ENDBRANCH   4  16
BRANCH   5  25
ATOM     25  C   UNL     1       1.693   2.857  19.980  0.00  0.00    +0.000 C 
BRANCH  25  26
ATOM     26  C   UNL     1       1.506   2.543  21.465  0.00  0.00    +0.000 C 
BRANCH  26  27
ATOM     27  O   UNL     1       2.439   3.282  22.241  0.00  0.00    +0.000 OA
ATOM     28  H   UNL     1       2.556   4.148  21.815  0.00  0.00    +0.000 HD
ENDBRANCH  26  27
ENDBRANCH  25  26
ENDBRANCH   5  25
TORSDOF 9
ENDMDL
