MODEL 1
REMARK VINA RESULT:      -7.0      0.000      0.000
REMARK  Name = 
REMARK  5 active torsions:
REMARK  status: ('A' for Active; 'I' for Inactive)
REMARK    1  A    between atoms: C_1  and  C_2
REMARK    2  A    between atoms: N_3  and  C_4
REMARK    3  A    between atoms: N_7  and  C_8
REMARK    4  A    between atoms: N_17  and  C_18
REMARK    5  A    between atoms: C_18  and  C_19
REMARK                            x       y       z     vdW  Elec       q    Type
REMARK                         _______ _______ _______ _____ _____    ______ ____
ROOT
ATOM      1  C   UNL     1      -0.634   9.784  23.188  0.00  0.00    +0.000 C 
ATOM      2  C   UNL     1      -0.944  11.281  22.717  0.00  0.00    +0.000 C 
ATOM      3  N   UNL     1      -1.913  12.304  23.269  0.00  0.00    +0.000 N 
ATOM      4  C   UNL     1      -1.274  13.581  23.379  0.00  0.00    +0.000 C 
ATOM      5  O   UNL     1      -1.614  14.490  24.142  0.00  0.00    +0.000 OA
ATOM      6  C   UNL     1      -0.184  13.853  22.307  0.00  0.00    +0.000 C 
ATOM      7  O   UNL     1       0.424  12.828  21.533  0.00  0.00    +0.000 OA
ATOM      8  C   UNL     1      -0.423  11.680  21.302  0.00  0.00    +0.000 C 
ATOM      9  C   UNL     1      -1.541  12.049  20.310  0.00  0.00    +0.000 C 
ATOM     10  C   UNL     1      -0.959  12.344  18.916  0.00  0.00    +0.000 C 
ATOM     11  N   UNL     1      -0.155  11.243  18.364  0.00  0.00    +0.000 NA
ATOM     12  C   UNL     1       0.956  10.956  19.279  0.00  0.00    +0.000 C 
ATOM     13  C   UNL     1       0.474  10.594  20.673  0.00  0.00    +0.000 C 
ENDROOT
BRANCH   3  14
ATOM     14  C   UNL     1      -3.351  12.465  23.394  0.00  0.00    +0.000 A 
ATOM     15  C   UNL     1      -4.098  12.175  24.581  0.00  0.00    +0.000 A 
ATOM     16  N   UNL     1      -5.398  12.444  24.503  0.00  0.00    +0.000 NA
ATOM     17  N   UNL     1      -5.550  12.924  23.264  0.00  0.00    +0.000 N 
ATOM     18  C   UNL     1      -6.901  13.225  22.826  0.00  0.00    +0.000 C 
ATOM     19  C   UNL     1      -4.328  13.006  22.578  0.00  0.00    +0.000 A 
ENDBRANCH   3  14
BRANCH  11  20
ATOM     20  C   UNL     1      -1.007  10.080  18.041  0.00  0.00    +0.000 C 
BRANCH  20  21
ATOM     21  C   UNL     1      -2.267  10.413  17.321  0.00  0.00    +0.000 A 
ATOM     22  C   UNL     1      -3.589  10.502  17.699  0.00  0.00    +0.000 A 
ATOM     23  C   UNL     1      -4.318  10.815  16.528  0.00  0.00    +0.000 A 
ATOM     24  C   UNL     1      -3.397  10.902  15.510  0.00  0.00    +0.000 A 
ATOM     25  O   UNL     1      -2.146  10.666  15.982  0.00  0.00    +0.000 OA
ENDBRANCH  20  21
ENDBRANCH  11  20
TORSDOF 3
ENDMDL
MODEL 2
REMARK VINA RESULT:      -6.1      1.066      1.090
REMARK  Name = 
REMARK  5 active torsions:
REMARK  status: ('A' for Active; 'I' for Inactive)
REMARK    1  A    between atoms: C_1  and  C_2
REMARK    2  A    between atoms: N_3  and  C_4
REMARK    3  A    between atoms: N_7  and  C_8
REMARK    4  A    between atoms: N_17  and  C_18
REMARK    5  A    between atoms: C_18  and  C_19
REMARK                            x       y       z     vdW  Elec       q    Type
REMARK                         _______ _______ _______ _____ _____    ______ ____
ROOT
ATOM      1  C   UNL     1      -0.933  10.301  23.285  0.00  0.00    +0.000 C 
ATOM      2  C   UNL     1      -0.823  11.731  22.576  0.00  0.00    +0.000 C 
ATOM      3  N   UNL     1      -1.437  13.063  22.950  0.00  0.00    +0.000 N 
ATOM      4  C   UNL     1      -0.457  14.103  22.856  0.00  0.00    +0.000 C 
ATOM      5  O   UNL     1      -0.492  15.178  23.459  0.00  0.00    +0.000 OA
ATOM      6  C   UNL     1       0.622  13.878  21.760  0.00  0.00    +0.000 C 
ATOM      7  O   UNL     1       0.881  12.613  21.166  0.00  0.00    +0.000 OA
ATOM      8  C   UNL     1      -0.267  11.736  21.118  0.00  0.00    +0.000 C 
ATOM      9  C   UNL     1      -1.273  12.252  20.073  0.00  0.00    +0.000 C 
ATOM     10  C   UNL     1      -0.689  12.145  18.653  0.00  0.00    +0.000 C 
ATOM     11  N   UNL     1      -0.255  10.786  18.292  0.00  0.00    +0.000 NA
ATOM     12  C   UNL     1       0.765  10.339  19.248  0.00  0.00    +0.000 C 
ATOM     13  C   UNL     1       0.256  10.354  20.679  0.00  0.00    +0.000 C 
ENDROOT
BRANCH   3  14
ATOM     14  C   UNL     1      -2.763  13.648  23.038  0.00  0.00    +0.000 A 
ATOM     15  C   UNL     1      -3.556  13.680  24.230  0.00  0.00    +0.000 A 
ATOM     16  N   UNL     1      -4.719  14.313  24.111  0.00  0.00    +0.000 NA
ATOM     17  N   UNL     1      -4.730  14.722  22.838  0.00  0.00    +0.000 N 
ATOM     18  C   UNL     1      -5.935  15.373  22.357  0.00  0.00    +0.000 C 
ATOM     19  C   UNL     1      -3.542  14.390  22.168  0.00  0.00    +0.000 A 
ENDBRANCH   3  14
BRANCH  11  20
ATOM     20  C   UNL     1      -1.416   9.883  18.156  0.00  0.00    +0.000 C 
BRANCH  20  21
ATOM     21  C   UNL     1      -2.490  10.381  17.255  0.00  0.00    +0.000 A 
ATOM     22  C   UNL     1      -3.731  10.943  17.467  0.00  0.00    +0.000 A 
ATOM     23  C   UNL     1      -4.295  11.159  16.188  0.00  0.00    +0.000 A 
ATOM     24  C   UNL     1      -3.365  10.719  15.276  0.00  0.00    +0.000 A 
ATOM     25  O   UNL     1      -2.261  10.251  15.913  0.00  0.00    +0.000 OA
ENDBRANCH  20  21
ENDBRANCH  11  20
TORSDOF 3
ENDMDL
MODEL 3
REMARK VINA RESULT:      -6.1      1.392      1.719
REMARK  Name = 
REMARK  5 active torsions:
REMARK  status: ('A' for Active; 'I' for Inactive)
REMARK    1  A    between atoms: C_1  and  C_2
REMARK    2  A    between atoms: N_3  and  C_4
REMARK    3  A    between atoms: N_7  and  C_8
REMARK    4  A    between atoms: N_17  and  C_18
REMARK    5  A    between atoms: C_18  and  C_19
REMARK                            x       y       z     vdW  Elec       q    Type
REMARK                         _______ _______ _______ _____ _____    ______ ____
ROOT
ATOM      1  C   UNL     1      -1.059  10.430  23.286  0.00  0.00    +0.000 C 
ATOM      2  C   UNL     1      -0.819  11.803  22.503  0.00  0.00    +0.000 C 
ATOM      3  N   UNL     1      -1.298  13.206  22.808  0.00  0.00    +0.000 N 
ATOM      4  C   UNL     1      -0.224  14.141  22.654  0.00  0.00    +0.000 C 
ATOM      5  O   UNL     1      -0.150  15.244  23.201  0.00  0.00    +0.000 OA
ATOM      6  C   UNL     1       0.817  13.757  21.568  0.00  0.00    +0.000 C 
ATOM      7  O   UNL     1       0.948  12.443  21.040  0.00  0.00    +0.000 OA
ATOM      8  C   UNL     1      -0.279  11.679  21.044  0.00  0.00    +0.000 C 
ATOM      9  C   UNL     1      -1.240  12.234  19.977  0.00  0.00    +0.000 C 
ATOM     10  C   UNL     1      -0.682  11.997  18.563  0.00  0.00    +0.000 C 
ATOM     11  N   UNL     1      -0.384  10.586  18.271  0.00  0.00    +0.000 NA
ATOM     12  C   UNL     1       0.597  10.094  19.245  0.00  0.00    +0.000 C 
ATOM     13  C   UNL     1       0.106  10.232  20.675  0.00  0.00    +0.000 C 
ENDROOT
BRANCH   3  14
ATOM     14  C   UNL     1      -2.562  13.920  22.871  0.00  0.00    +0.000 A 
ATOM     15  C   UNL     1      -3.166  14.595  21.762  0.00  0.00    +0.000 A 
ATOM     16  N   UNL     1      -4.352  15.140  22.019  0.00  0.00    +0.000 NA
ATOM     17  N   UNL     1      -4.569  14.839  23.304  0.00  0.00    +0.000 N 
ATOM     18  C   UNL     1      -5.760  15.388  23.925  0.00  0.00    +0.000 C 
ATOM     19  C   UNL     1      -3.536  14.055  23.843  0.00  0.00    +0.000 A 
ENDBRANCH   3  14
BRANCH  11  20
ATOM     20  C   UNL     1      -1.627   9.793  18.188  0.00  0.00    +0.000 C 
BRANCH  20  21
ATOM     21  C   UNL     1      -2.561  10.209  17.107  0.00  0.00    +0.000 A 
ATOM     22  C   UNL     1      -2.567  10.056  15.738  0.00  0.00    +0.000 A 
ATOM     23  C   UNL     1      -3.720  10.727  15.266  0.00  0.00    +0.000 A 
ATOM     24  C   UNL     1      -4.346  11.246  16.375  0.00  0.00    +0.000 A 
ATOM     25  O   UNL     1      -3.655  10.931  17.500  0.00  0.00    +0.000 OA
ENDBRANCH  20  21
ENDBRANCH  11  20
TORSDOF 3
ENDMDL
MODEL 4
REMARK VINA RESULT:      -5.8      8.078     10.217
REMARK  Name = 
REMARK  5 active torsions:
REMARK  status: ('A' for Active; 'I' for Inactive)
REMARK    1  A    between atoms: C_1  and  C_2
REMARK    2  A    between atoms: N_3  and  C_4
REMARK    3  A    between atoms: N_7  and  C_8
REMARK    4  A    between atoms: N_17  and  C_18
REMARK    5  A    between atoms: C_18  and  C_19
REMARK                            x       y       z     vdW  Elec       q    Type
REMARK                         _______ _______ _______ _____ _____    ______ ____
ROOT
ATOM      1  C   UNL     1       1.471   4.001  17.082  0.00  0.00    +0.000 C 
ATOM      2  C   UNL     1       2.402   4.182  18.370  0.00  0.00    +0.000 C 
ATOM      3  N   UNL     1       2.128   4.865  19.693  0.00  0.00    +0.000 N 
ATOM      4  C   UNL     1       2.574   4.041  20.776  0.00  0.00    +0.000 C 
ATOM      5  O   UNL     1       2.151   4.088  21.934  0.00  0.00    +0.000 OA
ATOM      6  C   UNL     1       3.811   3.159  20.451  0.00  0.00    +0.000 C 
ATOM      7  O   UNL     1       4.239   2.870  19.127  0.00  0.00    +0.000 OA
ATOM      8  C   UNL     1       3.923   3.901  18.165  0.00  0.00    +0.000 C 
ATOM      9  C   UNL     1       4.819   5.130  18.407  0.00  0.00    +0.000 C 
ATOM     10  C   UNL     1       6.290   4.802  18.101  0.00  0.00    +0.000 C 
ATOM     11  N   UNL     1       6.513   4.291  16.740  0.00  0.00    +0.000 NA
ATOM     12  C   UNL     1       5.718   3.071  16.551  0.00  0.00    +0.000 C 
ATOM     13  C   UNL     1       4.235   3.313  16.774  0.00  0.00    +0.000 C 
ENDROOT
BRANCH   3  14
ATOM     14  C   UNL     1       1.874   6.211  20.175  0.00  0.00    +0.000 A 
ATOM     15  C   UNL     1       2.238   7.404  19.473  0.00  0.00    +0.000 A 
ATOM     16  N   UNL     1       1.864   8.536  20.063  0.00  0.00    +0.000 NA
ATOM     17  N   UNL     1       1.239   8.125  21.172  0.00  0.00    +0.000 N 
ATOM     18  C   UNL     1       0.790   9.146  22.101  0.00  0.00    +0.000 C 
ATOM     19  C   UNL     1       1.174   6.725  21.251  0.00  0.00    +0.000 A 
ENDBRANCH   3  14
BRANCH  11  20
ATOM     20  C   UNL     1       6.276   5.347  15.735  0.00  0.00    +0.000 C 
BRANCH  20  21
ATOM     21  C   UNL     1       6.641   4.974  14.342  0.00  0.00    +0.000 A 
ATOM     22  C   UNL     1       6.131   4.079  13.427  0.00  0.00    +0.000 A 
ATOM     23  C   UNL     1       6.959   4.162  12.283  0.00  0.00    +0.000 A 
ATOM     24  C   UNL     1       7.920   5.102  12.569  0.00  0.00    +0.000 A 
ATOM     25  O   UNL     1       7.733   5.609  13.814  0.00  0.00    +0.000 OA
ENDBRANCH  20  21
ENDBRANCH  11  20
TORSDOF 3
ENDMDL
MODEL 5
REMARK VINA RESULT:      -5.8      9.402     11.415
REMARK  Name = 
REMARK  5 active torsions:
REMARK  status: ('A' for Active; 'I' for Inactive)
REMARK    1  A    between atoms: C_1  and  C_2
REMARK    2  A    between atoms: N_3  and  C_4
REMARK    3  A    between atoms: N_7  and  C_8
REMARK    4  A    between atoms: N_17  and  C_18
REMARK    5  A    between atoms: C_18  and  C_19
REMARK                            x       y       z     vdW  Elec       q    Type
REMARK                         _______ _______ _______ _____ _____    ______ ____
ROOT
ATOM      1  C   UNL     1       9.916  14.477  21.907  0.00  0.00    +0.000 C 
ATOM      2  C   UNL     1       9.582  14.803  20.377  0.00  0.00    +0.000 C 
ATOM      3  N   UNL     1       8.663  15.842  19.771  0.00  0.00    +0.000 N 
ATOM      4  C   UNL     1       9.317  16.507  18.684  0.00  0.00    +0.000 C 
ATOM      5  O   UNL     1       9.040  17.632  18.261  0.00  0.00    +0.000 OA
ATOM      6  C   UNL     1      10.327  15.625  17.901  0.00  0.00    +0.000 C 
ATOM      7  O   UNL     1      10.870  14.416  18.413  0.00  0.00    +0.000 OA
ATOM      8  C   UNL     1      10.001  13.720  19.335  0.00  0.00    +0.000 C 
ATOM      9  C   UNL     1       8.816  13.105  18.569  0.00  0.00    +0.000 C 
ATOM     10  C   UNL     1       9.295  11.987  17.627  0.00  0.00    +0.000 C 
ATOM     11  N   UNL     1      10.049  10.922  18.306  0.00  0.00    +0.000 NA
ATOM     12  C   UNL     1      11.223  11.510  18.962  0.00  0.00    +0.000 C 
ATOM     13  C   UNL     1      10.842  12.589  19.961  0.00  0.00    +0.000 C 
ENDROOT
BRANCH   3  14
ATOM     14  C   UNL     1       7.239  16.126  19.732  0.00  0.00    +0.000 A 
ATOM     15  C   UNL     1       6.369  15.755  18.657  0.00  0.00    +0.000 A 
ATOM     16  N   UNL     1       5.089  16.060  18.844  0.00  0.00    +0.000 NA
ATOM     17  N   UNL     1       5.071  16.639  20.049  0.00  0.00    +0.000 N 
ATOM     18  C   UNL     1       3.808  17.185  20.509  0.00  0.00    +0.000 C 
ATOM     19  C   UNL     1       6.343  16.650  20.646  0.00  0.00    +0.000 A 
ENDBRANCH   3  14
BRANCH  11  20
ATOM     20  C   UNL     1       9.168  10.140  19.197  0.00  0.00    +0.000 C 
BRANCH  20  21
ATOM     21  C   UNL     1       8.490   8.986  18.546  0.00  0.00    +0.000 A 
ATOM     22  C   UNL     1       7.607   8.865  17.495  0.00  0.00    +0.000 A 
ATOM     23  C   UNL     1       7.293   7.489  17.395  0.00  0.00    +0.000 A 
ATOM     24  C   UNL     1       8.005   6.856  18.386  0.00  0.00    +0.000 A 
ATOM     25  O   UNL     1       8.742   7.755  19.087  0.00  0.00    +0.000 OA
ENDBRANCH  20  21
ENDBRANCH  11  20
TORSDOF 3
ENDMDL
MODEL 6
REMARK VINA RESULT:      -5.7      2.941      7.528
REMARK  Name = 
REMARK  5 active torsions:
REMARK  status: ('A' for Active; 'I' for Inactive)
REMARK    1  A    between atoms: C_1  and  C_2
REMARK    2  A    between atoms: N_3  and  C_4
REMARK    3  A    between atoms: N_7  and  C_8
REMARK    4  A    between atoms: N_17  and  C_18
REMARK    5  A    between atoms: C_18  and  C_19
REMARK                            x       y       z     vdW  Elec       q    Type
REMARK                         _______ _______ _______ _____ _____    ______ ____
ROOT
ATOM      1  C   UNL     1      -7.462   9.632  20.682  0.00  0.00    +0.000 C 
ATOM      2  C   UNL     1      -7.060  11.059  20.083  0.00  0.00    +0.000 C 
ATOM      3  N   UNL     1      -6.439  11.428  18.753  0.00  0.00    +0.000 N 
ATOM      4  C   UNL     1      -7.127  12.545  18.179  0.00  0.00    +0.000 C 
ATOM      5  O   UNL     1      -7.162  12.826  16.978  0.00  0.00    +0.000 OA
ATOM      6  C   UNL     1      -7.713  13.545  19.213  0.00  0.00    +0.000 C 
ATOM      7  O   UNL     1      -7.915  13.224  20.583  0.00  0.00    +0.000 OA
ATOM      8  C   UNL     1      -6.994  12.239  21.102  0.00  0.00    +0.000 C 
ATOM      9  C   UNL     1      -5.592  12.860  21.242  0.00  0.00    +0.000 C 
ATOM     10  C   UNL     1      -5.584  13.954  22.324  0.00  0.00    +0.000 C 
ATOM     11  N   UNL     1      -6.050  13.490  23.640  0.00  0.00    +0.000 NA
ATOM     12  C   UNL     1      -7.419  12.977  23.509  0.00  0.00    +0.000 C 
ATOM     13  C   UNL     1      -7.514  11.846  22.500  0.00  0.00    +0.000 C 
ENDROOT
BRANCH   3  14
ATOM     14  C   UNL     1      -5.179  11.223  18.062  0.00  0.00    +0.000 A 
ATOM     15  C   UNL     1      -4.000  12.006  18.279  0.00  0.00    +0.000 A 
ATOM     16  N   UNL     1      -2.935  11.618  17.583  0.00  0.00    +0.000 NA
ATOM     17  N   UNL     1      -3.376  10.565  16.887  0.00  0.00    +0.000 N 
ATOM     18  C   UNL     1      -2.460   9.963  15.936  0.00  0.00    +0.000 C 
ATOM     19  C   UNL     1      -4.713  10.258  17.188  0.00  0.00    +0.000 A 
ENDBRANCH   3  14
BRANCH  11  20
ATOM     20  C   UNL     1      -5.087  12.540  24.234  0.00  0.00    +0.000 C 
BRANCH  20  21
ATOM     21  C   UNL     1      -3.660  12.828  23.927  0.00  0.00    +0.000 A 
ATOM     22  C   UNL     1      -2.670  12.145  23.254  0.00  0.00    +0.000 A 
ATOM     23  C   UNL     1      -1.502  12.937  23.351  0.00  0.00    +0.000 A 
ATOM     24  C   UNL     1      -1.851  14.055  24.073  0.00  0.00    +0.000 A 
ATOM     25  O   UNL     1      -3.162  14.003  24.421  0.00  0.00    +0.000 OA
ENDBRANCH  20  21
ENDBRANCH  11  20
TORSDOF 3
ENDMDL
MODEL 7
REMARK VINA RESULT:      -5.7      2.303      6.645
REMARK  Name = 
REMARK  5 active torsions:
REMARK  status: ('A' for Active; 'I' for Inactive)
REMARK    1  A    between atoms: C_1  and  C_2
REMARK    2  A    between atoms: N_3  and  C_4
REMARK    3  A    between atoms: N_7  and  C_8
REMARK    4  A    between atoms: N_17  and  C_18
REMARK    5  A    between atoms: C_18  and  C_19
REMARK                            x       y       z     vdW  Elec       q    Type
REMARK                         _______ _______ _______ _____ _____    ______ ____
ROOT
ATOM      1  C   UNL     1      -2.216  11.765  17.964  0.00  0.00    +0.000 C 
ATOM      2  C   UNL     1      -0.843  11.986  18.753  0.00  0.00    +0.000 C 
ATOM      3  N   UNL     1       0.495  11.292  18.613  0.00  0.00    +0.000 N 
ATOM      4  C   UNL     1       1.554  12.256  18.606  0.00  0.00    +0.000 C 
ATOM      5  O   UNL     1       2.671  12.090  18.110  0.00  0.00    +0.000 OA
ATOM      6  C   UNL     1       1.278  13.526  19.455  0.00  0.00    +0.000 C 
ATOM      7  O   UNL     1      -0.021  13.913  19.884  0.00  0.00    +0.000 OA
ATOM      8  C   UNL     1      -0.934  12.809  20.076  0.00  0.00    +0.000 C 
ATOM      9  C   UNL     1      -0.532  12.013  21.331  0.00  0.00    +0.000 C 
ATOM     10  C   UNL     1      -0.731  12.859  22.601  0.00  0.00    +0.000 C 
ATOM     11  N   UNL     1      -2.100  13.375  22.762  0.00  0.00    +0.000 NA
ATOM     12  C   UNL     1      -2.440  14.201  21.597  0.00  0.00    +0.000 C 
ATOM     13  C   UNL     1      -2.330  13.428  20.294  0.00  0.00    +0.000 C 
ENDROOT
BRANCH   3  14
ATOM     14  C   UNL     1       1.044   9.964  18.825  0.00  0.00    +0.000 A 
ATOM     15  C   UNL     1       1.717   9.197  17.820  0.00  0.00    +0.000 A 
ATOM     16  N   UNL     1       2.194   8.028  18.236  0.00  0.00    +0.000 NA
ATOM     17  N   UNL     1       1.854   7.986  19.529  0.00  0.00    +0.000 N 
ATOM     18  C   UNL     1       2.151   6.768  20.259  0.00  0.00    +0.000 C 
ATOM     19  C   UNL     1       1.205   9.162  19.940  0.00  0.00    +0.000 A 
ENDBRANCH   3  14
BRANCH  11  20
ATOM     20  C   UNL     1      -3.046  12.275  23.040  0.00  0.00    +0.000 C 
BRANCH  20  21
ATOM     21  C   UNL     1      -4.473  12.690  23.128  0.00  0.00    +0.000 A 
ATOM     22  C   UNL     1      -5.208  13.393  24.058  0.00  0.00    +0.000 A 
ATOM     23  C   UNL     1      -6.540  13.412  23.582  0.00  0.00    +0.000 A 
ATOM     24  C   UNL     1      -6.535  12.725  22.391  0.00  0.00    +0.000 A 
ATOM     25  O   UNL     1      -5.282  12.288  22.102  0.00  0.00    +0.000 OA
ENDBRANCH  20  21
ENDBRANCH  11  20
TORSDOF 3
ENDMDL
MODEL 8
REMARK VINA RESULT:      -5.6      2.322      3.302
REMARK  Name = 
REMARK  5 active torsions:
REMARK  status: ('A' for Active; 'I' for Inactive)
REMARK    1  A    between atoms: C_1  and  C_2
REMARK    2  A    between atoms: N_3  and  C_4
REMARK    3  A    between atoms: N_7  and  C_8
REMARK    4  A    between atoms: N_17  and  C_18
REMARK    5  A    between atoms: C_18  and  C_19
REMARK                            x       y       z     vdW  Elec       q    Type
REMARK                         _______ _______ _______ _____ _____    ______ ____
ROOT
ATOM      1  C   UNL     1      -1.313  11.075  23.271  0.00  0.00    +0.000 C 
ATOM      2  C   UNL     1      -1.750  12.265  22.296  0.00  0.00    +0.000 C 
ATOM      3  N   UNL     1      -3.047  13.040  22.210  0.00  0.00    +0.000 N 
ATOM      4  C   UNL     1      -2.779  14.442  22.099  0.00  0.00    +0.000 C 
ATOM      5  O   UNL     1      -3.554  15.348  22.417  0.00  0.00    +0.000 OA
ATOM      6  C   UNL     1      -1.465  14.792  21.349  0.00  0.00    +0.000 C 
ATOM      7  O   UNL     1      -0.416  13.858  21.132  0.00  0.00    +0.000 OA
ATOM      8  C   UNL     1      -0.858  12.485  21.035  0.00  0.00    +0.000 C 
ATOM      9  C   UNL     1      -1.602  12.270  19.704  0.00  0.00    +0.000 C 
ATOM     10  C   UNL     1      -0.642  12.416  18.511  0.00  0.00    +0.000 C 
ATOM     11  N   UNL     1       0.523  11.519  18.574  0.00  0.00    +0.000 NA
ATOM     12  C   UNL     1       1.270  11.792  19.807  0.00  0.00    +0.000 C 
ATOM     13  C   UNL     1       0.414  11.613  21.049  0.00  0.00    +0.000 C 
ENDROOT
BRANCH   3  14
ATOM     14  C   UNL     1      -4.434  12.779  21.869  0.00  0.00    +0.000 A 
ATOM     15  C   UNL     1      -5.494  12.658  22.824  0.00  0.00    +0.000 A 
ATOM     16  N   UNL     1      -6.701  12.474  22.299  0.00  0.00    +0.000 NA
ATOM     17  N   UNL     1      -6.478  12.470  20.980  0.00  0.00    +0.000 N 
ATOM     18  C   UNL     1      -7.607  12.185  20.113  0.00  0.00    +0.000 C 
ATOM     19  C   UNL     1      -5.128  12.707  20.674  0.00  0.00    +0.000 A 
ENDBRANCH   3  14
BRANCH  11  20
ATOM     20  C   UNL     1       0.112  10.111  18.396  0.00  0.00    +0.000 C 
BRANCH  20  21
ATOM     21  C   UNL     1       1.225   9.126  18.457  0.00  0.00    +0.000 A 
ATOM     22  C   UNL     1       2.208   8.739  17.572  0.00  0.00    +0.000 A 
ATOM     23  C   UNL     1       2.939   7.712  18.213  0.00  0.00    +0.000 A 
ATOM     24  C   UNL     1       2.361   7.538  19.448  0.00  0.00    +0.000 A 
ATOM     25  O   UNL     1       1.323   8.397  19.610  0.00  0.00    +0.000 OA
ENDBRANCH  20  21
ENDBRANCH  11  20
TORSDOF 3
ENDMDL
MODEL 9
REMARK VINA RESULT:      -5.6      1.925      2.286
REMARK  Name = 
REMARK  5 active torsions:
REMARK  status: ('A' for Active; 'I' for Inactive)
REMARK    1  A    between atoms: C_1  and  C_2
REMARK    2  A    between atoms: N_3  and  C_4
REMARK    3  A    between atoms: N_7  and  C_8
REMARK    4  A    between atoms: N_17  and  C_18
REMARK    5  A    between atoms: C_18  and  C_19
REMARK                            x       y       z     vdW  Elec       q    Type
REMARK                         _______ _______ _______ _____ _____    ______ ____
ROOT
ATOM      1  C   UNL     1      -0.827  10.494  23.054  0.00  0.00    +0.000 C 
ATOM      2  C   UNL     1      -0.619  11.855  22.241  0.00  0.00    +0.000 C 
ATOM      3  N   UNL     1      -0.863  13.292  22.650  0.00  0.00    +0.000 N 
ATOM      4  C   UNL     1       0.245  14.112  22.263  0.00  0.00    +0.000 C 
ATOM      5  O   UNL     1       0.559  15.186  22.782  0.00  0.00    +0.000 OA
ATOM      6  C   UNL     1       0.971  13.650  20.969  0.00  0.00    +0.000 C 
ATOM      7  O   UNL     1       0.837  12.345  20.422  0.00  0.00    +0.000 OA
ATOM      8  C   UNL     1      -0.434  11.715  20.698  0.00  0.00    +0.000 C 
ATOM      9  C   UNL     1      -1.543  12.397  19.875  0.00  0.00    +0.000 C 
ATOM     10  C   UNL     1      -1.342  12.141  18.371  0.00  0.00    +0.000 C 
ATOM     11  N   UNL     1      -1.272  10.715  18.016  0.00  0.00    +0.000 NA
ATOM     12  C   UNL     1      -0.158  10.095  18.744  0.00  0.00    +0.000 C 
ATOM     13  C   UNL     1      -0.301  10.245  20.248  0.00  0.00    +0.000 C 
ENDROOT
BRANCH   3  14
ATOM     14  C   UNL     1      -1.995  14.134  22.997  0.00  0.00    +0.000 A 
ATOM     15  C   UNL     1      -3.085  14.427  22.116  0.00  0.00    +0.000 A 
ATOM     16  N   UNL     1      -4.049  15.173  22.648  0.00  0.00    +0.000 NA
ATOM     17  N   UNL     1      -3.627  15.394  23.898  0.00  0.00    +0.000 N 
ATOM     18  C   UNL     1      -4.426  16.278  24.726  0.00  0.00    +0.000 C 
ATOM     19  C   UNL     1      -2.415  14.737  24.168  0.00  0.00    +0.000 A 
ENDBRANCH   3  14
BRANCH  11  20
ATOM     20  C   UNL     1      -2.581  10.060  18.211  0.00  0.00    +0.000 C 
BRANCH  20  21
ATOM     21  C   UNL     1      -3.752  10.863  17.766  0.00  0.00    +0.000 A 
ATOM     22  C   UNL     1      -4.190  11.316  16.540  0.00  0.00    +0.000 A 
ATOM     23  C   UNL     1      -5.357  12.076  16.790  0.00  0.00    +0.000 A 
ATOM     24  C   UNL     1      -5.561  12.037  18.149  0.00  0.00    +0.000 A 
ATOM     25  O   UNL     1      -4.596  11.296  18.752  0.00  0.00    +0.000 OA
ENDBRANCH  20  21
ENDBRANCH  11  20
TORSDOF 3
ENDMDL
