MODEL 1
REMARK VINA RESULT:      -7.5      0.000      0.000
REMARK  Name = 
REMARK  11 active torsions:
REMARK  status: ('A' for Active; 'I' for Inactive)
REMARK    1  A    between atoms: C_1  and  O_2
REMARK    2  A    between atoms: O_2  and  C_3
REMARK    3  A    between atoms: C_6  and  C_7
REMARK    4  A    between atoms: N_9  and  C_10
REMARK    5  A    between atoms: C_15  and  C_16
REMARK    6  A    between atoms: C_18  and  C_19
REMARK    7  A    between atoms: C_19  and  N_20
REMARK    8  A    between atoms: N_20  and  C_21
REMARK    9  A    between atoms: N_20  and  C_22
REMARK   10  A    between atoms: C_22  and  C_23
REMARK   11  A    between atoms: N_26  and  C_27
REMARK                            x       y       z     vdW  Elec       q    Type
REMARK                         _______ _______ _______ _____ _____    ______ ____
ROOT
ATOM      1  C   UNL     1      -0.147   9.860  18.826  0.00  0.00    +0.000 A 
ATOM      2  N   UNL     1       0.552   8.893  18.219  0.00  0.00    +0.000 NA
ATOM      3  N   UNL     1       1.549   8.566  19.066  0.00  0.00    +0.000 N 
ATOM      4  C   UNL     1       1.474   9.300  20.224  0.00  0.00    +0.000 A 
ATOM      5  C   UNL     1       0.488  10.249  20.048  0.00  0.00    +0.000 A 
ENDROOT
BRANCH   1   9
ATOM      6  C   UNL     1      -3.773  11.309  17.036  0.00  0.00    +0.000 A 
ATOM      7  C   UNL     1      -3.322  11.837  18.246  0.00  0.00    +0.000 A 
ATOM      8  C   UNL     1      -2.140  11.372  18.834  0.00  0.00    +0.000 A 
ATOM      9  C   UNL     1      -1.369  10.383  18.206  0.00  0.00    +0.000 A 
ATOM     10  C   UNL     1      -1.829   9.851  16.995  0.00  0.00    +0.000 A 
ATOM     11  C   UNL     1      -3.016  10.308  16.422  0.00  0.00    +0.000 A 
ATOM     12  F   UNL     1      -3.402   9.747  15.268  0.00  0.00    +0.000 F 
BRANCH   6  14
ATOM     13  C   UNL     1      -5.838  12.355  17.582  0.00  0.00    +0.000 C 
ATOM     14  O   UNL     1      -4.946  11.853  16.593  0.00  0.00    +0.000 OA
ENDBRANCH   6  14
ENDBRANCH   1   9
BRANCH   3  15
ATOM     15  C   UNL     1       2.511   7.564  18.749  0.00  0.00    +0.000 A 
ATOM     16  C   UNL     1       3.360   7.788  17.649  0.00  0.00    +0.000 A 
ATOM     17  C   UNL     1       4.345   6.858  17.316  0.00  0.00    +0.000 A 
ATOM     18  C   UNL     1       4.480   5.693  18.061  0.00  0.00    +0.000 A 
ATOM     19  C   UNL     1       3.624   5.449  19.137  0.00  0.00    +0.000 A 
ATOM     20  C   UNL     1       2.622   6.371  19.494  0.00  0.00    +0.000 A 
ATOM     21  C   UNL     1       1.684   5.991  20.610  0.00  0.00    +0.000 C 
ENDBRANCH   3  15
BRANCH   5  22
ATOM     22  C   UNL     1       0.181  11.433  20.913  0.00  0.00    +0.000 C 
BRANCH  22  23
ATOM     23  N   UNL     1      -0.892  11.138  21.883  0.00  0.00    +0.000 NA
ATOM     24  C   UNL     1      -0.470  10.144  22.884  0.00  0.00    +0.000 C 
BRANCH  23  25
ATOM     25  C   UNL     1      -1.293  12.403  22.535  0.00  0.00    +0.000 C 
BRANCH  25  26
ATOM     26  C   UNL     1      -2.766  12.467  22.743  0.00  0.00    +0.000 A 
ATOM     27  C   UNL     1      -3.491  12.254  23.938  0.00  0.00    +0.000 A 
ATOM     28  N   UNL     1      -4.803  12.455  23.788  0.00  0.00    +0.000 NA
ATOM     29  N   UNL     1      -4.922  12.810  22.497  0.00  0.00    +0.000 N 
ATOM     30  C   UNL     1      -6.192  13.261  21.982  0.00  0.00    +0.000 C 
ATOM     31  C   UNL     1      -3.741  12.776  21.814  0.00  0.00    +0.000 A 
ENDBRANCH  25  26
ENDBRANCH  23  25
ENDBRANCH  22  23
ENDBRANCH   5  22
TORSDOF 7
ENDMDL
MODEL 2
REMARK VINA RESULT:      -7.5      2.013      2.768
REMARK  Name = 
REMARK  11 active torsions:
REMARK  status: ('A' for Active; 'I' for Inactive)
REMARK    1  A    between atoms: C_1  and  O_2
REMARK    2  A    between atoms: O_2  and  C_3
REMARK    3  A    between atoms: C_6  and  C_7
REMARK    4  A    between atoms: N_9  and  C_10
REMARK    5  A    between atoms: C_15  and  C_16
REMARK    6  A    between atoms: C_18  and  C_19
REMARK    7  A    between atoms: C_19  and  N_20
REMARK    8  A    between atoms: N_20  and  C_21
REMARK    9  A    between atoms: N_20  and  C_22
REMARK   10  A    between atoms: C_22  and  C_23
REMARK   11  A    between atoms: N_26  and  C_27
REMARK                            x       y       z     vdW  Elec       q    Type
REMARK                         _______ _______ _______ _____ _____    ______ ____
ROOT
ATOM      1  C   UNL     1      -1.822  11.490  19.081  0.00  0.00    +0.000 A 
ATOM      2  N   UNL     1      -1.211  10.354  18.720  0.00  0.00    +0.000 NA
ATOM      3  N   UNL     1      -0.005  10.373  19.321  0.00  0.00    +0.000 N 
ATOM      4  C   UNL     1       0.148  11.502  20.088  0.00  0.00    +0.000 A 
ATOM      5  C   UNL     1      -0.937  12.317  19.841  0.00  0.00    +0.000 A 
ENDROOT
BRANCH   1   9
ATOM      6  C   UNL     1      -5.856  12.329  17.866  0.00  0.00    +0.000 A 
ATOM      7  C   UNL     1      -4.942  11.791  16.960  0.00  0.00    +0.000 A 
ATOM      8  C   UNL     1      -3.626  11.513  17.349  0.00  0.00    +0.000 A 
ATOM      9  C   UNL     1      -3.206  11.743  18.667  0.00  0.00    +0.000 A 
ATOM     10  C   UNL     1      -4.125  12.289  19.572  0.00  0.00    +0.000 A 
ATOM     11  C   UNL     1      -5.430  12.579  19.172  0.00  0.00    +0.000 A 
ATOM     12  F   UNL     1      -6.253  13.110  20.088  0.00  0.00    +0.000 F 
BRANCH   6  14
ATOM     13  C   UNL     1      -7.335  13.851  16.793  0.00  0.00    +0.000 C 
ATOM     14  O   UNL     1      -7.096  12.558  17.338  0.00  0.00    +0.000 OA
ENDBRANCH   6  14
ENDBRANCH   1   9
BRANCH   3  15
ATOM     15  C   UNL     1       0.937   9.316  19.158  0.00  0.00    +0.000 A 
ATOM     16  C   UNL     1       1.587   9.196  17.915  0.00  0.00    +0.000 A 
ATOM     17  C   UNL     1       2.545   8.203  17.713  0.00  0.00    +0.000 A 
ATOM     18  C   UNL     1       2.848   7.312  18.735  0.00  0.00    +0.000 A 
ATOM     19  C   UNL     1       2.189   7.406  19.962  0.00  0.00    +0.000 A 
ATOM     20  C   UNL     1       1.218   8.398  20.193  0.00  0.00    +0.000 A 
ATOM     21  C   UNL     1       0.490   8.375  21.511  0.00  0.00    +0.000 C 
ENDBRANCH   3  15
BRANCH   5  22
ATOM     22  C   UNL     1      -1.125  13.749  20.242  0.00  0.00    +0.000 C 
BRANCH  22  23
ATOM     23  N   UNL     1      -1.047  13.922  21.706  0.00  0.00    +0.000 NA
ATOM     24  C   UNL     1       0.191  14.606  22.114  0.00  0.00    +0.000 C 
BRANCH  23  25
ATOM     25  C   UNL     1      -2.238  14.678  22.151  0.00  0.00    +0.000 C 
BRANCH  25  26
ATOM     26  C   UNL     1      -3.251  13.783  22.774  0.00  0.00    +0.000 A 
ATOM     27  C   UNL     1      -3.038  12.563  23.457  0.00  0.00    +0.000 A 
ATOM     28  N   UNL     1      -4.166  12.046  23.952  0.00  0.00    +0.000 NA
ATOM     29  N   UNL     1      -5.105  12.940  23.600  0.00  0.00    +0.000 N 
ATOM     30  C   UNL     1      -6.455  12.808  24.091  0.00  0.00    +0.000 C 
ATOM     31  C   UNL     1      -4.619  13.968  22.845  0.00  0.00    +0.000 A 
ENDBRANCH  25  26
ENDBRANCH  23  25
ENDBRANCH  22  23
ENDBRANCH   5  22
TORSDOF 7
ENDMDL
MODEL 3
REMARK VINA RESULT:      -7.4      4.174      7.437
REMARK  Name = 
REMARK  11 active torsions:
REMARK  status: ('A' for Active; 'I' for Inactive)
REMARK    1  A    between atoms: C_1  and  O_2
REMARK    2  A    between atoms: O_2  and  C_3
REMARK    3  A    between atoms: C_6  and  C_7
REMARK    4  A    between atoms: N_9  and  C_10
REMARK    5  A    between atoms: C_15  and  C_16
REMARK    6  A    between atoms: C_18  and  C_19
REMARK    7  A    between atoms: C_19  and  N_20
REMARK    8  A    between atoms: N_20  and  C_21
REMARK    9  A    between atoms: N_20  and  C_22
REMARK   10  A    between atoms: C_22  and  C_23
REMARK   11  A    between atoms: N_26  and  C_27
REMARK                            x       y       z     vdW  Elec       q    Type
REMARK                         _______ _______ _______ _____ _____    ______ ____
ROOT
ATOM      1  C   UNL     1       0.155  10.409  18.879  0.00  0.00    +0.000 A 
ATOM      2  N   UNL     1      -1.162  10.244  18.694  0.00  0.00    +0.000 NA
ATOM      3  N   UNL     1      -1.671  11.479  18.519  0.00  0.00    +0.000 N 
ATOM      4  C   UNL     1      -0.683  12.433  18.562  0.00  0.00    +0.000 A 
ATOM      5  C   UNL     1       0.483  11.800  18.941  0.00  0.00    +0.000 A 
ENDROOT
BRANCH   1   9
ATOM      6  C   UNL     1       2.797   7.045  19.270  0.00  0.00    +0.000 A 
ATOM      7  C   UNL     1       1.990   7.438  20.337  0.00  0.00    +0.000 A 
ATOM      8  C   UNL     1       1.125   8.532  20.217  0.00  0.00    +0.000 A 
ATOM      9  C   UNL     1       1.030   9.240  19.010  0.00  0.00    +0.000 A 
ATOM     10  C   UNL     1       1.847   8.847  17.943  0.00  0.00    +0.000 A 
ATOM     11  C   UNL     1       2.719   7.766  18.075  0.00  0.00    +0.000 A 
ATOM     12  F   UNL     1       3.479   7.451  17.016  0.00  0.00    +0.000 F 
BRANCH   6  14
ATOM     13  C   UNL     1       3.171   4.708  19.044  0.00  0.00    +0.000 C 
ATOM     14  O   UNL     1       3.598   5.971  19.541  0.00  0.00    +0.000 OA
ENDBRANCH   6  14
ENDBRANCH   1   9
BRANCH   3  15
ATOM     15  C   UNL     1      -3.062  11.699  18.300  0.00  0.00    +0.000 A 
ATOM     16  C   UNL     1      -3.839  12.147  19.385  0.00  0.00    +0.000 A 
ATOM     17  C   UNL     1      -5.198  12.413  19.218  0.00  0.00    +0.000 A 
ATOM     18  C   UNL     1      -5.796  12.218  17.979  0.00  0.00    +0.000 A 
ATOM     19  C   UNL     1      -5.040  11.748  16.904  0.00  0.00    +0.000 A 
ATOM     20  C   UNL     1      -3.667  11.471  17.046  0.00  0.00    +0.000 A 
ATOM     21  C   UNL     1      -2.944  10.882  15.863  0.00  0.00    +0.000 C 
ENDBRANCH   3  15
BRANCH   5  22
ATOM     22  C   UNL     1       1.778  12.426  19.360  0.00  0.00    +0.000 C 
BRANCH  22  23
ATOM     23  N   UNL     1       1.603  13.842  19.739  0.00  0.00    +0.000 NA
ATOM     24  C   UNL     1       2.080  14.109  21.106  0.00  0.00    +0.000 C 
BRANCH  23  25
ATOM     25  C   UNL     1       2.324  14.681  18.758  0.00  0.00    +0.000 C 
BRANCH  25  26
ATOM     26  C   UNL     1       1.639  15.987  18.548  0.00  0.00    +0.000 A 
ATOM     27  C   UNL     1       2.216  17.234  18.218  0.00  0.00    +0.000 A 
ATOM     28  N   UNL     1       1.304  18.193  18.037  0.00  0.00    +0.000 NA
ATOM     29  N   UNL     1       0.136  17.559  18.238  0.00  0.00    +0.000 N 
ATOM     30  C   UNL     1      -1.112  18.236  17.982  0.00  0.00    +0.000 C 
ATOM     31  C   UNL     1       0.284  16.252  18.604  0.00  0.00    +0.000 A 
ENDBRANCH  25  26
ENDBRANCH  23  25
ENDBRANCH  22  23
ENDBRANCH   5  22
TORSDOF 7
ENDMDL
MODEL 4
REMARK VINA RESULT:      -7.4      1.461      1.915
REMARK  Name = 
REMARK  11 active torsions:
REMARK  status: ('A' for Active; 'I' for Inactive)
REMARK    1  A    between atoms: C_1  and  O_2
REMARK    2  A    between atoms: O_2  and  C_3
REMARK    3  A    between atoms: C_6  and  C_7
REMARK    4  A    between atoms: N_9  and  C_10
REMARK    5  A    between atoms: C_15  and  C_16
REMARK    6  A    between atoms: C_18  and  C_19
REMARK    7  A    between atoms: C_19  and  N_20
REMARK    8  A    between atoms: N_20  and  C_21
REMARK    9  A    between atoms: N_20  and  C_22
REMARK   10  A    between atoms: C_22  and  C_23
REMARK   11  A    between atoms: N_26  and  C_27
REMARK                            x       y       z     vdW  Elec       q    Type
REMARK                         _______ _______ _______ _____ _____    ______ ____
ROOT
ATOM      1  C   UNL     1      -0.631  10.741  18.329  0.00  0.00    +0.000 A 
ATOM      2  N   UNL     1      -0.132   9.510  18.159  0.00  0.00    +0.000 NA
ATOM      3  N   UNL     1       1.107   9.533  18.689  0.00  0.00    +0.000 N 
ATOM      4  C   UNL     1       1.393  10.766  19.223  0.00  0.00    +0.000 A 
ATOM      5  C   UNL     1       0.360  11.613  18.879  0.00  0.00    +0.000 A 
ENDROOT
BRANCH   1   9
ATOM      6  C   UNL     1      -4.706  11.499  17.200  0.00  0.00    +0.000 A 
ATOM      7  C   UNL     1      -4.237  11.883  18.456  0.00  0.00    +0.000 A 
ATOM      8  C   UNL     1      -2.910  11.641  18.831  0.00  0.00    +0.000 A 
ATOM      9  C   UNL     1      -2.015  11.032  17.939  0.00  0.00    +0.000 A 
ATOM     10  C   UNL     1      -2.491  10.642  16.682  0.00  0.00    +0.000 A 
ATOM     11  C   UNL     1      -3.819  10.872  16.321  0.00  0.00    +0.000 A 
ATOM     12  F   UNL     1      -4.209  10.463  15.106  0.00  0.00    +0.000 F 
BRANCH   6  14
ATOM     13  C   UNL     1      -6.524  12.988  17.566  0.00  0.00    +0.000 C 
ATOM     14  O   UNL     1      -6.024  11.789  16.984  0.00  0.00    +0.000 OA
ENDBRANCH   6  14
ENDBRANCH   1   9
BRANCH   3  15
ATOM     15  C   UNL     1       1.953   8.387  18.683  0.00  0.00    +0.000 A 
ATOM     16  C   UNL     1       2.734   8.148  17.536  0.00  0.00    +0.000 A 
ATOM     17  C   UNL     1       3.608   7.062  17.490  0.00  0.00    +0.000 A 
ATOM     18  C   UNL     1       3.697   6.197  18.573  0.00  0.00    +0.000 A 
ATOM     19  C   UNL     1       2.906   6.409  19.704  0.00  0.00    +0.000 A 
ATOM     20  C   UNL     1       2.017   7.497  19.776  0.00  0.00    +0.000 A 
ATOM     21  C   UNL     1       1.135   7.604  20.993  0.00  0.00    +0.000 C 
ENDBRANCH   3  15
BRANCH   5  22
ATOM     22  C   UNL     1       0.306  13.105  19.013  0.00  0.00    +0.000 C 
BRANCH  22  23
ATOM     23  N   UNL     1       0.381  13.529  20.425  0.00  0.00    +0.000 NA
ATOM     24  C   UNL     1       1.469  14.494  20.653  0.00  0.00    +0.000 C 
BRANCH  23  25
ATOM     25  C   UNL     1      -0.925  14.110  20.808  0.00  0.00    +0.000 C 
BRANCH  25  26
ATOM     26  C   UNL     1      -1.613  13.277  21.833  0.00  0.00    +0.000 A 
ATOM     27  C   UNL     1      -1.120  12.135  22.505  0.00  0.00    +0.000 A 
ATOM     28  N   UNL     1      -1.976  11.665  23.417  0.00  0.00    +0.000 NA
ATOM     29  N   UNL     1      -3.015  12.512  23.341  0.00  0.00    +0.000 N 
ATOM     30  C   UNL     1      -4.097  12.423  24.291  0.00  0.00    +0.000 C 
ATOM     31  C   UNL     1      -2.873  13.460  22.369  0.00  0.00    +0.000 A 
ENDBRANCH  25  26
ENDBRANCH  23  25
ENDBRANCH  22  23
ENDBRANCH   5  22
TORSDOF 7
ENDMDL
MODEL 5
REMARK VINA RESULT:      -7.4      4.179      7.393
REMARK  Name = 
REMARK  11 active torsions:
REMARK  status: ('A' for Active; 'I' for Inactive)
REMARK    1  A    between atoms: C_1  and  O_2
REMARK    2  A    between atoms: O_2  and  C_3
REMARK    3  A    between atoms: C_6  and  C_7
REMARK    4  A    between atoms: N_9  and  C_10
REMARK    5  A    between atoms: C_15  and  C_16
REMARK    6  A    between atoms: C_18  and  C_19
REMARK    7  A    between atoms: C_19  and  N_20
REMARK    8  A    between atoms: N_20  and  C_21
REMARK    9  A    between atoms: N_20  and  C_22
REMARK   10  A    between atoms: C_22  and  C_23
REMARK   11  A    between atoms: N_26  and  C_27
REMARK                            x       y       z     vdW  Elec       q    Type
REMARK                         _______ _______ _______ _____ _____    ______ ____
ROOT
ATOM      1  C   UNL     1       0.228  10.507  18.708  0.00  0.00    +0.000 A 
ATOM      2  N   UNL     1      -1.093  10.314  18.609  0.00  0.00    +0.000 NA
ATOM      3  N   UNL     1      -1.636  11.534  18.425  0.00  0.00    +0.000 N 
ATOM      4  C   UNL     1      -0.665  12.505  18.377  0.00  0.00    +0.000 A 
ATOM      5  C   UNL     1       0.533  11.905  18.705  0.00  0.00    +0.000 A 
ENDROOT
BRANCH   1   9
ATOM      6  C   UNL     1       2.799   7.081  19.030  0.00  0.00    +0.000 A 
ATOM      7  C   UNL     1       2.836   7.888  17.893  0.00  0.00    +0.000 A 
ATOM      8  C   UNL     1       2.003   9.007  17.782  0.00  0.00    +0.000 A 
ATOM      9  C   UNL     1       1.132   9.358  18.824  0.00  0.00    +0.000 A 
ATOM     10  C   UNL     1       1.093   8.542  19.961  0.00  0.00    +0.000 A 
ATOM     11  C   UNL     1       1.915   7.418  20.058  0.00  0.00    +0.000 A 
ATOM     12  F   UNL     1       1.818   6.676  21.170  0.00  0.00    +0.000 F 
BRANCH   6  14
ATOM     13  C   UNL     1       3.098   4.748  18.681  0.00  0.00    +0.000 C 
ATOM     14  O   UNL     1       3.659   6.019  18.989  0.00  0.00    +0.000 OA
ENDBRANCH   6  14
ENDBRANCH   1   9
BRANCH   3  15
ATOM     15  C   UNL     1      -3.041  11.722  18.284  0.00  0.00    +0.000 A 
ATOM     16  C   UNL     1      -3.767  12.152  19.411  0.00  0.00    +0.000 A 
ATOM     17  C   UNL     1      -5.138  12.389  19.320  0.00  0.00    +0.000 A 
ATOM     18  C   UNL     1      -5.800  12.180  18.116  0.00  0.00    +0.000 A 
ATOM     19  C   UNL     1      -5.094  11.727  17.001  0.00  0.00    +0.000 A 
ATOM     20  C   UNL     1      -3.710  11.482  17.065  0.00  0.00    +0.000 A 
ATOM     21  C   UNL     1      -3.041  10.909  15.843  0.00  0.00    +0.000 C 
ENDBRANCH   3  15
BRANCH   5  22
ATOM     22  C   UNL     1       1.839  12.567  19.024  0.00  0.00    +0.000 C 
BRANCH  22  23
ATOM     23  N   UNL     1       1.643  13.893  19.644  0.00  0.00    +0.000 NA
ATOM     24  C   UNL     1       2.272  13.978  20.972  0.00  0.00    +0.000 C 
BRANCH  23  25
ATOM     25  C   UNL     1       2.194  14.920  18.734  0.00  0.00    +0.000 C 
BRANCH  25  26
ATOM     26  C   UNL     1       1.288  16.096  18.627  0.00  0.00    +0.000 A 
ATOM     27  C   UNL     1       1.562  17.362  18.060  0.00  0.00    +0.000 A 
ATOM     28  N   UNL     1       0.499  18.172  18.068  0.00  0.00    +0.000 NA
ATOM     29  N   UNL     1      -0.464  17.422  18.629  0.00  0.00    +0.000 N 
ATOM     30  C   UNL     1      -1.824  17.902  18.677  0.00  0.00    +0.000 C 
ATOM     31  C   UNL     1      -0.029  16.193  19.034  0.00  0.00    +0.000 A 
ENDBRANCH  25  26
ENDBRANCH  23  25
ENDBRANCH  22  23
ENDBRANCH   5  22
TORSDOF 7
ENDMDL
MODEL 6
REMARK VINA RESULT:      -7.4      2.235      3.094
REMARK  Name = 
REMARK  11 active torsions:
REMARK  status: ('A' for Active; 'I' for Inactive)
REMARK    1  A    between atoms: C_1  and  O_2
REMARK    2  A    between atoms: O_2  and  C_3
REMARK    3  A    between atoms: C_6  and  C_7
REMARK    4  A    between atoms: N_9  and  C_10
REMARK    5  A    between atoms: C_15  and  C_16
REMARK    6  A    between atoms: C_18  and  C_19
REMARK    7  A    between atoms: C_19  and  N_20
REMARK    8  A    between atoms: N_20  and  C_21
REMARK    9  A    between atoms: N_20  and  C_22
REMARK   10  A    between atoms: C_22  and  C_23
REMARK   11  A    between atoms: N_26  and  C_27
REMARK                            x       y       z     vdW  Elec       q    Type
REMARK                         _______ _______ _______ _____ _____    ______ ____
ROOT
ATOM      1  C   UNL     1       1.694   9.089  19.037  0.00  0.00    +0.000 A 
ATOM      2  N   UNL     1       2.327   8.443  18.049  0.00  0.00    +0.000 NA
ATOM      3  N   UNL     1       2.702   7.255  18.561  0.00  0.00    +0.000 N 
ATOM      4  C   UNL     1       2.288   7.124  19.864  0.00  0.00    +0.000 A 
ATOM      5  C   UNL     1       1.768   8.341  20.254  0.00  0.00    +0.000 A 
ENDROOT
BRANCH   1   9
ATOM      6  C   UNL     1      -0.169  12.904  18.383  0.00  0.00    +0.000 A 
ATOM      7  C   UNL     1       1.203  12.818  18.619  0.00  0.00    +0.000 A 
ATOM      8  C   UNL     1       1.817  11.578  18.831  0.00  0.00    +0.000 A 
ATOM      9  C   UNL     1       1.071  10.392  18.783  0.00  0.00    +0.000 A 
ATOM     10  C   UNL     1      -0.307  10.483  18.552  0.00  0.00    +0.000 A 
ATOM     11  C   UNL     1      -0.915  11.723  18.358  0.00  0.00    +0.000 A 
ATOM     12  F   UNL     1      -2.240  11.736  18.152  0.00  0.00    +0.000 F 
BRANCH   6  14
ATOM     13  C   UNL     1      -0.045  15.190  19.025  0.00  0.00    +0.000 C 
ATOM     14  O   UNL     1      -0.626  14.180  18.208  0.00  0.00    +0.000 OA
ENDBRANCH   6  14
ENDBRANCH   1   9
BRANCH   3  15
ATOM     15  C   UNL     1       3.417   6.292  17.791  0.00  0.00    +0.000 A 
ATOM     16  C   UNL     1       4.563   6.721  17.095  0.00  0.00    +0.000 A 
ATOM     17  C   UNL     1       5.321   5.814  16.356  0.00  0.00    +0.000 A 
ATOM     18  C   UNL     1       4.936   4.481  16.287  0.00  0.00    +0.000 A 
ATOM     19  C   UNL     1       3.785   4.051  16.951  0.00  0.00    +0.000 A 
ATOM     20  C   UNL     1       3.002   4.946  17.704  0.00  0.00    +0.000 A 
ATOM     21  C   UNL     1       1.729   4.422  18.315  0.00  0.00    +0.000 C 
ENDBRANCH   3  15
BRANCH   5  22
ATOM     22  C   UNL     1       1.404   8.788  21.638  0.00  0.00    +0.000 C 
BRANCH  22  23
ATOM     23  N   UNL     1       0.006   9.257  21.711  0.00  0.00    +0.000 NA
ATOM     24  C   UNL     1      -0.953   8.145  21.593  0.00  0.00    +0.000 C 
BRANCH  23  25
ATOM     25  C   UNL     1      -0.179   9.978  22.989  0.00  0.00    +0.000 C 
BRANCH  25  26
ATOM     26  C   UNL     1      -0.868  11.282  22.784  0.00  0.00    +0.000 A 
ATOM     27  C   UNL     1      -0.428  12.394  22.029  0.00  0.00    +0.000 A 
ATOM     28  N   UNL     1      -1.325  13.384  22.000  0.00  0.00    +0.000 NA
ATOM     29  N   UNL     1      -2.349  12.904  22.725  0.00  0.00    +0.000 N 
ATOM     30  C   UNL     1      -3.591  13.634  22.802  0.00  0.00    +0.000 C 
ATOM     31  C   UNL     1      -2.102  11.675  23.265  0.00  0.00    +0.000 A 
ENDBRANCH  25  26
ENDBRANCH  23  25
ENDBRANCH  22  23
ENDBRANCH   5  22
TORSDOF 7
ENDMDL
MODEL 7
REMARK VINA RESULT:      -7.3      3.143      6.913
REMARK  Name = 
REMARK  11 active torsions:
REMARK  status: ('A' for Active; 'I' for Inactive)
REMARK    1  A    between atoms: C_1  and  O_2
REMARK    2  A    between atoms: O_2  and  C_3
REMARK    3  A    between atoms: C_6  and  C_7
REMARK    4  A    between atoms: N_9  and  C_10
REMARK    5  A    between atoms: C_15  and  C_16
REMARK    6  A    between atoms: C_18  and  C_19
REMARK    7  A    between atoms: C_19  and  N_20
REMARK    8  A    between atoms: N_20  and  C_21
REMARK    9  A    between atoms: N_20  and  C_22
REMARK   10  A    between atoms: C_22  and  C_23
REMARK   11  A    between atoms: N_26  and  C_27
REMARK                            x       y       z     vdW  Elec       q    Type
REMARK                         _______ _______ _______ _____ _____    ______ ____
ROOT
ATOM      1  C   UNL     1       0.342  10.301  19.442  0.00  0.00    +0.000 A 
ATOM      2  N   UNL     1       0.658  11.171  20.410  0.00  0.00    +0.000 NA
ATOM      3  N   UNL     1      -0.411  11.980  20.547  0.00  0.00    +0.000 N 
ATOM      4  C   UNL     1      -1.421  11.616  19.691  0.00  0.00    +0.000 A 
ATOM      5  C   UNL     1      -0.921  10.635  18.859  0.00  0.00    +0.000 A 
ENDROOT
BRANCH   1   9
ATOM      6  C   UNL     1       2.963   7.052  18.432  0.00  0.00    +0.000 A 
ATOM      7  C   UNL     1       2.785   8.117  17.550  0.00  0.00    +0.000 A 
ATOM      8  C   UNL     1       1.934   9.180  17.873  0.00  0.00    +0.000 A 
ATOM      9  C   UNL     1       1.263   9.211  19.103  0.00  0.00    +0.000 A 
ATOM     10  C   UNL     1       1.439   8.137  19.984  0.00  0.00    +0.000 A 
ATOM     11  C   UNL     1       2.276   7.072  19.649  0.00  0.00    +0.000 A 
ATOM     12  F   UNL     1       2.390   6.073  20.535  0.00  0.00    +0.000 F 
BRANCH   6  14
ATOM     13  C   UNL     1       5.102   6.507  17.546  0.00  0.00    +0.000 C 
ATOM     14  O   UNL     1       3.812   6.083  17.974  0.00  0.00    +0.000 OA
ENDBRANCH   6  14
ENDBRANCH   1   9
BRANCH   3  15
ATOM     15  C   UNL     1      -0.435  13.047  21.492  0.00  0.00    +0.000 A 
ATOM     16  C   UNL     1       0.304  14.208  21.196  0.00  0.00    +0.000 A 
ATOM     17  C   UNL     1       0.286  15.297  22.067  0.00  0.00    +0.000 A 
ATOM     18  C   UNL     1      -0.448  15.231  23.245  0.00  0.00    +0.000 A 
ATOM     19  C   UNL     1      -1.160  14.074  23.561  0.00  0.00    +0.000 A 
ATOM     20  C   UNL     1      -1.160  12.961  22.699  0.00  0.00    +0.000 A 
ATOM     21  C   UNL     1      -1.881  11.719  23.155  0.00  0.00    +0.000 C 
ENDBRANCH   3  15
BRANCH   5  22
ATOM     22  C   UNL     1      -1.540  10.079  17.612  0.00  0.00    +0.000 C 
BRANCH  22  23
ATOM     23  N   UNL     1      -2.643  10.931  17.124  0.00  0.00    +0.000 NA
ATOM     24  C   UNL     1      -2.718  10.943  15.653  0.00  0.00    +0.000 C 
BRANCH  23  25
ATOM     25  C   UNL     1      -3.908  10.437  17.710  0.00  0.00    +0.000 C 
BRANCH  25  26
ATOM     26  C   UNL     1      -4.831  11.559  18.037  0.00  0.00    +0.000 A 
ATOM     27  C   UNL     1      -5.695  12.263  17.167  0.00  0.00    +0.000 A 
ATOM     28  N   UNL     1      -6.438  13.172  17.803  0.00  0.00    +0.000 NA
ATOM     29  N   UNL     1      -6.062  13.046  19.087  0.00  0.00    +0.000 N 
ATOM     30  C   UNL     1      -6.760  13.767  20.123  0.00  0.00    +0.000 C 
ATOM     31  C   UNL     1      -5.063  12.135  19.272  0.00  0.00    +0.000 A 
ENDBRANCH  25  26
ENDBRANCH  23  25
ENDBRANCH  22  23
ENDBRANCH   5  22
TORSDOF 7
ENDMDL
MODEL 8
REMARK VINA RESULT:      -7.2      1.622      2.520
REMARK  Name = 
REMARK  11 active torsions:
REMARK  status: ('A' for Active; 'I' for Inactive)
REMARK    1  A    between atoms: C_1  and  O_2
REMARK    2  A    between atoms: O_2  and  C_3
REMARK    3  A    between atoms: C_6  and  C_7
REMARK    4  A    between atoms: N_9  and  C_10
REMARK    5  A    between atoms: C_15  and  C_16
REMARK    6  A    between atoms: C_18  and  C_19
REMARK    7  A    between atoms: C_19  and  N_20
REMARK    8  A    between atoms: N_20  and  C_21
REMARK    9  A    between atoms: N_20  and  C_22
REMARK   10  A    between atoms: C_22  and  C_23
REMARK   11  A    between atoms: N_26  and  C_27
REMARK                            x       y       z     vdW  Elec       q    Type
REMARK                         _______ _______ _______ _____ _____    ______ ____
ROOT
ATOM      1  C   UNL     1      -0.342  10.670  18.134  0.00  0.00    +0.000 A 
ATOM      2  N   UNL     1       0.102   9.408  18.070  0.00  0.00    +0.000 NA
ATOM      3  N   UNL     1       1.381   9.441  18.495  0.00  0.00    +0.000 N 
ATOM      4  C   UNL     1       1.749  10.713  18.858  0.00  0.00    +0.000 A 
ATOM      5  C   UNL     1       0.718  11.558  18.500  0.00  0.00    +0.000 A 
ENDROOT
BRANCH   1   9
ATOM      6  C   UNL     1      -4.467  11.460  17.235  0.00  0.00    +0.000 A 
ATOM      7  C   UNL     1      -3.929  11.830  18.468  0.00  0.00    +0.000 A 
ATOM      8  C   UNL     1      -2.585  11.578  18.767  0.00  0.00    +0.000 A 
ATOM      9  C   UNL     1      -1.743  10.973  17.823  0.00  0.00    +0.000 A 
ATOM     10  C   UNL     1      -2.289  10.597  16.590  0.00  0.00    +0.000 A 
ATOM     11  C   UNL     1      -3.633  10.836  16.304  0.00  0.00    +0.000 A 
ATOM     12  F   UNL     1      -4.091  10.441  15.108  0.00  0.00    +0.000 F 
BRANCH   6  14
ATOM     13  C   UNL     1      -6.313  12.794  17.921  0.00  0.00    +0.000 C 
ATOM     14  O   UNL     1      -5.794  11.759  17.094  0.00  0.00    +0.000 OA
ENDBRANCH   6  14
ENDBRANCH   1   9
BRANCH   3  15
ATOM     15  C   UNL     1       2.187   8.268  18.556  0.00  0.00    +0.000 A 
ATOM     16  C   UNL     1       2.996   7.963  17.444  0.00  0.00    +0.000 A 
ATOM     17  C   UNL     1       3.832   6.848  17.464  0.00  0.00    +0.000 A 
ATOM     18  C   UNL     1       3.856   6.018  18.578  0.00  0.00    +0.000 A 
ATOM     19  C   UNL     1       3.037   6.295  19.674  0.00  0.00    +0.000 A 
ATOM     20  C   UNL     1       2.184   7.415  19.680  0.00  0.00    +0.000 A 
ATOM     21  C   UNL     1       1.267   7.593  20.862  0.00  0.00    +0.000 C 
ENDBRANCH   3  15
BRANCH   5  22
ATOM     22  C   UNL     1       0.724  13.056  18.464  0.00  0.00    +0.000 C 
BRANCH  22  23
ATOM     23  N   UNL     1       0.968  13.634  19.801  0.00  0.00    +0.000 NA
ATOM     24  C   UNL     1       1.755  14.876  19.727  0.00  0.00    +0.000 C 
BRANCH  23  25
ATOM     25  C   UNL     1      -0.339  13.878  20.449  0.00  0.00    +0.000 C 
BRANCH  25  26
ATOM     26  C   UNL     1      -0.580  12.924  21.567  0.00  0.00    +0.000 A 
ATOM     27  C   UNL     1      -1.357  13.119  22.732  0.00  0.00    +0.000 A 
ATOM     28  N   UNL     1      -1.415  12.029  23.501  0.00  0.00    +0.000 NA
ATOM     29  N   UNL     1      -0.686  11.126  22.824  0.00  0.00    +0.000 N 
ATOM     30  C   UNL     1      -0.636   9.754  23.268  0.00  0.00    +0.000 C 
ATOM     31  C   UNL     1      -0.117  11.628  21.690  0.00  0.00    +0.000 A 
ENDBRANCH  25  26
ENDBRANCH  23  25
ENDBRANCH  22  23
ENDBRANCH   5  22
TORSDOF 7
ENDMDL
MODEL 9
REMARK VINA RESULT:      -7.2      4.283      7.615
REMARK  Name = 
REMARK  11 active torsions:
REMARK  status: ('A' for Active; 'I' for Inactive)
REMARK    1  A    between atoms: C_1  and  O_2
REMARK    2  A    between atoms: O_2  and  C_3
REMARK    3  A    between atoms: C_6  and  C_7
REMARK    4  A    between atoms: N_9  and  C_10
REMARK    5  A    between atoms: C_15  and  C_16
REMARK    6  A    between atoms: C_18  and  C_19
REMARK    7  A    between atoms: C_19  and  N_20
REMARK    8  A    between atoms: N_20  and  C_21
REMARK    9  A    between atoms: N_20  and  C_22
REMARK   10  A    between atoms: C_22  and  C_23
REMARK   11  A    between atoms: N_26  and  C_27
REMARK                            x       y       z     vdW  Elec       q    Type
REMARK                         _______ _______ _______ _____ _____    ______ ____
ROOT
ATOM      1  C   UNL     1       0.196  10.472  19.105  0.00  0.00    +0.000 A 
ATOM      2  N   UNL     1      -1.082  10.319  18.734  0.00  0.00    +0.000 NA
ATOM      3  N   UNL     1      -1.648  11.538  18.832  0.00  0.00    +0.000 N 
ATOM      4  C   UNL     1      -0.732  12.477  19.238  0.00  0.00    +0.000 A 
ATOM      5  C   UNL     1       0.428  11.806  19.568  0.00  0.00    +0.000 A 
ENDROOT
BRANCH   1   9
ATOM      6  C   UNL     1       2.843   7.099  18.845  0.00  0.00    +0.000 A 
ATOM      7  C   UNL     1       2.812   8.054  17.828  0.00  0.00    +0.000 A 
ATOM      8  C   UNL     1       1.954   9.157  17.907  0.00  0.00    +0.000 A 
ATOM      9  C   UNL     1       1.126   9.341  19.024  0.00  0.00    +0.000 A 
ATOM     10  C   UNL     1       1.154   8.377  20.039  0.00  0.00    +0.000 A 
ATOM     11  C   UNL     1       2.000   7.271  19.946  0.00  0.00    +0.000 A 
ATOM     12  F   UNL     1       1.968   6.383  20.949  0.00  0.00    +0.000 F 
BRANCH   6  14
ATOM     13  C   UNL     1       3.228   4.951  17.899  0.00  0.00    +0.000 C 
ATOM     14  O   UNL     1       3.719   6.075  18.622  0.00  0.00    +0.000 OA
ENDBRANCH   6  14
ENDBRANCH   1   9
BRANCH   3  15
ATOM     15  C   UNL     1      -3.020  11.761  18.521  0.00  0.00    +0.000 A 
ATOM     16  C   UNL     1      -3.457  11.472  17.214  0.00  0.00    +0.000 A 
ATOM     17  C   UNL     1      -4.797  11.637  16.865  0.00  0.00    +0.000 A 
ATOM     18  C   UNL     1      -5.707  12.107  17.805  0.00  0.00    +0.000 A 
ATOM     19  C   UNL     1      -5.277  12.423  19.095  0.00  0.00    +0.000 A 
ATOM     20  C   UNL     1      -3.931  12.265  19.473  0.00  0.00    +0.000 A 
ATOM     21  C   UNL     1      -3.533  12.713  20.856  0.00  0.00    +0.000 C 
ENDBRANCH   3  15
BRANCH   5  22
ATOM     22  C   UNL     1       1.632  12.340  20.283  0.00  0.00    +0.000 C 
BRANCH  22  23
ATOM     23  N   UNL     1       1.766  13.800  20.110  0.00  0.00    +0.000 NA
ATOM     24  C   UNL     1       2.457  14.427  21.249  0.00  0.00    +0.000 C 
BRANCH  23  25
ATOM     25  C   UNL     1       2.494  14.056  18.848  0.00  0.00    +0.000 C 
BRANCH  25  26
ATOM     26  C   UNL     1       2.305  15.459  18.385  0.00  0.00    +0.000 A 
ATOM     27  C   UNL     1       3.212  16.272  17.667  0.00  0.00    +0.000 A 
ATOM     28  N   UNL     1       2.697  17.464  17.352  0.00  0.00    +0.000 NA
ATOM     29  N   UNL     1       1.452  17.414  17.856  0.00  0.00    +0.000 N 
ATOM     30  C   UNL     1       0.515  18.476  17.584  0.00  0.00    +0.000 C 
ATOM     31  C   UNL     1       1.188  16.259  18.534  0.00  0.00    +0.000 A 
ENDBRANCH  25  26
ENDBRANCH  23  25
ENDBRANCH  22  23
ENDBRANCH   5  22
TORSDOF 7
ENDMDL
