MODEL 1
REMARK VINA RESULT:      -8.8      0.000      0.000
REMARK  Name = 
REMARK  15 active torsions:
REMARK  status: ('A' for Active; 'I' for Inactive)
REMARK    1  A    between atoms: C_1  and  C_2
REMARK    2  A    between atoms: C_2  and  C_3
REMARK    3  A    between atoms: C_2  and  O_4
REMARK    4  A    between atoms: C_2  and  C_5
REMARK    5  A    between atoms: C_5  and  C_6
REMARK    6  A    between atoms: C_6  and  C_7
REMARK    7  A    between atoms: C_10  and  C_11
REMARK    8  A    between atoms: C_14  and  C_15
REMARK    9  A    between atoms: C_15  and  C_16
REMARK   10  A    between atoms: C_16  and  C_17
REMARK   11  A    between atoms: C_17  and  C_18
REMARK   12  A    between atoms: C_17  and  C_19
REMARK   13  A    between atoms: C_17  and  S_23
REMARK   14  A    between atoms: N_21  and  O_22
REMARK   15  A    between atoms: S_23  and  C_24
REMARK                            x       y       z     vdW  Elec       q    Type
REMARK                         _______ _______ _______ _____ _____    ______ ____
ROOT
ATOM      1  C   UNL     1       1.374   8.550  19.907  0.00  0.00    +0.000 A 
ATOM      2  C   UNL     1       1.909   7.355  20.406  0.00  0.00    +0.000 A 
ATOM      3  C   UNL     1       2.724   6.544  19.625  0.00  0.00    +0.000 A 
ATOM      4  C   UNL     1       2.986   6.864  18.290  0.00  0.00    +0.000 A 
ATOM      5  C   UNL     1       2.480   8.064  17.782  0.00  0.00    +0.000 A 
ATOM      6  C   UNL     1       1.692   8.897  18.585  0.00  0.00    +0.000 A 
ENDROOT
BRANCH   1  10
ATOM      7  C   UNL     1      -1.113  11.012  22.406  0.00  0.00    +0.000 A 
ATOM      8  C   UNL     1      -0.543   9.839  22.906  0.00  0.00    +0.000 A 
ATOM      9  C   UNL     1       0.278   9.060  22.100  0.00  0.00    +0.000 A 
ATOM     10  C   UNL     1       0.519   9.398  20.757  0.00  0.00    +0.000 A 
ATOM     11  C   UNL     1      -0.098  10.558  20.259  0.00  0.00    +0.000 A 
ATOM     12  C   UNL     1      -0.893  11.363  21.075  0.00  0.00    +0.000 A 
BRANCH   7  13
ATOM     13  C   UNL     1      -1.940  11.888  23.308  0.00  0.00    +0.000 C 
BRANCH  13  14
ATOM     14  C   UNL     1      -2.855  12.804  22.484  0.00  0.00    +0.000 C 
BRANCH  14  16
ATOM     15  C   UNL     1      -4.255  12.441  24.517  0.00  0.00    +0.000 C 
ATOM     16  C   UNL     1      -4.125  13.245  23.221  0.00  0.00    +0.000 C 
ATOM     17  C   UNL     1      -5.380  13.071  22.362  0.00  0.00    +0.000 C 
BRANCH  16  18
ATOM     18  O   UNL     1      -3.987  14.628  23.554  0.00  0.00    +0.000 OA
ATOM     19  H   UNL     1      -3.055  14.875  23.405  0.00  0.00    +0.000 HD
ENDBRANCH  16  18
ENDBRANCH  14  16
ENDBRANCH  13  14
ENDBRANCH   7  13
ENDBRANCH   1  10
BRANCH   4  20
ATOM     20  C   UNL     1       3.811   5.960  17.405  0.00  0.00    +0.000 C 
BRANCH  20  21
ATOM     21  C   UNL     1       5.084   5.460  18.105  0.00  0.00    +0.000 C 
BRANCH  21  22
ATOM     22  C   UNL     1       6.409   6.067  17.603  0.00  0.00    +0.000 C 
ATOM     23  C   UNL     1       6.169   7.440  16.963  0.00  0.00    +0.000 C 
BRANCH  22  24
ATOM     24  C   UNL     1       7.421   6.158  18.741  0.00  0.00    +0.000 C 
ATOM     25  O   UNL     1       8.307   7.014  18.775  0.00  0.00    +0.000 OA
ATOM     26  N   UNL     1       7.280   5.258  19.775  0.00  0.00    +0.000 N 
ATOM     27  H   UNL     1       6.857   4.334  19.633  0.00  0.00    +0.000 HD
BRANCH  26  28
ATOM     28  O   UNL     1       8.284   5.321  20.771  0.00  0.00    +0.000 OA
ATOM     29  H   UNL     1       8.789   4.491  20.628  0.00  0.00    +0.000 HD
ENDBRANCH  26  28
ENDBRANCH  22  24
BRANCH  22  30
ATOM     30  S   UNL     1       7.094   4.922  16.363  0.00  0.00    +0.000 S 
ATOM     31  C   UNL     1       5.768   3.838  15.894  0.00  0.00    +0.000 C 
ATOM     32  O   UNL     1       7.437   5.708  15.188  0.00  0.00    +0.000 OA
ATOM     33  O   UNL     1       8.109   4.111  17.003  0.00  0.00    +0.000 OA
ENDBRANCH  22  30
ENDBRANCH  21  22
ENDBRANCH  20  21
ENDBRANCH   4  20
TORSDOF 11
ENDMDL
MODEL 2
REMARK VINA RESULT:      -8.6      0.926      1.459
REMARK  Name = 
REMARK  15 active torsions:
REMARK  status: ('A' for Active; 'I' for Inactive)
REMARK    1  A    between atoms: C_1  and  C_2
REMARK    2  A    between atoms: C_2  and  C_3
REMARK    3  A    between atoms: C_2  and  O_4
REMARK    4  A    between atoms: C_2  and  C_5
REMARK    5  A    between atoms: C_5  and  C_6
REMARK    6  A    between atoms: C_6  and  C_7
REMARK    7  A    between atoms: C_10  and  C_11
REMARK    8  A    between atoms: C_14  and  C_15
REMARK    9  A    between atoms: C_15  and  C_16
REMARK   10  A    between atoms: C_16  and  C_17
REMARK   11  A    between atoms: C_17  and  C_18
REMARK   12  A    between atoms: C_17  and  C_19
REMARK   13  A    between atoms: C_17  and  S_23
REMARK   14  A    between atoms: N_21  and  O_22
REMARK   15  A    between atoms: S_23  and  C_24
REMARK                            x       y       z     vdW  Elec       q    Type
REMARK                         _______ _______ _______ _____ _____    ______ ____
ROOT
ATOM      1  C   UNL     1       1.139   8.956  20.054  0.00  0.00    +0.000 A 
ATOM      2  C   UNL     1       1.685   7.757  20.531  0.00  0.00    +0.000 A 
ATOM      3  C   UNL     1       2.509   6.968  19.737  0.00  0.00    +0.000 A 
ATOM      4  C   UNL     1       2.769   7.315  18.408  0.00  0.00    +0.000 A 
ATOM      5  C   UNL     1       2.252   8.518  17.922  0.00  0.00    +0.000 A 
ATOM      6  C   UNL     1       1.454   9.330  18.738  0.00  0.00    +0.000 A 
ENDROOT
BRANCH   1  10
ATOM      7  C   UNL     1      -1.391  11.369  22.556  0.00  0.00    +0.000 A 
ATOM      8  C   UNL     1      -1.152  11.730  21.229  0.00  0.00    +0.000 A 
ATOM      9  C   UNL     1      -0.352  10.934  20.419  0.00  0.00    +0.000 A 
ATOM     10  C   UNL     1       0.274   9.780  20.918  0.00  0.00    +0.000 A 
ATOM     11  C   UNL     1       0.058   9.455  22.268  0.00  0.00    +0.000 A 
ATOM     12  C   UNL     1      -0.774  10.230  23.075  0.00  0.00    +0.000 A 
BRANCH   7  13
ATOM     13  C   UNL     1      -2.319  12.196  23.405  0.00  0.00    +0.000 C 
BRANCH  13  14
ATOM     14  C   UNL     1      -3.239  13.053  22.526  0.00  0.00    +0.000 C 
BRANCH  14  16
ATOM     15  C   UNL     1      -5.621  12.745  21.848  0.00  0.00    +0.000 C 
ATOM     16  C   UNL     1      -4.693  13.106  23.011  0.00  0.00    +0.000 C 
ATOM     17  C   UNL     1      -5.063  14.479  23.576  0.00  0.00    +0.000 C 
BRANCH  16  18
ATOM     18  O   UNL     1      -4.852  12.129  24.041  0.00  0.00    +0.000 OA
ATOM     19  H   UNL     1      -5.422  12.518  24.732  0.00  0.00    +0.000 HD
ENDBRANCH  16  18
ENDBRANCH  14  16
ENDBRANCH  13  14
ENDBRANCH   7  13
ENDBRANCH   1  10
BRANCH   4  20
ATOM     20  C   UNL     1       3.604   6.436  17.509  0.00  0.00    +0.000 C 
BRANCH  20  21
ATOM     21  C   UNL     1       4.791   5.800  18.248  0.00  0.00    +0.000 C 
BRANCH  21  22
ATOM     22  C   UNL     1       6.178   6.033  17.617  0.00  0.00    +0.000 C 
ATOM     23  C   UNL     1       6.175   7.298  16.750  0.00  0.00    +0.000 C 
BRANCH  22  24
ATOM     24  C   UNL     1       7.252   6.106  18.698  0.00  0.00    +0.000 C 
ATOM     25  O   UNL     1       8.153   6.947  18.682  0.00  0.00    +0.000 OA
ATOM     26  N   UNL     1       7.153   5.208  19.739  0.00  0.00    +0.000 N 
ATOM     27  H   UNL     1       6.707   4.292  19.621  0.00  0.00    +0.000 HD
BRANCH  26  28
ATOM     28  O   UNL     1       8.211   5.255  20.678  0.00  0.00    +0.000 OA
ATOM     29  H   UNL     1       7.963   6.013  21.252  0.00  0.00    +0.000 HD
ENDBRANCH  26  28
ENDBRANCH  22  24
BRANCH  22  30
ATOM     30  S   UNL     1       6.552   4.581  16.583  0.00  0.00    +0.000 S 
ATOM     31  C   UNL     1       6.527   5.145  14.899  0.00  0.00    +0.000 C 
ATOM     32  O   UNL     1       7.919   4.178  16.877  0.00  0.00    +0.000 OA
ATOM     33  O   UNL     1       5.475   3.624  16.733  0.00  0.00    +0.000 OA
ENDBRANCH  22  30
ENDBRANCH  21  22
ENDBRANCH  20  21
ENDBRANCH   4  20
TORSDOF 11
ENDMDL
MODEL 3
REMARK VINA RESULT:      -8.5      2.159      2.881
REMARK  Name = 
REMARK  15 active torsions:
REMARK  status: ('A' for Active; 'I' for Inactive)
REMARK    1  A    between atoms: C_1  and  C_2
REMARK    2  A    between atoms: C_2  and  C_3
REMARK    3  A    between atoms: C_2  and  O_4
REMARK    4  A    between atoms: C_2  and  C_5
REMARK    5  A    between atoms: C_5  and  C_6
REMARK    6  A    between atoms: C_6  and  C_7
REMARK    7  A    between atoms: C_10  and  C_11
REMARK    8  A    between atoms: C_14  and  C_15
REMARK    9  A    between atoms: C_15  and  C_16
REMARK   10  A    between atoms: C_16  and  C_17
REMARK   11  A    between atoms: C_17  and  C_18
REMARK   12  A    between atoms: C_17  and  C_19
REMARK   13  A    between atoms: C_17  and  S_23
REMARK   14  A    between atoms: N_21  and  O_22
REMARK   15  A    between atoms: S_23  and  C_24
REMARK                            x       y       z     vdW  Elec       q    Type
REMARK                         _______ _______ _______ _____ _____    ______ ____
ROOT
ATOM      1  C   UNL     1       0.531   9.662  20.303  0.00  0.00    +0.000 A 
ATOM      2  C   UNL     1       1.038   8.533  20.959  0.00  0.00    +0.000 A 
ATOM      3  C   UNL     1       1.859   7.622  20.304  0.00  0.00    +0.000 A 
ATOM      4  C   UNL     1       2.154   7.770  18.946  0.00  0.00    +0.000 A 
ATOM      5  C   UNL     1       1.675   8.902  18.281  0.00  0.00    +0.000 A 
ATOM      6  C   UNL     1       0.881   9.838  18.956  0.00  0.00    +0.000 A 
ENDROOT
BRANCH   1  10
ATOM      7  C   UNL     1      -1.993  12.457  22.378  0.00  0.00    +0.000 A 
ATOM      8  C   UNL     1      -1.859  12.517  20.989  0.00  0.00    +0.000 A 
ATOM      9  C   UNL     1      -1.060  11.596  20.323  0.00  0.00    +0.000 A 
ATOM     10  C   UNL     1      -0.331  10.619  21.022  0.00  0.00    +0.000 A 
ATOM     11  C   UNL     1      -0.444  10.602  22.422  0.00  0.00    +0.000 A 
ATOM     12  C   UNL     1      -1.274  11.500  23.093  0.00  0.00    +0.000 A 
BRANCH   7  13
ATOM     13  C   UNL     1      -2.919  13.411  23.085  0.00  0.00    +0.000 C 
BRANCH  13  14
ATOM     14  C   UNL     1      -4.108  12.660  23.697  0.00  0.00    +0.000 C 
BRANCH  14  16
ATOM     15  C   UNL     1      -5.424  14.429  22.529  0.00  0.00    +0.000 C 
ATOM     16  C   UNL     1      -5.457  12.989  23.046  0.00  0.00    +0.000 C 
ATOM     17  C   UNL     1      -6.626  12.802  24.017  0.00  0.00    +0.000 C 
BRANCH  16  18
ATOM     18  O   UNL     1      -5.639  12.109  21.935  0.00  0.00    +0.000 OA
ATOM     19  H   UNL     1      -4.795  12.069  21.448  0.00  0.00    +0.000 HD
ENDBRANCH  16  18
ENDBRANCH  14  16
ENDBRANCH  13  14
ENDBRANCH   7  13
ENDBRANCH   1  10
BRANCH   4  20
ATOM     20  C   UNL     1       2.985   6.754  18.200  0.00  0.00    +0.000 C 
BRANCH  20  21
ATOM     21  C   UNL     1       3.790   5.849  19.145  0.00  0.00    +0.000 C 
BRANCH  21  22
ATOM     22  C   UNL     1       4.474   4.633  18.490  0.00  0.00    +0.000 C 
ATOM     23  C   UNL     1       4.153   4.572  16.991  0.00  0.00    +0.000 C 
BRANCH  22  24
ATOM     24  C   UNL     1       5.980   4.672  18.731  0.00  0.00    +0.000 C 
ATOM     25  O   UNL     1       6.483   5.250  19.696  0.00  0.00    +0.000 OA
ATOM     26  N   UNL     1       6.773   3.984  17.838  0.00  0.00    +0.000 N 
ATOM     27  H   UNL     1       6.486   3.835  16.865  0.00  0.00    +0.000 HD
BRANCH  26  28
ATOM     28  O   UNL     1       8.168   4.110  18.050  0.00  0.00    +0.000 OA
ATOM     29  H   UNL     1       8.497   3.197  17.893  0.00  0.00    +0.000 HD
ENDBRANCH  26  28
ENDBRANCH  22  24
BRANCH  22  30
ATOM     30  S   UNL     1       3.835   3.141  19.316  0.00  0.00    +0.000 S 
ATOM     31  C   UNL     1       3.324   2.033  18.027  0.00  0.00    +0.000 C 
ATOM     32  O   UNL     1       4.953   2.511  20.002  0.00  0.00    +0.000 OA
ATOM     33  O   UNL     1       2.650   3.506  20.065  0.00  0.00    +0.000 OA
ENDBRANCH  22  30
ENDBRANCH  21  22
ENDBRANCH  20  21
ENDBRANCH   4  20
TORSDOF 11
ENDMDL
MODEL 4
REMARK VINA RESULT:      -8.5      2.195      3.181
REMARK  Name = 
REMARK  15 active torsions:
REMARK  status: ('A' for Active; 'I' for Inactive)
REMARK    1  A    between atoms: C_1  and  C_2
REMARK    2  A    between atoms: C_2  and  C_3
REMARK    3  A    between atoms: C_2  and  O_4
REMARK    4  A    between atoms: C_2  and  C_5
REMARK    5  A    between atoms: C_5  and  C_6
REMARK    6  A    between atoms: C_6  and  C_7
REMARK    7  A    between atoms: C_10  and  C_11
REMARK    8  A    between atoms: C_14  and  C_15
REMARK    9  A    between atoms: C_15  and  C_16
REMARK   10  A    between atoms: C_16  and  C_17
REMARK   11  A    between atoms: C_17  and  C_18
REMARK   12  A    between atoms: C_17  and  C_19
REMARK   13  A    between atoms: C_17  and  S_23
REMARK   14  A    between atoms: N_21  and  O_22
REMARK   15  A    between atoms: S_23  and  C_24
REMARK                            x       y       z     vdW  Elec       q    Type
REMARK                         _______ _______ _______ _____ _____    ______ ____
ROOT
ATOM      1  C   UNL     1       0.806   9.283  20.418  0.00  0.00    +0.000 A 
ATOM      2  C   UNL     1       1.190   9.554  19.098  0.00  0.00    +0.000 A 
ATOM      3  C   UNL     1       1.952   8.652  18.364  0.00  0.00    +0.000 A 
ATOM      4  C   UNL     1       2.415   7.467  18.945  0.00  0.00    +0.000 A 
ATOM      5  C   UNL     1       2.023   7.170  20.252  0.00  0.00    +0.000 A 
ATOM      6  C   UNL     1       1.223   8.064  20.974  0.00  0.00    +0.000 A 
ENDROOT
BRANCH   1  10
ATOM      7  C   UNL     1      -1.577  12.121  22.599  0.00  0.00    +0.000 A 
ATOM      8  C   UNL     1      -1.215  12.368  21.273  0.00  0.00    +0.000 A 
ATOM      9  C   UNL     1      -0.464  11.436  20.566  0.00  0.00    +0.000 A 
ATOM     10  C   UNL     1      -0.009  10.253  21.172  0.00  0.00    +0.000 A 
ATOM     11  C   UNL     1      -0.346  10.042  22.520  0.00  0.00    +0.000 A 
ATOM     12  C   UNL     1      -1.131  10.957  23.222  0.00  0.00    +0.000 A 
BRANCH   7  13
ATOM     13  C   UNL     1      -2.453  13.101  23.333  0.00  0.00    +0.000 C 
BRANCH  13  14
ATOM     14  C   UNL     1      -3.740  12.421  23.817  0.00  0.00    +0.000 C 
BRANCH  14  16
ATOM     15  C   UNL     1      -4.818  14.457  22.857  0.00  0.00    +0.000 C 
ATOM     16  C   UNL     1      -5.018  12.973  23.172  0.00  0.00    +0.000 C 
ATOM     17  C   UNL     1      -6.244  12.781  24.068  0.00  0.00    +0.000 C 
BRANCH  16  18
ATOM     18  O   UNL     1      -5.233  12.271  21.946  0.00  0.00    +0.000 OA
ATOM     19  H   UNL     1      -5.410  12.934  21.253  0.00  0.00    +0.000 HD
ENDBRANCH  16  18
ENDBRANCH  14  16
ENDBRANCH  13  14
ENDBRANCH   7  13
ENDBRANCH   1  10
BRANCH   4  20
ATOM     20  C   UNL     1       3.302   6.508  18.187  0.00  0.00    +0.000 C 
BRANCH  20  21
ATOM     21  C   UNL     1       3.650   5.258  19.009  0.00  0.00    +0.000 C 
BRANCH  21  22
ATOM     22  C   UNL     1       3.874   3.965  18.202  0.00  0.00    +0.000 C 
ATOM     23  C   UNL     1       2.801   3.808  17.118  0.00  0.00    +0.000 C 
BRANCH  22  24
ATOM     24  C   UNL     1       5.276   3.946  17.600  0.00  0.00    +0.000 C 
ATOM     25  O   UNL     1       5.485   3.678  16.415  0.00  0.00    +0.000 OA
ATOM     26  N   UNL     1       6.318   4.291  18.432  0.00  0.00    +0.000 N 
ATOM     27  H   UNL     1       6.272   4.141  19.446  0.00  0.00    +0.000 HD
BRANCH  26  28
ATOM     28  O   UNL     1       7.608   4.185  17.859  0.00  0.00    +0.000 OA
ATOM     29  H   UNL     1       7.656   4.976  17.278  0.00  0.00    +0.000 HD
ENDBRANCH  26  28
ENDBRANCH  22  24
BRANCH  22  30
ATOM     30  S   UNL     1       3.773   2.572  19.373  0.00  0.00    +0.000 S 
ATOM     31  C   UNL     1       2.518   2.999  20.553  0.00  0.00    +0.000 C 
ATOM     32  O   UNL     1       3.288   1.417  18.634  0.00  0.00    +0.000 OA
ATOM     33  O   UNL     1       5.029   2.488  20.090  0.00  0.00    +0.000 OA
ENDBRANCH  22  30
ENDBRANCH  21  22
ENDBRANCH  20  21
ENDBRANCH   4  20
TORSDOF 11
ENDMDL
MODEL 5
REMARK VINA RESULT:      -8.4      2.238      3.103
REMARK  Name = 
REMARK  15 active torsions:
REMARK  status: ('A' for Active; 'I' for Inactive)
REMARK    1  A    between atoms: C_1  and  C_2
REMARK    2  A    between atoms: C_2  and  C_3
REMARK    3  A    between atoms: C_2  and  O_4
REMARK    4  A    between atoms: C_2  and  C_5
REMARK    5  A    between atoms: C_5  and  C_6
REMARK    6  A    between atoms: C_6  and  C_7
REMARK    7  A    between atoms: C_10  and  C_11
REMARK    8  A    between atoms: C_14  and  C_15
REMARK    9  A    between atoms: C_15  and  C_16
REMARK   10  A    between atoms: C_16  and  C_17
REMARK   11  A    between atoms: C_17  and  C_18
REMARK   12  A    between atoms: C_17  and  C_19
REMARK   13  A    between atoms: C_17  and  S_23
REMARK   14  A    between atoms: N_21  and  O_22
REMARK   15  A    between atoms: S_23  and  C_24
REMARK                            x       y       z     vdW  Elec       q    Type
REMARK                         _______ _______ _______ _____ _____    ______ ____
ROOT
ATOM      1  C   UNL     1       0.355   9.834  19.662  0.00  0.00    +0.000 A 
ATOM      2  C   UNL     1       0.915   8.898  20.541  0.00  0.00    +0.000 A 
ATOM      3  C   UNL     1       1.860   7.973  20.110  0.00  0.00    +0.000 A 
ATOM      4  C   UNL     1       2.235   7.906  18.765  0.00  0.00    +0.000 A 
ATOM      5  C   UNL     1       1.703   8.846  17.879  0.00  0.00    +0.000 A 
ATOM      6  C   UNL     1       0.782   9.801  18.326  0.00  0.00    +0.000 A 
ENDROOT
BRANCH   1  10
ATOM      7  C   UNL     1      -2.556  12.678  21.050  0.00  0.00    +0.000 A 
ATOM      8  C   UNL     1      -2.456  12.370  19.692  0.00  0.00    +0.000 A 
ATOM      9  C   UNL     1      -1.528  11.432  19.253  0.00  0.00    +0.000 A 
ATOM     10  C   UNL     1      -0.640  10.810  20.145  0.00  0.00    +0.000 A 
ATOM     11  C   UNL     1      -0.726  11.165  21.502  0.00  0.00    +0.000 A 
ATOM     12  C   UNL     1      -1.679  12.077  21.953  0.00  0.00    +0.000 A 
BRANCH   7  13
ATOM     13  C   UNL     1      -3.613  13.638  21.526  0.00  0.00    +0.000 C 
BRANCH  13  14
ATOM     14  C   UNL     1      -4.657  12.914  22.386  0.00  0.00    +0.000 C 
BRANCH  14  16
ATOM     15  C   UNL     1      -3.821  14.637  23.986  0.00  0.00    +0.000 C 
ATOM     16  C   UNL     1      -4.732  13.417  23.833  0.00  0.00    +0.000 C 
ATOM     17  C   UNL     1      -4.340  12.334  24.841  0.00  0.00    +0.000 C 
BRANCH  16  18
ATOM     18  O   UNL     1      -6.079  13.818  24.093  0.00  0.00    +0.000 OA
ATOM     19  H   UNL     1      -6.449  13.201  24.752  0.00  0.00    +0.000 HD
ENDBRANCH  16  18
ENDBRANCH  14  16
ENDBRANCH  13  14
ENDBRANCH   7  13
ENDBRANCH   1  10
BRANCH   4  20
ATOM     20  C   UNL     1       3.206   6.864  18.265  0.00  0.00    +0.000 C 
BRANCH  20  21
ATOM     21  C   UNL     1       3.344   5.679  19.233  0.00  0.00    +0.000 C 
BRANCH  21  22
ATOM     22  C   UNL     1       4.123   4.461  18.698  0.00  0.00    +0.000 C 
ATOM     23  C   UNL     1       3.743   4.171  17.241  0.00  0.00    +0.000 C 
BRANCH  22  24
ATOM     24  C   UNL     1       5.626   4.681  18.845  0.00  0.00    +0.000 C 
ATOM     25  O   UNL     1       6.107   5.425  19.702  0.00  0.00    +0.000 OA
ATOM     26  N   UNL     1       6.446   3.968  17.998  0.00  0.00    +0.000 N 
ATOM     27  H   UNL     1       6.133   3.668  17.069  0.00  0.00    +0.000 HD
BRANCH  26  28
ATOM     28  O   UNL     1       7.827   4.258  18.111  0.00  0.00    +0.000 OA
ATOM     29  H   UNL     1       8.155   4.127  17.194  0.00  0.00    +0.000 HD
ENDBRANCH  26  28
ENDBRANCH  22  24
BRANCH  22  30
ATOM     30  S   UNL     1       3.683   3.035  19.743  0.00  0.00    +0.000 S 
ATOM     31  C   UNL     1       2.748   1.930  18.715  0.00  0.00    +0.000 C 
ATOM     32  O   UNL     1       4.919   2.352  20.090  0.00  0.00    +0.000 OA
ATOM     33  O   UNL     1       2.800   3.496  20.795  0.00  0.00    +0.000 OA
ENDBRANCH  22  30
ENDBRANCH  21  22
ENDBRANCH  20  21
ENDBRANCH   4  20
TORSDOF 11
ENDMDL
MODEL 6
REMARK VINA RESULT:      -8.4      1.290      2.566
REMARK  Name = 
REMARK  15 active torsions:
REMARK  status: ('A' for Active; 'I' for Inactive)
REMARK    1  A    between atoms: C_1  and  C_2
REMARK    2  A    between atoms: C_2  and  C_3
REMARK    3  A    between atoms: C_2  and  O_4
REMARK    4  A    between atoms: C_2  and  C_5
REMARK    5  A    between atoms: C_5  and  C_6
REMARK    6  A    between atoms: C_6  and  C_7
REMARK    7  A    between atoms: C_10  and  C_11
REMARK    8  A    between atoms: C_14  and  C_15
REMARK    9  A    between atoms: C_15  and  C_16
REMARK   10  A    between atoms: C_16  and  C_17
REMARK   11  A    between atoms: C_17  and  C_18
REMARK   12  A    between atoms: C_17  and  C_19
REMARK   13  A    between atoms: C_17  and  S_23
REMARK   14  A    between atoms: N_21  and  O_22
REMARK   15  A    between atoms: S_23  and  C_24
REMARK                            x       y       z     vdW  Elec       q    Type
REMARK                         _______ _______ _______ _____ _____    ______ ____
ROOT
ATOM      1  C   UNL     1       1.218   8.846  19.911  0.00  0.00    +0.000 A 
ATOM      2  C   UNL     1       1.766   7.630  20.340  0.00  0.00    +0.000 A 
ATOM      3  C   UNL     1       2.569   6.862  19.505  0.00  0.00    +0.000 A 
ATOM      4  C   UNL     1       2.804   7.249  18.182  0.00  0.00    +0.000 A 
ATOM      5  C   UNL     1       2.284   8.470  17.744  0.00  0.00    +0.000 A 
ATOM      6  C   UNL     1       1.508   9.259  18.602  0.00  0.00    +0.000 A 
ENDROOT
BRANCH   1  10
ATOM      7  C   UNL     1      -1.250  11.191  22.539  0.00  0.00    +0.000 A 
ATOM      8  C   UNL     1      -1.132  11.526  21.188  0.00  0.00    +0.000 A 
ATOM      9  C   UNL     1      -0.351  10.750  20.339  0.00  0.00    +0.000 A 
ATOM     10  C   UNL     1       0.375   9.647  20.818  0.00  0.00    +0.000 A 
ATOM     11  C   UNL     1       0.279   9.351  22.189  0.00  0.00    +0.000 A 
ATOM     12  C   UNL     1      -0.532  10.104  23.037  0.00  0.00    +0.000 A 
BRANCH   7  13
ATOM     13  C   UNL     1      -2.156  11.992  23.435  0.00  0.00    +0.000 C 
BRANCH  13  14
ATOM     14  C   UNL     1      -3.268  12.665  22.620  0.00  0.00    +0.000 C 
BRANCH  14  16
ATOM     15  C   UNL     1      -3.363  14.180  24.600  0.00  0.00    +0.000 C 
ATOM     16  C   UNL     1      -4.172  13.591  23.443  0.00  0.00    +0.000 C 
ATOM     17  C   UNL     1      -5.407  12.862  23.979  0.00  0.00    +0.000 C 
BRANCH  16  18
ATOM     18  O   UNL     1      -4.602  14.659  22.596  0.00  0.00    +0.000 OA
ATOM     19  H   UNL     1      -5.567  14.574  22.480  0.00  0.00    +0.000 HD
ENDBRANCH  16  18
ENDBRANCH  14  16
ENDBRANCH  13  14
ENDBRANCH   7  13
ENDBRANCH   1  10
BRANCH   4  20
ATOM     20  C   UNL     1       3.616   6.394  17.239  0.00  0.00    +0.000 C 
BRANCH  20  21
ATOM     21  C   UNL     1       5.123   6.475  17.524  0.00  0.00    +0.000 C 
BRANCH  21  22
ATOM     22  C   UNL     1       5.879   5.132  17.526  0.00  0.00    +0.000 C 
ATOM     23  C   UNL     1       4.998   4.013  18.095  0.00  0.00    +0.000 C 
BRANCH  22  24
ATOM     24  C   UNL     1       6.368   4.791  16.121  0.00  0.00    +0.000 C 
ATOM     25  O   UNL     1       5.996   3.784  15.515  0.00  0.00    +0.000 OA
ATOM     26  N   UNL     1       7.222   5.691  15.521  0.00  0.00    +0.000 N 
ATOM     27  H   UNL     1       7.844   6.293  16.071  0.00  0.00    +0.000 HD
BRANCH  26  28
ATOM     28  O   UNL     1       7.714   5.301  14.253  0.00  0.00    +0.000 OA
ATOM     29  H   UNL     1       7.161   4.520  14.032  0.00  0.00    +0.000 HD
ENDBRANCH  26  28
ENDBRANCH  22  24
BRANCH  22  30
ATOM     30  S   UNL     1       7.356   5.344  18.572  0.00  0.00    +0.000 S 
ATOM     31  C   UNL     1       7.912   7.012  18.323  0.00  0.00    +0.000 C 
ATOM     32  O   UNL     1       6.926   5.240  19.957  0.00  0.00    +0.000 OA
ATOM     33  O   UNL     1       8.395   4.465  18.077  0.00  0.00    +0.000 OA
ENDBRANCH  22  30
ENDBRANCH  21  22
ENDBRANCH  20  21
ENDBRANCH   4  20
TORSDOF 11
ENDMDL
MODEL 7
REMARK VINA RESULT:      -8.4      2.102      2.832
REMARK  Name = 
REMARK  15 active torsions:
REMARK  status: ('A' for Active; 'I' for Inactive)
REMARK    1  A    between atoms: C_1  and  C_2
REMARK    2  A    between atoms: C_2  and  C_3
REMARK    3  A    between atoms: C_2  and  O_4
REMARK    4  A    between atoms: C_2  and  C_5
REMARK    5  A    between atoms: C_5  and  C_6
REMARK    6  A    between atoms: C_6  and  C_7
REMARK    7  A    between atoms: C_10  and  C_11
REMARK    8  A    between atoms: C_14  and  C_15
REMARK    9  A    between atoms: C_15  and  C_16
REMARK   10  A    between atoms: C_16  and  C_17
REMARK   11  A    between atoms: C_17  and  C_18
REMARK   12  A    between atoms: C_17  and  C_19
REMARK   13  A    between atoms: C_17  and  S_23
REMARK   14  A    between atoms: N_21  and  O_22
REMARK   15  A    between atoms: S_23  and  C_24
REMARK                            x       y       z     vdW  Elec       q    Type
REMARK                         _______ _______ _______ _____ _____    ______ ____
ROOT
ATOM      1  C   UNL     1       1.034   9.227  20.301  0.00  0.00    +0.000 A 
ATOM      2  C   UNL     1       1.280   9.461  18.941  0.00  0.00    +0.000 A 
ATOM      3  C   UNL     1       1.924   8.518  18.149  0.00  0.00    +0.000 A 
ATOM      4  C   UNL     1       2.407   7.327  18.701  0.00  0.00    +0.000 A 
ATOM      5  C   UNL     1       2.150   7.068  20.049  0.00  0.00    +0.000 A 
ATOM      6  C   UNL     1       1.466   8.004  20.834  0.00  0.00    +0.000 A 
ENDROOT
BRANCH   1  10
ATOM      7  C   UNL     1      -0.985  12.195  22.668  0.00  0.00    +0.000 A 
ATOM      8  C   UNL     1      -0.254  12.565  21.538  0.00  0.00    +0.000 A 
ATOM      9  C   UNL     1       0.376  11.599  20.764  0.00  0.00    +0.000 A 
ATOM     10  C   UNL     1       0.341  10.240  21.119  0.00  0.00    +0.000 A 
ATOM     11  C   UNL     1      -0.363   9.891  22.284  0.00  0.00    +0.000 A 
ATOM     12  C   UNL     1      -1.029  10.853  23.043  0.00  0.00    +0.000 A 
BRANCH   7  13
ATOM     13  C   UNL     1      -1.727  13.240  23.458  0.00  0.00    +0.000 C 
BRANCH  13  14
ATOM     14  C   UNL     1      -2.756  13.958  22.576  0.00  0.00    +0.000 C 
BRANCH  14  16
ATOM     15  C   UNL     1      -4.276  12.724  24.123  0.00  0.00    +0.000 C 
ATOM     16  C   UNL     1      -4.203  13.505  22.810  0.00  0.00    +0.000 C 
ATOM     17  C   UNL     1      -4.731  12.650  21.655  0.00  0.00    +0.000 C 
BRANCH  16  18
ATOM     18  O   UNL     1      -5.019  14.672  22.926  0.00  0.00    +0.000 OA
ATOM     19  H   UNL     1      -5.323  14.729  23.851  0.00  0.00    +0.000 HD
ENDBRANCH  16  18
ENDBRANCH  14  16
ENDBRANCH  13  14
ENDBRANCH   7  13
ENDBRANCH   1  10
BRANCH   4  20
ATOM     20  C   UNL     1       3.171   6.323  17.872  0.00  0.00    +0.000 C 
BRANCH  20  21
ATOM     21  C   UNL     1       3.007   4.887  18.393  0.00  0.00    +0.000 C 
BRANCH  21  22
ATOM     22  C   UNL     1       4.230   3.966  18.220  0.00  0.00    +0.000 C 
ATOM     23  C   UNL     1       4.441   3.614  16.742  0.00  0.00    +0.000 C 
BRANCH  22  24
ATOM     24  C   UNL     1       5.477   4.613  18.817  0.00  0.00    +0.000 C 
ATOM     25  O   UNL     1       5.423   5.435  19.734  0.00  0.00    +0.000 OA
ATOM     26  N   UNL     1       6.693   4.204  18.315  0.00  0.00    +0.000 N 
ATOM     27  H   UNL     1       6.792   3.859  17.355  0.00  0.00    +0.000 HD
BRANCH  26  28
ATOM     28  O   UNL     1       7.820   4.884  18.838  0.00  0.00    +0.000 OA
ATOM     29  H   UNL     1       8.419   4.150  19.097  0.00  0.00    +0.000 HD
ENDBRANCH  26  28
ENDBRANCH  22  24
BRANCH  22  30
ATOM     30  S   UNL     1       3.904   2.448  19.173  0.00  0.00    +0.000 S 
ATOM     31  C   UNL     1       2.462   2.774  20.157  0.00  0.00    +0.000 C 
ATOM     32  O   UNL     1       3.545   1.406  18.223  0.00  0.00    +0.000 OA
ATOM     33  O   UNL     1       5.009   2.236  20.085  0.00  0.00    +0.000 OA
ENDBRANCH  22  30
ENDBRANCH  21  22
ENDBRANCH  20  21
ENDBRANCH   4  20
TORSDOF 11
ENDMDL
MODEL 8
REMARK VINA RESULT:      -8.4      0.908      1.606
REMARK  Name = 
REMARK  15 active torsions:
REMARK  status: ('A' for Active; 'I' for Inactive)
REMARK    1  A    between atoms: C_1  and  C_2
REMARK    2  A    between atoms: C_2  and  C_3
REMARK    3  A    between atoms: C_2  and  O_4
REMARK    4  A    between atoms: C_2  and  C_5
REMARK    5  A    between atoms: C_5  and  C_6
REMARK    6  A    between atoms: C_6  and  C_7
REMARK    7  A    between atoms: C_10  and  C_11
REMARK    8  A    between atoms: C_14  and  C_15
REMARK    9  A    between atoms: C_15  and  C_16
REMARK   10  A    between atoms: C_16  and  C_17
REMARK   11  A    between atoms: C_17  and  C_18
REMARK   12  A    between atoms: C_17  and  C_19
REMARK   13  A    between atoms: C_17  and  S_23
REMARK   14  A    between atoms: N_21  and  O_22
REMARK   15  A    between atoms: S_23  and  C_24
REMARK                            x       y       z     vdW  Elec       q    Type
REMARK                         _______ _______ _______ _____ _____    ______ ____
ROOT
ATOM      1  C   UNL     1       1.337   8.441  20.096  0.00  0.00    +0.000 A 
ATOM      2  C   UNL     1       1.709   8.754  18.782  0.00  0.00    +0.000 A 
ATOM      3  C   UNL     1       2.381   7.838  17.981  0.00  0.00    +0.000 A 
ATOM      4  C   UNL     1       2.766   6.592  18.485  0.00  0.00    +0.000 A 
ATOM      5  C   UNL     1       2.383   6.254  19.785  0.00  0.00    +0.000 A 
ATOM      6  C   UNL     1       1.672   7.165  20.575  0.00  0.00    +0.000 A 
ENDROOT
BRANCH   1  10
ATOM      7  C   UNL     1      -0.767  11.328  22.490  0.00  0.00    +0.000 A 
ATOM      8  C   UNL     1      -0.364  11.641  21.190  0.00  0.00    +0.000 A 
ATOM      9  C   UNL     1       0.295  10.696  20.414  0.00  0.00    +0.000 A 
ATOM     10  C   UNL     1       0.617   9.427  20.924  0.00  0.00    +0.000 A 
ATOM     11  C   UNL     1       0.243   9.145  22.248  0.00  0.00    +0.000 A 
ATOM     12  C   UNL     1      -0.451  10.077  23.019  0.00  0.00    +0.000 A 
BRANCH   7  13
ATOM     13  C   UNL     1      -1.545  12.332  23.298  0.00  0.00    +0.000 C 
BRANCH  13  14
ATOM     14  C   UNL     1      -3.040  12.258  22.960  0.00  0.00    +0.000 C 
BRANCH  14  16
ATOM     15  C   UNL     1      -4.730  14.021  23.472  0.00  0.00    +0.000 C 
ATOM     16  C   UNL     1      -3.640  13.589  22.489  0.00  0.00    +0.000 C 
ATOM     17  C   UNL     1      -4.211  13.493  21.072  0.00  0.00    +0.000 C 
BRANCH  16  18
ATOM     18  O   UNL     1      -2.601  14.570  22.498  0.00  0.00    +0.000 OA
ATOM     19  H   UNL     1      -2.957  15.373  22.923  0.00  0.00    +0.000 HD
ENDBRANCH  16  18
ENDBRANCH  14  16
ENDBRANCH  13  14
ENDBRANCH   7  13
ENDBRANCH   1  10
BRANCH   4  20
ATOM     20  C   UNL     1       3.557   5.612  17.653  0.00  0.00    +0.000 C 
BRANCH  20  21
ATOM     21  C   UNL     1       4.883   5.215  18.320  0.00  0.00    +0.000 C 
BRANCH  21  22
ATOM     22  C   UNL     1       6.160   5.769  17.658  0.00  0.00    +0.000 C 
ATOM     23  C   UNL     1       5.853   7.052  16.875  0.00  0.00    +0.000 C 
BRANCH  22  24
ATOM     24  C   UNL     1       7.245   6.006  18.704  0.00  0.00    +0.000 C 
ATOM     25  O   UNL     1       8.059   6.928  18.618  0.00  0.00    +0.000 OA
ATOM     26  N   UNL     1       7.256   5.164  19.795  0.00  0.00    +0.000 N 
ATOM     27  H   UNL     1       6.899   4.204  19.739  0.00  0.00    +0.000 HD
BRANCH  26  28
ATOM     28  O   UNL     1       8.324   5.366  20.701  0.00  0.00    +0.000 OA
ATOM     29  H   UNL     1       8.205   6.301  20.978  0.00  0.00    +0.000 HD
ENDBRANCH  26  28
ENDBRANCH  22  24
BRANCH  22  30
ATOM     30  S   UNL     1       6.780   4.488  16.521  0.00  0.00    +0.000 S 
ATOM     31  C   UNL     1       6.967   5.271  14.938  0.00  0.00    +0.000 C 
ATOM     32  O   UNL     1       8.111   4.114  16.971  0.00  0.00    +0.000 OA
ATOM     33  O   UNL     1       5.759   3.470  16.380  0.00  0.00    +0.000 OA
ENDBRANCH  22  30
ENDBRANCH  21  22
ENDBRANCH  20  21
ENDBRANCH   4  20
TORSDOF 11
ENDMDL
MODEL 9
REMARK VINA RESULT:      -8.4      2.152      2.944
REMARK  Name = 
REMARK  15 active torsions:
REMARK  status: ('A' for Active; 'I' for Inactive)
REMARK    1  A    between atoms: C_1  and  C_2
REMARK    2  A    between atoms: C_2  and  C_3
REMARK    3  A    between atoms: C_2  and  O_4
REMARK    4  A    between atoms: C_2  and  C_5
REMARK    5  A    between atoms: C_5  and  C_6
REMARK    6  A    between atoms: C_6  and  C_7
REMARK    7  A    between atoms: C_10  and  C_11
REMARK    8  A    between atoms: C_14  and  C_15
REMARK    9  A    between atoms: C_15  and  C_16
REMARK   10  A    between atoms: C_16  and  C_17
REMARK   11  A    between atoms: C_17  and  C_18
REMARK   12  A    between atoms: C_17  and  C_19
REMARK   13  A    between atoms: C_17  and  S_23
REMARK   14  A    between atoms: N_21  and  O_22
REMARK   15  A    between atoms: S_23  and  C_24
REMARK                            x       y       z     vdW  Elec       q    Type
REMARK                         _______ _______ _______ _____ _____    ______ ____
ROOT
ATOM      1  C   UNL     1       0.679   9.646  19.821  0.00  0.00    +0.000 A 
ATOM      2  C   UNL     1       0.993   9.647  18.456  0.00  0.00    +0.000 A 
ATOM      3  C   UNL     1       1.778   8.647  17.892  0.00  0.00    +0.000 A 
ATOM      4  C   UNL     1       2.333   7.639  18.686  0.00  0.00    +0.000 A 
ATOM      5  C   UNL     1       2.012   7.610  20.045  0.00  0.00    +0.000 A 
ATOM      6  C   UNL     1       1.189   8.597  20.601  0.00  0.00    +0.000 A 
ENDROOT
BRANCH   1  10
ATOM      7  C   UNL     1      -1.760  12.758  21.512  0.00  0.00    +0.000 A 
ATOM      8  C   UNL     1      -0.964  11.956  22.331  0.00  0.00    +0.000 A 
ATOM      9  C   UNL     1      -0.160  10.967  21.776  0.00  0.00    +0.000 A 
ATOM     10  C   UNL     1      -0.162  10.714  20.394  0.00  0.00    +0.000 A 
ATOM     11  C   UNL     1      -1.002  11.502  19.590  0.00  0.00    +0.000 A 
ATOM     12  C   UNL     1      -1.782  12.520  20.138  0.00  0.00    +0.000 A 
BRANCH   7  13
ATOM     13  C   UNL     1      -2.570  13.875  22.113  0.00  0.00    +0.000 C 
BRANCH  13  14
ATOM     14  C   UNL     1      -3.941  13.364  22.574  0.00  0.00    +0.000 C 
BRANCH  14  16
ATOM     15  C   UNL     1      -3.056  14.368  24.680  0.00  0.00    +0.000 C 
ATOM     16  C   UNL     1      -4.233  13.612  24.059  0.00  0.00    +0.000 C 
ATOM     17  C   UNL     1      -4.487  12.309  24.822  0.00  0.00    +0.000 C 
BRANCH  16  18
ATOM     18  O   UNL     1      -5.400  14.431  24.151  0.00  0.00    +0.000 OA
ATOM     19  H   UNL     1      -6.172  13.870  23.946  0.00  0.00    +0.000 HD
ENDBRANCH  16  18
ENDBRANCH  14  16
ENDBRANCH  13  14
ENDBRANCH   7  13
ENDBRANCH   1  10
BRANCH   4  20
ATOM     20  C   UNL     1       3.244   6.585  18.104  0.00  0.00    +0.000 C 
BRANCH  20  21
ATOM     21  C   UNL     1       3.162   5.254  18.867  0.00  0.00    +0.000 C 
BRANCH  21  22
ATOM     22  C   UNL     1       4.173   4.172  18.440  0.00  0.00    +0.000 C 
ATOM     23  C   UNL     1       4.035   3.859  16.945  0.00  0.00    +0.000 C 
BRANCH  22  24
ATOM     24  C   UNL     1       5.596   4.602  18.785  0.00  0.00    +0.000 C 
ATOM     25  O   UNL     1       5.849   5.373  19.714  0.00  0.00    +0.000 OA
ATOM     26  N   UNL     1       6.613   4.052  18.037  0.00  0.00    +0.000 N 
ATOM     27  H   UNL     1       6.468   3.747  17.068  0.00  0.00    +0.000 HD
BRANCH  26  28
ATOM     28  O   UNL     1       7.910   4.535  18.335  0.00  0.00    +0.000 OA
ATOM     29  H   UNL     1       7.984   4.386  19.303  0.00  0.00    +0.000 HD
ENDBRANCH  26  28
ENDBRANCH  22  24
BRANCH  22  30
ATOM     30  S   UNL     1       3.811   2.677  19.417  0.00  0.00    +0.000 S 
ATOM     31  C   UNL     1       2.633   3.160  20.655  0.00  0.00    +0.000 C 
ATOM     32  O   UNL     1       3.141   1.733  18.536  0.00  0.00    +0.000 OA
ATOM     33  O   UNL     1       5.021   2.279  20.106  0.00  0.00    +0.000 OA
ENDBRANCH  22  30
ENDBRANCH  21  22
ENDBRANCH  20  21
ENDBRANCH   4  20
TORSDOF 11
ENDMDL
