MODEL 1
REMARK VINA RESULT:      -7.6      0.000      0.000
REMARK  Name = 
REMARK  8 active torsions:
REMARK  status: ('A' for Active; 'I' for Inactive)
REMARK    1  A    between atoms: C_1  and  C_2
REMARK    2  A    between atoms: C_2  and  O_3
REMARK    3  A    between atoms: O_3  and  C_4
REMARK    4  A    between atoms: C_9  and  N_10
REMARK    5  A    between atoms: N_10  and  C_11
REMARK    6  A    between atoms: C_11  and  C_12
REMARK    7  A    between atoms: N_15  and  C_16
REMARK    8  A    between atoms: N_18  and  C_19
REMARK                            x       y       z     vdW  Elec       q    Type
REMARK                         _______ _______ _______ _____ _____    ______ ____
ROOT
ATOM      1  N   UNL     1       4.023   4.907  18.864  0.00  0.00    +0.000 N 
ATOM      2  C   UNL     1       2.759   5.560  19.172  0.00  0.00    +0.000 C 
ATOM      3  O   UNL     1       1.742   4.946  19.509  0.00  0.00    +0.000 OA
ATOM      4  N   UNL     1       2.762   6.940  19.012  0.00  0.00    +0.000 N 
ATOM      5  H   UNL     1       3.586   7.185  18.460  0.00  0.00    +0.000 HD
ENDROOT
BRANCH   4   6
ATOM      6  C   UNL     1       1.895   8.011  19.201  0.00  0.00    +0.000 A 
ATOM      7  C   UNL     1       1.660   8.692  18.061  0.00  0.00    +0.000 A 
ATOM      8  N   UNL     1       0.992   9.901  18.010  0.00  0.00    +0.000 N 
ATOM      9  C   UNL     1      -0.473   9.719  17.939  0.00  0.00    +0.000 C 
ATOM     10  C   UNL     1       1.395  10.766  19.030  0.00  0.00    +0.000 A 
ATOM     11  O   UNL     1       1.684  11.952  18.866  0.00  0.00    +0.000 OA
ATOM     12  C   UNL     1       1.270  10.145  20.378  0.00  0.00    +0.000 A 
ATOM     13  C   UNL     1       0.630  11.015  21.290  0.00  0.00    +0.000 A 
ATOM     14  C   UNL     1      -0.274  10.473  22.174  0.00  0.00    +0.000 A 
ATOM     15  C   UNL     1      -0.468   9.089  22.163  0.00  0.00    +0.000 A 
ATOM     16  C   UNL     1       0.308   8.208  21.328  0.00  0.00    +0.000 A 
ATOM     17  C   UNL     1       1.253   8.708  20.416  0.00  0.00    +0.000 A 
ENDBRANCH   4   6
BRANCH   1  23
ATOM     18  C   UNL     1       5.662   6.280  17.481  0.00  0.00    +0.000 A 
ATOM     19  C   UNL     1       6.961   6.798  17.299  0.00  0.00    +0.000 A 
ATOM     20  C   UNL     1       7.961   6.585  18.250  0.00  0.00    +0.000 A 
ATOM     21  C   UNL     1       7.656   5.854  19.390  0.00  0.00    +0.000 A 
ATOM     22  C   UNL     1       6.363   5.343  19.576  0.00  0.00    +0.000 A 
ATOM     23  C   UNL     1       5.319   5.554  18.644  0.00  0.00    +0.000 A 
BRANCH  18  24
ATOM     24  O   UNL     1       4.794   6.543  16.448  0.00  0.00    +0.000 OA
BRANCH  24  26
ATOM     25  C   UNL     1       5.300   4.578  15.146  0.00  0.00    +0.000 C 
ATOM     26  C   UNL     1       5.295   6.096  15.184  0.00  0.00    +0.000 C 
ENDBRANCH  24  26
ENDBRANCH  18  24
ENDBRANCH   1  23
BRANCH   1  27
ATOM     27  C   UNL     1       4.096   3.431  19.050  0.00  0.00    +0.000 C 
ATOM     28  C   UNL     1       3.679   2.564  17.849  0.00  0.00    +0.000 C 
ENDBRANCH   1  27
TORSDOF 5
ENDMDL
MODEL 2
REMARK VINA RESULT:      -6.9      2.068      7.606
REMARK  Name = 
REMARK  8 active torsions:
REMARK  status: ('A' for Active; 'I' for Inactive)
REMARK    1  A    between atoms: C_1  and  C_2
REMARK    2  A    between atoms: C_2  and  O_3
REMARK    3  A    between atoms: O_3  and  C_4
REMARK    4  A    between atoms: C_9  and  N_10
REMARK    5  A    between atoms: N_10  and  C_11
REMARK    6  A    between atoms: C_11  and  C_12
REMARK    7  A    between atoms: N_15  and  C_16
REMARK    8  A    between atoms: N_18  and  C_19
REMARK                            x       y       z     vdW  Elec       q    Type
REMARK                         _______ _______ _______ _____ _____    ______ ____
ROOT
ATOM      1  N   UNL     1       1.095   9.925  19.087  0.00  0.00    +0.000 N 
ATOM      2  C   UNL     1       1.862   8.891  18.408  0.00  0.00    +0.000 C 
ATOM      3  O   UNL     1       2.409   9.059  17.314  0.00  0.00    +0.000 OA
ATOM      4  N   UNL     1       1.896   7.666  19.064  0.00  0.00    +0.000 N 
ATOM      5  H   UNL     1       1.155   7.672  19.768  0.00  0.00    +0.000 HD
ENDROOT
BRANCH   4   6
ATOM      6  C   UNL     1       2.485   6.416  18.902  0.00  0.00    +0.000 A 
ATOM      7  C   UNL     1       3.793   6.500  18.587  0.00  0.00    +0.000 A 
ATOM      8  N   UNL     1       4.559   5.420  18.189  0.00  0.00    +0.000 N 
ATOM      9  C   UNL     1       5.114   4.682  19.343  0.00  0.00    +0.000 C 
ATOM     10  C   UNL     1       3.881   4.603  17.281  0.00  0.00    +0.000 A 
ATOM     11  O   UNL     1       4.364   4.175  16.232  0.00  0.00    +0.000 OA
ATOM     12  C   UNL     1       2.561   4.154  17.803  0.00  0.00    +0.000 A 
ATOM     13  C   UNL     1       2.377   2.765  17.622  0.00  0.00    +0.000 A 
ATOM     14  C   UNL     1       1.777   2.055  18.634  0.00  0.00    +0.000 A 
ATOM     15  C   UNL     1       1.329   2.750  19.760  0.00  0.00    +0.000 A 
ATOM     16  C   UNL     1       1.389   4.187  19.855  0.00  0.00    +0.000 A 
ATOM     17  C   UNL     1       1.982   4.961  18.843  0.00  0.00    +0.000 A 
ENDBRANCH   4   6
BRANCH   1  23
ATOM     18  C   UNL     1      -0.577  10.571  20.896  0.00  0.00    +0.000 A 
ATOM     19  C   UNL     1      -0.965  10.558  22.252  0.00  0.00    +0.000 A 
ATOM     20  C   UNL     1      -0.204   9.887  23.211  0.00  0.00    +0.000 A 
ATOM     21  C   UNL     1       0.946   9.222  22.810  0.00  0.00    +0.000 A 
ATOM     22  C   UNL     1       1.331   9.230  21.460  0.00  0.00    +0.000 A 
ATOM     23  C   UNL     1       0.577   9.883  20.457  0.00  0.00    +0.000 A 
BRANCH  18  24
ATOM     24  O   UNL     1      -1.404  11.298  20.074  0.00  0.00    +0.000 OA
BRANCH  24  26
ATOM     25  C   UNL     1      -3.320  12.724  20.406  0.00  0.00    +0.000 C 
ATOM     26  C   UNL     1      -1.840  12.521  20.677  0.00  0.00    +0.000 C 
ENDBRANCH  24  26
ENDBRANCH  18  24
ENDBRANCH   1  23
BRANCH   1  27
ATOM     27  C   UNL     1       1.049  11.273  18.454  0.00  0.00    +0.000 C 
ATOM     28  C   UNL     1       2.036  12.321  18.997  0.00  0.00    +0.000 C 
ENDBRANCH   1  27
TORSDOF 5
ENDMDL
MODEL 3
REMARK VINA RESULT:      -6.7      1.559      3.240
REMARK  Name = 
REMARK  8 active torsions:
REMARK  status: ('A' for Active; 'I' for Inactive)
REMARK    1  A    between atoms: C_1  and  C_2
REMARK    2  A    between atoms: C_2  and  O_3
REMARK    3  A    between atoms: O_3  and  C_4
REMARK    4  A    between atoms: C_9  and  N_10
REMARK    5  A    between atoms: N_10  and  C_11
REMARK    6  A    between atoms: C_11  and  C_12
REMARK    7  A    between atoms: N_15  and  C_16
REMARK    8  A    between atoms: N_18  and  C_19
REMARK                            x       y       z     vdW  Elec       q    Type
REMARK                         _______ _______ _______ _____ _____    ______ ____
ROOT
ATOM      1  N   UNL     1       3.726   6.789  17.606  0.00  0.00    +0.000 N 
ATOM      2  C   UNL     1       3.016   8.054  17.726  0.00  0.00    +0.000 C 
ATOM      3  O   UNL     1       3.256   9.036  17.018  0.00  0.00    +0.000 OA
ATOM      4  N   UNL     1       2.066   8.096  18.739  0.00  0.00    +0.000 N 
ATOM      5  H   UNL     1       2.245   7.305  19.363  0.00  0.00    +0.000 HD
ENDROOT
BRANCH   4   6
ATOM      6  C   UNL     1       1.119   8.982  19.241  0.00  0.00    +0.000 A 
ATOM      7  C   UNL     1       0.555   9.735  18.275  0.00  0.00    +0.000 A 
ATOM      8  N   UNL     1      -0.270  10.816  18.525  0.00  0.00    +0.000 N 
ATOM      9  C   UNL     1      -1.677  10.404  18.713  0.00  0.00    +0.000 C 
ATOM     10  C   UNL     1       0.217  11.619  19.559  0.00  0.00    +0.000 A 
ATOM     11  O   UNL     1       0.297  12.846  19.511  0.00  0.00    +0.000 OA
ATOM     12  C   UNL     1       0.469  10.843  20.805  0.00  0.00    +0.000 A 
ATOM     13  C   UNL     1      -0.077  11.490  21.937  0.00  0.00    +0.000 A 
ATOM     14  C   UNL     1      -0.688  10.714  22.893  0.00  0.00    +0.000 A 
ATOM     15  C   UNL     1      -0.686   9.326  22.725  0.00  0.00    +0.000 A 
ATOM     16  C   UNL     1       0.010   8.681  21.641  0.00  0.00    +0.000 A 
ATOM     17  C   UNL     1       0.660   9.426  20.643  0.00  0.00    +0.000 A 
ENDBRANCH   4   6
BRANCH   1  23
ATOM     18  C   UNL     1       4.208   4.869  19.208  0.00  0.00    +0.000 A 
ATOM     19  C   UNL     1       3.861   3.606  19.730  0.00  0.00    +0.000 A 
ATOM     20  C   UNL     1       2.708   2.944  19.304  0.00  0.00    +0.000 A 
ATOM     21  C   UNL     1       1.897   3.554  18.356  0.00  0.00    +0.000 A 
ATOM     22  C   UNL     1       2.238   4.814  17.841  0.00  0.00    +0.000 A 
ATOM     23  C   UNL     1       3.388   5.523  18.261  0.00  0.00    +0.000 A 
BRANCH  18  24
ATOM     24  O   UNL     1       5.386   5.383  19.697  0.00  0.00    +0.000 OA
BRANCH  24  26
ATOM     25  C   UNL     1       7.746   5.729  19.348  0.00  0.00    +0.000 C 
ATOM     26  C   UNL     1       6.533   4.888  18.996  0.00  0.00    +0.000 C 
ENDBRANCH  24  26
ENDBRANCH  18  24
ENDBRANCH   1  23
BRANCH   1  27
ATOM     27  C   UNL     1       4.732   6.667  16.514  0.00  0.00    +0.000 C 
ATOM     28  C   UNL     1       4.914   5.268  15.900  0.00  0.00    +0.000 C 
ENDBRANCH   1  27
TORSDOF 5
ENDMDL
MODEL 4
REMARK VINA RESULT:      -6.7      2.188      7.306
REMARK  Name = 
REMARK  8 active torsions:
REMARK  status: ('A' for Active; 'I' for Inactive)
REMARK    1  A    between atoms: C_1  and  C_2
REMARK    2  A    between atoms: C_2  and  O_3
REMARK    3  A    between atoms: O_3  and  C_4
REMARK    4  A    between atoms: C_9  and  N_10
REMARK    5  A    between atoms: N_10  and  C_11
REMARK    6  A    between atoms: C_11  and  C_12
REMARK    7  A    between atoms: N_15  and  C_16
REMARK    8  A    between atoms: N_18  and  C_19
REMARK                            x       y       z     vdW  Elec       q    Type
REMARK                         _______ _______ _______ _____ _____    ______ ____
ROOT
ATOM      1  N   UNL     1       1.344  10.117  18.951  0.00  0.00    +0.000 N 
ATOM      2  C   UNL     1       2.066   8.964  18.435  0.00  0.00    +0.000 C 
ATOM      3  O   UNL     1       2.814   9.014  17.454  0.00  0.00    +0.000 OA
ATOM      4  N   UNL     1       1.816   7.772  19.105  0.00  0.00    +0.000 N 
ATOM      5  H   UNL     1       0.972   7.905  19.666  0.00  0.00    +0.000 HD
ENDROOT
BRANCH   4   6
ATOM      6  C   UNL     1       2.246   6.450  19.070  0.00  0.00    +0.000 A 
ATOM      7  C   UNL     1       3.076   6.205  18.037  0.00  0.00    +0.000 A 
ATOM      8  N   UNL     1       3.490   4.938  17.666  0.00  0.00    +0.000 N 
ATOM      9  C   UNL     1       4.676   4.500  18.432  0.00  0.00    +0.000 C 
ATOM     10  C   UNL     1       2.441   4.016  17.689  0.00  0.00    +0.000 A 
ATOM     11  O   UNL     1       2.197   3.214  16.788  0.00  0.00    +0.000 OA
ATOM     12  C   UNL     1       1.748   3.984  19.007  0.00  0.00    +0.000 A 
ATOM     13  C   UNL     1       1.565   2.659  19.464  0.00  0.00    +0.000 A 
ATOM     14  C   UNL     1       1.754   2.405  20.801  0.00  0.00    +0.000 A 
ATOM     15  C   UNL     1       2.058   3.475  21.646  0.00  0.00    +0.000 A 
ATOM     16  C   UNL     1       2.088   4.840  21.183  0.00  0.00    +0.000 A 
ATOM     17  C   UNL     1       1.891   5.156  19.828  0.00  0.00    +0.000 A 
ENDBRANCH   4   6
BRANCH   1  23
ATOM     18  C   UNL     1      -0.531  11.029  20.413  0.00  0.00    +0.000 A 
ATOM     19  C   UNL     1      -1.148  11.125  21.678  0.00  0.00    +0.000 A 
ATOM     20  C   UNL     1      -0.648  10.423  22.777  0.00  0.00    +0.000 A 
ATOM     21  C   UNL     1       0.470   9.619  22.606  0.00  0.00    +0.000 A 
ATOM     22  C   UNL     1       1.082   9.518  21.347  0.00  0.00    +0.000 A 
ATOM     23  C   UNL     1       0.594  10.199  20.207  0.00  0.00    +0.000 A 
BRANCH  18  24
ATOM     24  O   UNL     1      -1.113  11.800  19.436  0.00  0.00    +0.000 OA
BRANCH  24  26
ATOM     25  C   UNL     1      -2.167  10.273  17.897  0.00  0.00    +0.000 C 
ATOM     26  C   UNL     1      -2.379  11.283  19.010  0.00  0.00    +0.000 C 
ENDBRANCH  24  26
ENDBRANCH  18  24
ENDBRANCH   1  23
BRANCH   1  27
ATOM     27  C   UNL     1       1.596  11.433  18.299  0.00  0.00    +0.000 C 
ATOM     28  C   UNL     1       2.286  12.505  19.160  0.00  0.00    +0.000 C 
ENDBRANCH   1  27
TORSDOF 5
ENDMDL
MODEL 5
REMARK VINA RESULT:      -6.6      2.140      4.910
REMARK  Name = 
REMARK  8 active torsions:
REMARK  status: ('A' for Active; 'I' for Inactive)
REMARK    1  A    between atoms: C_1  and  C_2
REMARK    2  A    between atoms: C_2  and  O_3
REMARK    3  A    between atoms: O_3  and  C_4
REMARK    4  A    between atoms: C_9  and  N_10
REMARK    5  A    between atoms: N_10  and  C_11
REMARK    6  A    between atoms: C_11  and  C_12
REMARK    7  A    between atoms: N_15  and  C_16
REMARK    8  A    between atoms: N_18  and  C_19
REMARK                            x       y       z     vdW  Elec       q    Type
REMARK                         _______ _______ _______ _____ _____    ______ ____
ROOT
ATOM      1  N   UNL     1       2.991   7.153  18.027  0.00  0.00    +0.000 N 
ATOM      2  C   UNL     1       2.519   8.504  17.759  0.00  0.00    +0.000 C 
ATOM      3  O   UNL     1       3.129   9.308  17.049  0.00  0.00    +0.000 OA
ATOM      4  N   UNL     1       1.338   8.848  18.407  0.00  0.00    +0.000 N 
ATOM      5  H   UNL     1       1.180   8.160  19.147  0.00  0.00    +0.000 HD
ENDROOT
BRANCH   4   6
ATOM      6  C   UNL     1       0.463   9.927  18.470  0.00  0.00    +0.000 A 
ATOM      7  C   UNL     1       1.005  10.994  19.090  0.00  0.00    +0.000 A 
ATOM      8  N   UNL     1       0.288  12.120  19.452  0.00  0.00    +0.000 N 
ATOM      9  C   UNL     1       0.194  13.093  18.344  0.00  0.00    +0.000 C 
ATOM     10  C   UNL     1      -0.950  11.796  20.012  0.00  0.00    +0.000 A 
ATOM     11  O   UNL     1      -1.398  12.288  21.048  0.00  0.00    +0.000 OA
ATOM     12  C   UNL     1      -1.757  10.914  19.124  0.00  0.00    +0.000 A 
ATOM     13  C   UNL     1      -3.086  11.380  19.001  0.00  0.00    +0.000 A 
ATOM     14  C   UNL     1      -3.682  11.311  17.764  0.00  0.00    +0.000 A 
ATOM     15  C   UNL     1      -2.968  10.734  16.711  0.00  0.00    +0.000 A 
ATOM     16  C   UNL     1      -1.674  10.127  16.898  0.00  0.00    +0.000 A 
ATOM     17  C   UNL     1      -1.025  10.159  18.143  0.00  0.00    +0.000 A 
ENDBRANCH   4   6
BRANCH   1  23
ATOM     18  C   UNL     1       1.879   6.087  20.054  0.00  0.00    +0.000 A 
ATOM     19  C   UNL     1       1.249   4.974  20.649  0.00  0.00    +0.000 A 
ATOM     20  C   UNL     1       0.999   3.812  19.916  0.00  0.00    +0.000 A 
ATOM     21  C   UNL     1       1.377   3.767  18.582  0.00  0.00    +0.000 A 
ATOM     22  C   UNL     1       1.999   4.876  17.986  0.00  0.00    +0.000 A 
ATOM     23  C   UNL     1       2.252   6.076  18.691  0.00  0.00    +0.000 A 
BRANCH  18  24
ATOM     24  O   UNL     1       2.088   7.145  20.906  0.00  0.00    +0.000 OA
BRANCH  24  26
ATOM     25  C   UNL     1       1.152   8.988  22.146  0.00  0.00    +0.000 C 
ATOM     26  C   UNL     1       0.865   7.691  21.413  0.00  0.00    +0.000 C 
ENDBRANCH  24  26
ENDBRANCH  18  24
ENDBRANCH   1  23
BRANCH   1  27
ATOM     27  C   UNL     1       4.232   6.710  17.333  0.00  0.00    +0.000 C 
ATOM     28  C   UNL     1       5.277   5.979  18.194  0.00  0.00    +0.000 C 
ENDBRANCH   1  27
TORSDOF 5
ENDMDL
MODEL 6
REMARK VINA RESULT:      -6.6      2.219      7.547
REMARK  Name = 
REMARK  8 active torsions:
REMARK  status: ('A' for Active; 'I' for Inactive)
REMARK    1  A    between atoms: C_1  and  C_2
REMARK    2  A    between atoms: C_2  and  O_3
REMARK    3  A    between atoms: O_3  and  C_4
REMARK    4  A    between atoms: C_9  and  N_10
REMARK    5  A    between atoms: N_10  and  C_11
REMARK    6  A    between atoms: C_11  and  C_12
REMARK    7  A    between atoms: N_15  and  C_16
REMARK    8  A    between atoms: N_18  and  C_19
REMARK                            x       y       z     vdW  Elec       q    Type
REMARK                         _______ _______ _______ _____ _____    ______ ____
ROOT
ATOM      1  N   UNL     1       0.992  10.075  19.178  0.00  0.00    +0.000 N 
ATOM      2  C   UNL     1       1.719   8.970  18.570  0.00  0.00    +0.000 C 
ATOM      3  O   UNL     1       2.327   9.066  17.500  0.00  0.00    +0.000 OA
ATOM      4  N   UNL     1       1.642   7.769  19.264  0.00  0.00    +0.000 N 
ATOM      5  H   UNL     1       0.870   7.847  19.930  0.00  0.00    +0.000 HD
ENDROOT
BRANCH   4   6
ATOM      6  C   UNL     1       2.153   6.479  19.170  0.00  0.00    +0.000 A 
ATOM      7  C   UNL     1       3.011   6.339  18.139  0.00  0.00    +0.000 A 
ATOM      8  N   UNL     1       3.509   5.121  17.713  0.00  0.00    +0.000 N 
ATOM      9  C   UNL     1       4.709   4.718  18.475  0.00  0.00    +0.000 C 
ATOM     10  C   UNL     1       2.519   4.136  17.672  0.00  0.00    +0.000 A 
ATOM     11  O   UNL     1       2.338   3.367  16.727  0.00  0.00    +0.000 OA
ATOM     12  C   UNL     1       1.811   3.994  18.974  0.00  0.00    +0.000 A 
ATOM     13  C   UNL     1       1.705   2.638  19.360  0.00  0.00    +0.000 A 
ATOM     14  C   UNL     1       1.891   2.328  20.687  0.00  0.00    +0.000 A 
ATOM     15  C   UNL     1       2.116   3.371  21.589  0.00  0.00    +0.000 A 
ATOM     16  C   UNL     1       2.067   4.756  21.196  0.00  0.00    +0.000 A 
ATOM     17  C   UNL     1       1.869   5.129  19.855  0.00  0.00    +0.000 A 
ENDBRANCH   4   6
BRANCH   1  23
ATOM     18  C   UNL     1      -0.616  11.000  20.923  0.00  0.00    +0.000 A 
ATOM     19  C   UNL     1      -1.066  11.042  22.259  0.00  0.00    +0.000 A 
ATOM     20  C   UNL     1      -0.493  10.226  23.237  0.00  0.00    +0.000 A 
ATOM     21  C   UNL     1       0.531   9.363  22.874  0.00  0.00    +0.000 A 
ATOM     22  C   UNL     1       0.976   9.315  21.544  0.00  0.00    +0.000 A 
ATOM     23  C   UNL     1       0.408  10.112  20.522  0.00  0.00    +0.000 A 
BRANCH  18  24
ATOM     24  O   UNL     1      -1.251  11.880  20.080  0.00  0.00    +0.000 OA
BRANCH  24  26
ATOM     25  C   UNL     1      -0.998  14.243  19.673  0.00  0.00    +0.000 C 
ATOM     26  C   UNL     1      -1.420  13.176  20.666  0.00  0.00    +0.000 C 
ENDBRANCH  24  26
ENDBRANCH  18  24
ENDBRANCH   1  23
BRANCH   1  27
ATOM     27  C   UNL     1       1.066  11.401  18.503  0.00  0.00    +0.000 C 
ATOM     28  C   UNL     1       2.175  12.354  18.980  0.00  0.00    +0.000 C 
ENDBRANCH   1  27
TORSDOF 5
ENDMDL
MODEL 7
REMARK VINA RESULT:      -6.5      5.158      9.872
REMARK  Name = 
REMARK  8 active torsions:
REMARK  status: ('A' for Active; 'I' for Inactive)
REMARK    1  A    between atoms: C_1  and  C_2
REMARK    2  A    between atoms: C_2  and  O_3
REMARK    3  A    between atoms: O_3  and  C_4
REMARK    4  A    between atoms: C_9  and  N_10
REMARK    5  A    between atoms: N_10  and  C_11
REMARK    6  A    between atoms: C_11  and  C_12
REMARK    7  A    between atoms: N_15  and  C_16
REMARK    8  A    between atoms: N_18  and  C_19
REMARK                            x       y       z     vdW  Elec       q    Type
REMARK                         _______ _______ _______ _____ _____    ______ ____
ROOT
ATOM      1  N   UNL     1      -4.808  13.605  20.443  0.00  0.00    +0.000 N 
ATOM      2  C   UNL     1      -3.379  13.665  20.714  0.00  0.00    +0.000 C 
ATOM      3  O   UNL     1      -2.812  14.674  21.145  0.00  0.00    +0.000 OA
ATOM      4  N   UNL     1      -2.678  12.506  20.404  0.00  0.00    +0.000 N 
ATOM      5  H   UNL     1      -3.277  11.934  19.804  0.00  0.00    +0.000 HD
ENDROOT
BRANCH   4   6
ATOM      6  C   UNL     1      -1.378  12.020  20.499  0.00  0.00    +0.000 A 
ATOM      7  C   UNL     1      -0.511  12.718  19.738  0.00  0.00    +0.000 A 
ATOM      8  N   UNL     1       0.795  12.327  19.506  0.00  0.00    +0.000 N 
ATOM      9  C   UNL     1       1.707  12.789  20.573  0.00  0.00    +0.000 C 
ATOM     10  C   UNL     1       0.894  10.959  19.244  0.00  0.00    +0.000 A 
ATOM     11  O   UNL     1       1.540  10.470  18.316  0.00  0.00    +0.000 OA
ATOM     12  C   UNL     1       0.275  10.133  20.318  0.00  0.00    +0.000 A 
ATOM     13  C   UNL     1       1.128   9.078  20.716  0.00  0.00    +0.000 A 
ATOM     14  C   UNL     1       1.202   8.778  22.055  0.00  0.00    +0.000 A 
ATOM     15  C   UNL     1       0.392   9.489  22.943  0.00  0.00    +0.000 A 
ATOM     16  C   UNL     1      -0.580  10.455  22.496  0.00  0.00    +0.000 A 
ATOM     17  C   UNL     1      -0.706  10.791  21.138  0.00  0.00    +0.000 A 
ENDBRANCH   4   6
BRANCH   1  23
ATOM     18  C   UNL     1      -5.478  11.684  18.911  0.00  0.00    +0.000 A 
ATOM     19  C   UNL     1      -6.332  10.600  18.625  0.00  0.00    +0.000 A 
ATOM     20  C   UNL     1      -7.343  10.227  19.513  0.00  0.00    +0.000 A 
ATOM     21  C   UNL     1      -7.494  10.941  20.694  0.00  0.00    +0.000 A 
ATOM     22  C   UNL     1      -6.641  12.017  20.982  0.00  0.00    +0.000 A 
ATOM     23  C   UNL     1      -5.594  12.412  20.116  0.00  0.00    +0.000 A 
BRANCH  18  24
ATOM     24  O   UNL     1      -4.553  11.954  17.930  0.00  0.00    +0.000 OA
BRANCH  24  26
ATOM     25  C   UNL     1      -2.944  10.183  17.630  0.00  0.00    +0.000 C 
ATOM     26  C   UNL     1      -4.240  10.802  17.139  0.00  0.00    +0.000 C 
ENDBRANCH  24  26
ENDBRANCH  18  24
ENDBRANCH   1  23
BRANCH   1  27
ATOM     27  C   UNL     1      -5.624  14.803  20.788  0.00  0.00    +0.000 C 
ATOM     28  C   UNL     1      -6.009  15.732  19.623  0.00  0.00    +0.000 C 
ENDBRANCH   1  27
TORSDOF 5
ENDMDL
MODEL 8
REMARK VINA RESULT:      -6.4      2.308      7.273
REMARK  Name = 
REMARK  8 active torsions:
REMARK  status: ('A' for Active; 'I' for Inactive)
REMARK    1  A    between atoms: C_1  and  C_2
REMARK    2  A    between atoms: C_2  and  O_3
REMARK    3  A    between atoms: O_3  and  C_4
REMARK    4  A    between atoms: C_9  and  N_10
REMARK    5  A    between atoms: N_10  and  C_11
REMARK    6  A    between atoms: C_11  and  C_12
REMARK    7  A    between atoms: N_15  and  C_16
REMARK    8  A    between atoms: N_18  and  C_19
REMARK                            x       y       z     vdW  Elec       q    Type
REMARK                         _______ _______ _______ _____ _____    ______ ____
ROOT
ATOM      1  N   UNL     1       0.541  10.105  20.948  0.00  0.00    +0.000 N 
ATOM      2  C   UNL     1       1.184   8.818  21.175  0.00  0.00    +0.000 C 
ATOM      3  O   UNL     1       1.565   8.437  22.286  0.00  0.00    +0.000 OA
ATOM      4  N   UNL     1       1.384   8.057  20.030  0.00  0.00    +0.000 N 
ATOM      5  H   UNL     1       1.269   8.675  19.224  0.00  0.00    +0.000 HD
ENDROOT
BRANCH   4   6
ATOM      6  C   UNL     1       1.880   6.803  19.689  0.00  0.00    +0.000 A 
ATOM      7  C   UNL     1       2.553   6.816  18.521  0.00  0.00    +0.000 A 
ATOM      8  N   UNL     1       2.979   5.675  17.865  0.00  0.00    +0.000 N 
ATOM      9  C   UNL     1       4.292   5.212  18.360  0.00  0.00    +0.000 C 
ATOM     10  C   UNL     1       2.002   4.676  17.864  0.00  0.00    +0.000 A 
ATOM     11  O   UNL     1       1.669   4.027  16.873  0.00  0.00    +0.000 OA
ATOM     12  C   UNL     1       1.524   4.354  19.237  0.00  0.00    +0.000 A 
ATOM     13  C   UNL     1       1.493   2.958  19.460  0.00  0.00    +0.000 A 
ATOM     14  C   UNL     1       1.901   2.490  20.686  0.00  0.00    +0.000 A 
ATOM     15  C   UNL     1       2.268   3.418  21.664  0.00  0.00    +0.000 A 
ATOM     16  C   UNL     1       2.146   4.840  21.464  0.00  0.00    +0.000 A 
ATOM     17  C   UNL     1       1.723   5.371  20.234  0.00  0.00    +0.000 A 
ENDBRANCH   4   6
BRANCH   1  23
ATOM     18  C   UNL     1       0.261  11.718  18.998  0.00  0.00    +0.000 A 
ATOM     19  C   UNL     1      -0.471  12.146  17.871  0.00  0.00    +0.000 A 
ATOM     20  C   UNL     1      -1.607  11.454  17.446  0.00  0.00    +0.000 A 
ATOM     21  C   UNL     1      -2.008  10.327  18.150  0.00  0.00    +0.000 A 
ATOM     22  C   UNL     1      -1.277   9.896  19.268  0.00  0.00    +0.000 A 
ATOM     23  C   UNL     1      -0.111  10.560  19.717  0.00  0.00    +0.000 A 
BRANCH  18  24
ATOM     24  O   UNL     1       1.334  12.515  19.315  0.00  0.00    +0.000 OA
BRANCH  24  26
ATOM     25  C   UNL     1       2.814  14.064  18.209  0.00  0.00    +0.000 C 
ATOM     26  C   UNL     1       2.256  12.652  18.228  0.00  0.00    +0.000 C 
ENDBRANCH  24  26
ENDBRANCH  18  24
ENDBRANCH   1  23
BRANCH   1  27
ATOM     27  C   UNL     1       0.263  10.954  22.141  0.00  0.00    +0.000 C 
ATOM     28  C   UNL     1      -0.923  10.531  23.024  0.00  0.00    +0.000 C 
ENDBRANCH   1  27
TORSDOF 5
ENDMDL
MODEL 9
REMARK VINA RESULT:      -6.4      1.630      3.458
REMARK  Name = 
REMARK  8 active torsions:
REMARK  status: ('A' for Active; 'I' for Inactive)
REMARK    1  A    between atoms: C_1  and  C_2
REMARK    2  A    between atoms: C_2  and  O_3
REMARK    3  A    between atoms: O_3  and  C_4
REMARK    4  A    between atoms: C_9  and  N_10
REMARK    5  A    between atoms: N_10  and  C_11
REMARK    6  A    between atoms: C_11  and  C_12
REMARK    7  A    between atoms: N_15  and  C_16
REMARK    8  A    between atoms: N_18  and  C_19
REMARK                            x       y       z     vdW  Elec       q    Type
REMARK                         _______ _______ _______ _____ _____    ______ ____
ROOT
ATOM      1  N   UNL     1       3.415   5.924  18.774  0.00  0.00    +0.000 N 
ATOM      2  C   UNL     1       2.961   7.296  18.601  0.00  0.00    +0.000 C 
ATOM      3  O   UNL     1       3.501   8.096  17.830  0.00  0.00    +0.000 OA
ATOM      4  N   UNL     1       1.893   7.664  19.409  0.00  0.00    +0.000 N 
ATOM      5  H   UNL     1       1.811   6.964  20.150  0.00  0.00    +0.000 HD
ENDROOT
BRANCH   4   6
ATOM      6  C   UNL     1       1.075   8.771  19.613  0.00  0.00    +0.000 A 
ATOM      7  C   UNL     1       0.699   9.353  18.456  0.00  0.00    +0.000 A 
ATOM      8  N   UNL     1       0.048  10.571  18.384  0.00  0.00    +0.000 N 
ATOM      9  C   UNL     1      -1.415  10.423  18.525  0.00  0.00    +0.000 C 
ATOM     10  C   UNL     1       0.599  11.512  19.257  0.00  0.00    +0.000 A 
ATOM     11  O   UNL     1       0.881  12.670  18.948  0.00  0.00    +0.000 OA
ATOM     12  C   UNL     1       0.648  11.017  20.661  0.00  0.00    +0.000 A 
ATOM     13  C   UNL     1       0.150  11.982  21.566  0.00  0.00    +0.000 A 
ATOM     14  C   UNL     1      -0.634  11.546  22.608  0.00  0.00    +0.000 A 
ATOM     15  C   UNL     1      -0.849  10.173  22.750  0.00  0.00    +0.000 A 
ATOM     16  C   UNL     1      -0.206   9.199  21.905  0.00  0.00    +0.000 A 
ATOM     17  C   UNL     1       0.614   9.590  20.833  0.00  0.00    +0.000 A 
ENDBRANCH   4   6
BRANCH   1  23
ATOM     18  C   UNL     1       1.995   3.813  18.906  0.00  0.00    +0.000 A 
ATOM     19  C   UNL     1       1.288   2.872  19.682  0.00  0.00    +0.000 A 
ATOM     20  C   UNL     1       1.268   2.958  21.076  0.00  0.00    +0.000 A 
ATOM     21  C   UNL     1       1.964   3.987  21.694  0.00  0.00    +0.000 A 
ATOM     22  C   UNL     1       2.674   4.922  20.924  0.00  0.00    +0.000 A 
ATOM     23  C   UNL     1       2.732   4.857  19.511  0.00  0.00    +0.000 A 
BRANCH  18  24
ATOM     24  O   UNL     1       1.897   3.621  17.549  0.00  0.00    +0.000 OA
BRANCH  24  26
ATOM     25  C   UNL     1       3.687   2.020  17.764  0.00  0.00    +0.000 C 
ATOM     26  C   UNL     1       2.332   2.317  17.147  0.00  0.00    +0.000 C 
ENDBRANCH  24  26
ENDBRANCH  18  24
ENDBRANCH   1  23
BRANCH   1  27
ATOM     27  C   UNL     1       4.534   5.455  17.909  0.00  0.00    +0.000 C 
ATOM     28  C   UNL     1       5.839   5.066  18.625  0.00  0.00    +0.000 C 
ENDBRANCH   1  27
TORSDOF 5
ENDMDL
