MODEL 1
REMARK VINA RESULT:      -8.1      0.000      0.000
REMARK  Name = 
REMARK  10 active torsions:
REMARK  status: ('A' for Active; 'I' for Inactive)
REMARK    1  A    between atoms: C_1  and  N_2
REMARK    2  A    between atoms: N_4  and  C_5
REMARK    3  A    between atoms: N_7  and  C_8
REMARK    4  A    between atoms: C_12  and  C_13
REMARK    5  A    between atoms: C_13  and  C_21
REMARK    6  A    between atoms: C_14  and  C_15
REMARK    7  A    between atoms: C_15  and  C_16
REMARK    8  A    between atoms: C_16  and  C_17
REMARK    9  A    between atoms: C_17  and  C_18
REMARK   10  A    between atoms: C_18  and  O_20
REMARK                            x       y       z     vdW  Elec       q    Type
REMARK                         _______ _______ _______ _____ _____    ______ ____
ROOT
ATOM      1  C   UNL     1       6.213   5.357  16.027  0.00  0.00    +0.000 A 
ATOM      2  C   UNL     1       7.145   5.030  17.022  0.00  0.00    +0.000 A 
ATOM      3  C   UNL     1       6.750   4.827  18.347  0.00  0.00    +0.000 A 
ATOM      4  C   UNL     1       5.408   4.985  18.710  0.00  0.00    +0.000 A 
ATOM      5  C   UNL     1       4.458   5.321  17.743  0.00  0.00    +0.000 A 
ATOM      6  C   UNL     1       4.870   5.478  16.408  0.00  0.00    +0.000 A 
ENDROOT
BRANCH   1  11
ATOM      7  C   UNL     1       8.712   5.915  12.783  0.00  0.00    +0.000 C 
ATOM      8  N   UNL     1       7.672   4.909  12.692  0.00  0.00    +0.000 NA
ATOM      9  C   UNL     1       6.773   4.807  13.615  0.00  0.00    +0.000 C 
ATOM     10  N   UNL     1       5.770   3.883  13.519  0.00  0.00    +0.000 N 
ATOM     11  N   UNL     1       6.696   5.621  14.723  0.00  0.00    +0.000 N 
ATOM     12  H   UNL     1       4.881   4.180  13.889  0.00  0.00    +0.000 HD
ATOM     13  H   UNL     1       7.352   6.392  14.721  0.00  0.00    +0.000 HD
BRANCH  10  14
ATOM     14  C   UNL     1       5.724   3.005  12.385  0.00  0.00    +0.000 C 
ATOM     15  N   UNL     1       5.688   2.214  11.537  0.00  0.00    +0.000 NA
ENDBRANCH  10  14
ENDBRANCH   1  11
BRANCH   5  16
ATOM     16  C   UNL     1       3.025   5.514  18.063  0.00  0.00    +0.000 C 
ATOM     17  C   UNL     1       2.130   4.514  17.906  0.00  0.00    +0.000 C 
BRANCH  16  18
ATOM     18  C   UNL     1       2.455   6.808  18.501  0.00  0.00    +0.000 A 
ATOM     19  C   UNL     1       2.369   7.891  17.623  0.00  0.00    +0.000 A 
ATOM     20  C   UNL     1       1.919   9.127  18.090  0.00  0.00    +0.000 A 
ATOM     21  C   UNL     1       1.557   9.235  19.422  0.00  0.00    +0.000 A 
ATOM     22  N   UNL     1       1.611   8.211  20.298  0.00  0.00    +0.000 NA
ATOM     23  C   UNL     1       2.065   7.026  19.821  0.00  0.00    +0.000 A 
ENDBRANCH  16  18
BRANCH  17  24
ATOM     24  C   UNL     1       2.408   3.085  17.536  0.00  0.00    +0.000 C 
BRANCH  24  25
ATOM     25  C   UNL     1       2.272   2.091  18.694  0.00  0.00    +0.000 C 
BRANCH  25  26
ATOM     26  C   UNL     1       2.606   2.810  20.004  0.00  0.00    +0.000 C 
BRANCH  26  27
ATOM     27  C   UNL     1       1.488   2.774  21.014  0.00  0.00    +0.000 C 
ATOM     28  O   UNL     1       1.598   2.435  22.181  0.00  0.00    +0.000 OA
BRANCH  27  29
ATOM     29  O   UNL     1       0.307   3.158  20.476  0.00  0.00    +0.000 OA
ATOM     30  H   UNL     1      -0.383   3.359  21.138  0.00  0.00    +0.000 HD
ENDBRANCH  27  29
ENDBRANCH  26  27
ENDBRANCH  25  26
ENDBRANCH  24  25
ENDBRANCH  17  24
ENDBRANCH   5  16
TORSDOF 9
ENDMDL
MODEL 2
REMARK VINA RESULT:      -8.0      1.134      1.574
REMARK  Name = 
REMARK  10 active torsions:
REMARK  status: ('A' for Active; 'I' for Inactive)
REMARK    1  A    between atoms: C_1  and  N_2
REMARK    2  A    between atoms: N_4  and  C_5
REMARK    3  A    between atoms: N_7  and  C_8
REMARK    4  A    between atoms: C_12  and  C_13
REMARK    5  A    between atoms: C_13  and  C_21
REMARK    6  A    between atoms: C_14  and  C_15
REMARK    7  A    between atoms: C_15  and  C_16
REMARK    8  A    between atoms: C_16  and  C_17
REMARK    9  A    between atoms: C_17  and  C_18
REMARK   10  A    between atoms: C_18  and  O_20
REMARK                            x       y       z     vdW  Elec       q    Type
REMARK                         _______ _______ _______ _____ _____    ______ ____
ROOT
ATOM      1  C   UNL     1       6.257   5.501  16.166  0.00  0.00    +0.000 A 
ATOM      2  C   UNL     1       7.178   5.227  17.188  0.00  0.00    +0.000 A 
ATOM      3  C   UNL     1       6.765   5.077  18.514  0.00  0.00    +0.000 A 
ATOM      4  C   UNL     1       5.417   5.237  18.851  0.00  0.00    +0.000 A 
ATOM      5  C   UNL     1       4.478   5.522  17.857  0.00  0.00    +0.000 A 
ATOM      6  C   UNL     1       4.908   5.625  16.523  0.00  0.00    +0.000 A 
ENDROOT
BRANCH   1  11
ATOM      7  C   UNL     1       8.790   5.873  12.922  0.00  0.00    +0.000 C 
ATOM      8  N   UNL     1       7.705   4.913  12.849  0.00  0.00    +0.000 NA
ATOM      9  C   UNL     1       6.799   4.873  13.770  0.00  0.00    +0.000 C 
ATOM     10  N   UNL     1       5.755   3.993  13.690  0.00  0.00    +0.000 N 
ATOM     11  N   UNL     1       6.756   5.714  14.859  0.00  0.00    +0.000 N 
ATOM     12  H   UNL     1       4.879   4.339  14.049  0.00  0.00    +0.000 HD
ATOM     13  H   UNL     1       7.446   6.454  14.843  0.00  0.00    +0.000 HD
BRANCH  10  14
ATOM     14  C   UNL     1       5.673   3.094  12.575  0.00  0.00    +0.000 C 
ATOM     15  N   UNL     1       5.500   2.366  11.688  0.00  0.00    +0.000 NA
ENDBRANCH  10  14
ENDBRANCH   1  11
BRANCH   5  16
ATOM     16  C   UNL     1       3.039   5.715  18.150  0.00  0.00    +0.000 C 
ATOM     17  C   UNL     1       2.122   4.784  17.805  0.00  0.00    +0.000 C 
BRANCH  16  18
ATOM     18  C   UNL     1       2.489   6.945  18.762  0.00  0.00    +0.000 A 
ATOM     19  C   UNL     1       2.145   6.984  20.116  0.00  0.00    +0.000 A 
ATOM     20  C   UNL     1       1.538   8.124  20.643  0.00  0.00    +0.000 A 
ATOM     21  C   UNL     1       1.304   9.196  19.799  0.00  0.00    +0.000 A 
ATOM     22  N   UNL     1       1.635   9.205  18.491  0.00  0.00    +0.000 NA
ATOM     23  C   UNL     1       2.211   8.079  18.002  0.00  0.00    +0.000 A 
ENDBRANCH  16  18
BRANCH  17  24
ATOM     24  C   UNL     1       2.373   3.420  17.226  0.00  0.00    +0.000 C 
BRANCH  24  25
ATOM     25  C   UNL     1       2.021   2.259  18.163  0.00  0.00    +0.000 C 
BRANCH  25  26
ATOM     26  C   UNL     1       3.318   1.590  18.628  0.00  0.00    +0.000 C 
BRANCH  26  27
ATOM     27  C   UNL     1       3.881   2.179  19.895  0.00  0.00    +0.000 C 
ATOM     28  O   UNL     1       3.239   2.772  20.747  0.00  0.00    +0.000 OA
BRANCH  27  29
ATOM     29  O   UNL     1       5.217   1.989  19.992  0.00  0.00    +0.000 OA
ATOM     30  H   UNL     1       5.488   1.483  20.782  0.00  0.00    +0.000 HD
ENDBRANCH  27  29
ENDBRANCH  26  27
ENDBRANCH  25  26
ENDBRANCH  24  25
ENDBRANCH  17  24
ENDBRANCH   5  16
TORSDOF 9
ENDMDL
MODEL 3
REMARK VINA RESULT:      -8.0      0.700      1.037
REMARK  Name = 
REMARK  10 active torsions:
REMARK  status: ('A' for Active; 'I' for Inactive)
REMARK    1  A    between atoms: C_1  and  N_2
REMARK    2  A    between atoms: N_4  and  C_5
REMARK    3  A    between atoms: N_7  and  C_8
REMARK    4  A    between atoms: C_12  and  C_13
REMARK    5  A    between atoms: C_13  and  C_21
REMARK    6  A    between atoms: C_14  and  C_15
REMARK    7  A    between atoms: C_15  and  C_16
REMARK    8  A    between atoms: C_16  and  C_17
REMARK    9  A    between atoms: C_17  and  C_18
REMARK   10  A    between atoms: C_18  and  O_20
REMARK                            x       y       z     vdW  Elec       q    Type
REMARK                         _______ _______ _______ _____ _____    ______ ____
ROOT
ATOM      1  C   UNL     1       6.152   5.555  16.277  0.00  0.00    +0.000 A 
ATOM      2  C   UNL     1       7.033   5.189  17.305  0.00  0.00    +0.000 A 
ATOM      3  C   UNL     1       6.584   5.013  18.616  0.00  0.00    +0.000 A 
ATOM      4  C   UNL     1       5.240   5.240  18.933  0.00  0.00    +0.000 A 
ATOM      5  C   UNL     1       4.341   5.616  17.933  0.00  0.00    +0.000 A 
ATOM      6  C   UNL     1       4.805   5.744  16.613  0.00  0.00    +0.000 A 
ENDROOT
BRANCH   1  11
ATOM      7  C   UNL     1       8.781   5.961  13.115  0.00  0.00    +0.000 C 
ATOM      8  N   UNL     1       7.690   5.014  12.992  0.00  0.00    +0.000 NA
ATOM      9  C   UNL     1       6.757   4.966  13.886  0.00  0.00    +0.000 C 
ATOM     10  N   UNL     1       5.708   4.099  13.759  0.00  0.00    +0.000 N 
ATOM     11  N   UNL     1       6.691   5.787  14.990  0.00  0.00    +0.000 N 
ATOM     12  H   UNL     1       4.825   4.447  14.100  0.00  0.00    +0.000 HD
ATOM     13  H   UNL     1       7.388   6.520  15.007  0.00  0.00    +0.000 HD
BRANCH  10  14
ATOM     14  C   UNL     1       5.649   3.221  12.626  0.00  0.00    +0.000 C 
ATOM     15  N   UNL     1       5.532   2.452  11.764  0.00  0.00    +0.000 NA
ENDBRANCH  10  14
ENDBRANCH   1  11
BRANCH   5  16
ATOM     16  C   UNL     1       2.910   5.882  18.205  0.00  0.00    +0.000 C 
ATOM     17  C   UNL     1       1.965   4.944  17.970  0.00  0.00    +0.000 C 
BRANCH  16  18
ATOM     18  C   UNL     1       2.398   7.189  18.674  0.00  0.00    +0.000 A 
ATOM     19  C   UNL     1       2.002   7.373  20.001  0.00  0.00    +0.000 A 
ATOM     20  C   UNL     1       1.432   8.585  20.392  0.00  0.00    +0.000 A 
ATOM     21  C   UNL     1       1.286   9.581  19.441  0.00  0.00    +0.000 A 
ATOM     22  N   UNL     1       1.669   9.450  18.154  0.00  0.00    +0.000 NA
ATOM     23  C   UNL     1       2.208   8.257  17.799  0.00  0.00    +0.000 A 
ENDBRANCH  16  18
BRANCH  17  24
ATOM     24  C   UNL     1       2.175   3.517  17.550  0.00  0.00    +0.000 C 
BRANCH  24  25
ATOM     25  C   UNL     1       1.545   2.481  18.488  0.00  0.00    +0.000 C 
BRANCH  25  26
ATOM     26  C   UNL     1       2.502   2.224  19.655  0.00  0.00    +0.000 C 
BRANCH  26  27
ATOM     27  C   UNL     1       1.956   2.658  20.990  0.00  0.00    +0.000 C 
ATOM     28  O   UNL     1       2.588   2.704  22.034  0.00  0.00    +0.000 OA
BRANCH  27  29
ATOM     29  O   UNL     1       0.647   2.994  20.917  0.00  0.00    +0.000 OA
ATOM     30  H   UNL     1       0.146   2.812  21.736  0.00  0.00    +0.000 HD
ENDBRANCH  27  29
ENDBRANCH  26  27
ENDBRANCH  25  26
ENDBRANCH  24  25
ENDBRANCH  17  24
ENDBRANCH   5  16
TORSDOF 9
ENDMDL
MODEL 4
REMARK VINA RESULT:      -7.7      2.765      6.940
REMARK  Name = 
REMARK  10 active torsions:
REMARK  status: ('A' for Active; 'I' for Inactive)
REMARK    1  A    between atoms: C_1  and  N_2
REMARK    2  A    between atoms: N_4  and  C_5
REMARK    3  A    between atoms: N_7  and  C_8
REMARK    4  A    between atoms: C_12  and  C_13
REMARK    5  A    between atoms: C_13  and  C_21
REMARK    6  A    between atoms: C_14  and  C_15
REMARK    7  A    between atoms: C_15  and  C_16
REMARK    8  A    between atoms: C_16  and  C_17
REMARK    9  A    between atoms: C_17  and  C_18
REMARK   10  A    between atoms: C_18  and  O_20
REMARK                            x       y       z     vdW  Elec       q    Type
REMARK                         _______ _______ _______ _____ _____    ______ ____
ROOT
ATOM      1  C   UNL     1       1.233   9.005  18.940  0.00  0.00    +0.000 A 
ATOM      2  C   UNL     1       0.999   8.821  20.310  0.00  0.00    +0.000 A 
ATOM      3  C   UNL     1       1.547   7.737  21.000  0.00  0.00    +0.000 A 
ATOM      4  C   UNL     1       2.316   6.788  20.317  0.00  0.00    +0.000 A 
ATOM      5  C   UNL     1       2.557   6.938  18.950  0.00  0.00    +0.000 A 
ATOM      6  C   UNL     1       2.033   8.060  18.285  0.00  0.00    +0.000 A 
ENDROOT
BRANCH   1  11
ATOM      7  C   UNL     1      -1.404  12.058  18.042  0.00  0.00    +0.000 C 
ATOM      8  N   UNL     1       0.008  12.371  18.154  0.00  0.00    +0.000 NA
ATOM      9  C   UNL     1       0.883  11.428  18.277  0.00  0.00    +0.000 C 
ATOM     10  N   UNL     1       2.218  11.714  18.348  0.00  0.00    +0.000 N 
ATOM     11  N   UNL     1       0.584  10.083  18.293  0.00  0.00    +0.000 N 
ATOM     12  H   UNL     1       2.822  11.039  17.906  0.00  0.00    +0.000 HD
ATOM     13  H   UNL     1      -0.385   9.869  18.098  0.00  0.00    +0.000 HD
BRANCH  10  14
ATOM     14  C   UNL     1       2.652  13.081  18.300  0.00  0.00    +0.000 C 
ATOM     15  N   UNL     1       3.074  14.156  18.188  0.00  0.00    +0.000 NA
ENDBRANCH  10  14
ENDBRANCH   1  11
BRANCH   5  16
ATOM     16  C   UNL     1       3.352   5.965  18.167  0.00  0.00    +0.000 C 
ATOM     17  C   UNL     1       2.806   4.815  17.714  0.00  0.00    +0.000 C 
BRANCH  16  18
ATOM     18  C   UNL     1       4.796   6.131  17.885  0.00  0.00    +0.000 A 
ATOM     19  C   UNL     1       5.763   5.633  18.762  0.00  0.00    +0.000 A 
ATOM     20  C   UNL     1       7.113   5.889  18.522  0.00  0.00    +0.000 A 
ATOM     21  C   UNL     1       7.454   6.629  17.402  0.00  0.00    +0.000 A 
ATOM     22  N   UNL     1       6.553   7.115  16.523  0.00  0.00    +0.000 NA
ATOM     23  C   UNL     1       5.248   6.862  16.789  0.00  0.00    +0.000 A 
ENDBRANCH  16  18
BRANCH  17  24
ATOM     24  C   UNL     1       1.367   4.392  17.791  0.00  0.00    +0.000 C 
BRANCH  24  25
ATOM     25  C   UNL     1       1.129   3.087  18.559  0.00  0.00    +0.000 C 
BRANCH  25  26
ATOM     26  C   UNL     1       0.999   3.410  20.051  0.00  0.00    +0.000 C 
BRANCH  26  27
ATOM     27  C   UNL     1       2.178   2.957  20.871  0.00  0.00    +0.000 C 
ATOM     28  O   UNL     1       3.281   2.673  20.432  0.00  0.00    +0.000 OA
BRANCH  27  29
ATOM     29  O   UNL     1       1.879   2.884  22.189  0.00  0.00    +0.000 OA
ATOM     30  H   UNL     1       2.061   3.707  22.683  0.00  0.00    +0.000 HD
ENDBRANCH  27  29
ENDBRANCH  26  27
ENDBRANCH  25  26
ENDBRANCH  24  25
ENDBRANCH  17  24
ENDBRANCH   5  16
TORSDOF 9
ENDMDL
MODEL 5
REMARK VINA RESULT:      -7.6      1.065      2.044
REMARK  Name = 
REMARK  10 active torsions:
REMARK  status: ('A' for Active; 'I' for Inactive)
REMARK    1  A    between atoms: C_1  and  N_2
REMARK    2  A    between atoms: N_4  and  C_5
REMARK    3  A    between atoms: N_7  and  C_8
REMARK    4  A    between atoms: C_12  and  C_13
REMARK    5  A    between atoms: C_13  and  C_21
REMARK    6  A    between atoms: C_14  and  C_15
REMARK    7  A    between atoms: C_15  and  C_16
REMARK    8  A    between atoms: C_16  and  C_17
REMARK    9  A    between atoms: C_17  and  C_18
REMARK   10  A    between atoms: C_18  and  O_20
REMARK                            x       y       z     vdW  Elec       q    Type
REMARK                         _______ _______ _______ _____ _____    ______ ____
ROOT
ATOM      1  C   UNL     1       5.807   4.104  16.141  0.00  0.00    +0.000 A 
ATOM      2  C   UNL     1       6.861   4.345  17.034  0.00  0.00    +0.000 A 
ATOM      3  C   UNL     1       6.634   4.929  18.282  0.00  0.00    +0.000 A 
ATOM      4  C   UNL     1       5.343   5.322  18.648  0.00  0.00    +0.000 A 
ATOM      5  C   UNL     1       4.274   5.106  17.775  0.00  0.00    +0.000 A 
ATOM      6  C   UNL     1       4.517   4.476  16.543  0.00  0.00    +0.000 A 
ENDROOT
BRANCH   1  11
ATOM      7  C   UNL     1       5.505   2.740  12.251  0.00  0.00    +0.000 C 
ATOM      8  N   UNL     1       6.415   3.833  12.535  0.00  0.00    +0.000 NA
ATOM      9  C   UNL     1       6.659   4.187  13.754  0.00  0.00    +0.000 C 
ATOM     10  N   UNL     1       7.542   5.194  14.029  0.00  0.00    +0.000 N 
ATOM     11  N   UNL     1       6.121   3.578  14.866  0.00  0.00    +0.000 N 
ATOM     12  H   UNL     1       8.084   5.066  14.869  0.00  0.00    +0.000 HD
ATOM     13  H   UNL     1       5.581   2.746  14.665  0.00  0.00    +0.000 HD
BRANCH  10  14
ATOM     14  C   UNL     1       8.196   5.875  12.949  0.00  0.00    +0.000 C 
ATOM     15  N   UNL     1       8.809   6.439  12.141  0.00  0.00    +0.000 NA
ENDBRANCH  10  14
ENDBRANCH   1  11
BRANCH   5  16
ATOM     16  C   UNL     1       2.886   5.508  18.098  0.00  0.00    +0.000 C 
ATOM     17  C   UNL     1       1.867   4.622  18.042  0.00  0.00    +0.000 C 
BRANCH  16  18
ATOM     18  C   UNL     1       2.496   6.897  18.428  0.00  0.00    +0.000 A 
ATOM     19  C   UNL     1       2.029   7.231  19.702  0.00  0.00    +0.000 A 
ATOM     20  C   UNL     1       1.576   8.525  19.957  0.00  0.00    +0.000 A 
ATOM     21  C   UNL     1       1.615   9.451  18.928  0.00  0.00    +0.000 A 
ATOM     22  N   UNL     1       2.072   9.175  17.689  0.00  0.00    +0.000 NA
ATOM     23  C   UNL     1       2.493   7.905  17.466  0.00  0.00    +0.000 A 
ENDBRANCH  16  18
BRANCH  17  24
ATOM     24  C   UNL     1       1.952   3.143  17.794  0.00  0.00    +0.000 C 
BRANCH  24  25
ATOM     25  C   UNL     1       1.880   2.282  19.060  0.00  0.00    +0.000 C 
BRANCH  25  26
ATOM     26  C   UNL     1       1.373   3.147  20.217  0.00  0.00    +0.000 C 
BRANCH  26  27
ATOM     27  C   UNL     1       1.841   2.679  21.570  0.00  0.00    +0.000 C 
ATOM     28  O   UNL     1       3.004   2.505  21.898  0.00  0.00    +0.000 OA
BRANCH  27  29
ATOM     29  O   UNL     1       0.806   2.454  22.414  0.00  0.00    +0.000 OA
ATOM     30  H   UNL     1      -0.072   2.569  22.002  0.00  0.00    +0.000 HD
ENDBRANCH  27  29
ENDBRANCH  26  27
ENDBRANCH  25  26
ENDBRANCH  24  25
ENDBRANCH  17  24
ENDBRANCH   5  16
TORSDOF 9
ENDMDL
MODEL 6
REMARK VINA RESULT:      -7.4      2.693      7.273
REMARK  Name = 
REMARK  10 active torsions:
REMARK  status: ('A' for Active; 'I' for Inactive)
REMARK    1  A    between atoms: C_1  and  N_2
REMARK    2  A    between atoms: N_4  and  C_5
REMARK    3  A    between atoms: N_7  and  C_8
REMARK    4  A    between atoms: C_12  and  C_13
REMARK    5  A    between atoms: C_13  and  C_21
REMARK    6  A    between atoms: C_14  and  C_15
REMARK    7  A    between atoms: C_15  and  C_16
REMARK    8  A    between atoms: C_16  and  C_17
REMARK    9  A    between atoms: C_17  and  C_18
REMARK   10  A    between atoms: C_18  and  O_20
REMARK                            x       y       z     vdW  Elec       q    Type
REMARK                         _______ _______ _______ _____ _____    ______ ____
ROOT
ATOM      1  C   UNL     1       1.358   8.840  19.298  0.00  0.00    +0.000 A 
ATOM      2  C   UNL     1       0.999   8.488  20.608  0.00  0.00    +0.000 A 
ATOM      3  C   UNL     1       1.423   7.284  21.176  0.00  0.00    +0.000 A 
ATOM      4  C   UNL     1       2.188   6.385  20.425  0.00  0.00    +0.000 A 
ATOM      5  C   UNL     1       2.551   6.702  19.114  0.00  0.00    +0.000 A 
ATOM      6  C   UNL     1       2.152   7.938  18.577  0.00  0.00    +0.000 A 
ENDROOT
BRANCH   1  11
ATOM      7  C   UNL     1      -1.251  11.752  17.961  0.00  0.00    +0.000 C 
ATOM      8  N   UNL     1      -0.313  12.091  19.014  0.00  0.00    +0.000 NA
ATOM      9  C   UNL     1       0.621  11.265  19.353  0.00  0.00    +0.000 C 
ATOM     10  N   UNL     1       1.530  11.593  20.321  0.00  0.00    +0.000 N 
ATOM     11  N   UNL     1       0.831  10.039  18.763  0.00  0.00    +0.000 N 
ATOM     12  H   UNL     1       2.461  11.238  20.168  0.00  0.00    +0.000 HD
ATOM     13  H   UNL     1       0.249   9.859  17.955  0.00  0.00    +0.000 HD
BRANCH  10  14
ATOM     14  C   UNL     1       1.435  12.865  20.978  0.00  0.00    +0.000 C 
ATOM     15  N   UNL     1       1.418  13.934  21.430  0.00  0.00    +0.000 NA
ENDBRANCH  10  14
ENDBRANCH   1  11
BRANCH   5  16
ATOM     16  C   UNL     1       3.349   5.790  18.263  0.00  0.00    +0.000 C 
ATOM     17  C   UNL     1       2.831   4.632  17.797  0.00  0.00    +0.000 C 
BRANCH  16  18
ATOM     18  C   UNL     1       4.769   6.029  17.921  0.00  0.00    +0.000 A 
ATOM     19  C   UNL     1       5.796   5.586  18.759  0.00  0.00    +0.000 A 
ATOM     20  C   UNL     1       7.120   5.910  18.462  0.00  0.00    +0.000 A 
ATOM     21  C   UNL     1       7.376   6.661  17.327  0.00  0.00    +0.000 A 
ATOM     22  N   UNL     1       6.415   7.095  16.484  0.00  0.00    +0.000 NA
ATOM     23  C   UNL     1       5.137   6.777  16.805  0.00  0.00    +0.000 A 
ENDBRANCH  16  18
BRANCH  17  24
ATOM     24  C   UNL     1       1.417   4.144  17.925  0.00  0.00    +0.000 C 
BRANCH  24  25
ATOM     25  C   UNL     1       1.283   2.733  18.510  0.00  0.00    +0.000 C 
BRANCH  25  26
ATOM     26  C   UNL     1       2.394   2.518  19.541  0.00  0.00    +0.000 C 
BRANCH  26  27
ATOM     27  C   UNL     1       1.939   2.696  20.966  0.00  0.00    +0.000 C 
ATOM     28  O   UNL     1       2.658   2.651  21.951  0.00  0.00    +0.000 OA
BRANCH  27  29
ATOM     29  O   UNL     1       0.605   2.907  21.049  0.00  0.00    +0.000 OA
ATOM     30  H   UNL     1       0.068   2.099  20.932  0.00  0.00    +0.000 HD
ENDBRANCH  27  29
ENDBRANCH  26  27
ENDBRANCH  25  26
ENDBRANCH  24  25
ENDBRANCH  17  24
ENDBRANCH   5  16
TORSDOF 9
ENDMDL
MODEL 7
REMARK VINA RESULT:      -7.4      0.843      1.867
REMARK  Name = 
REMARK  10 active torsions:
REMARK  status: ('A' for Active; 'I' for Inactive)
REMARK    1  A    between atoms: C_1  and  N_2
REMARK    2  A    between atoms: N_4  and  C_5
REMARK    3  A    between atoms: N_7  and  C_8
REMARK    4  A    between atoms: C_12  and  C_13
REMARK    5  A    between atoms: C_13  and  C_21
REMARK    6  A    between atoms: C_14  and  C_15
REMARK    7  A    between atoms: C_15  and  C_16
REMARK    8  A    between atoms: C_16  and  C_17
REMARK    9  A    between atoms: C_17  and  C_18
REMARK   10  A    between atoms: C_18  and  O_20
REMARK                            x       y       z     vdW  Elec       q    Type
REMARK                         _______ _______ _______ _____ _____    ______ ____
ROOT
ATOM      1  C   UNL     1       5.843   4.146  16.066  0.00  0.00    +0.000 A 
ATOM      2  C   UNL     1       6.890   4.468  16.942  0.00  0.00    +0.000 A 
ATOM      3  C   UNL     1       6.641   5.071  18.178  0.00  0.00    +0.000 A 
ATOM      4  C   UNL     1       5.333   5.401  18.546  0.00  0.00    +0.000 A 
ATOM      5  C   UNL     1       4.270   5.104  17.690  0.00  0.00    +0.000 A 
ATOM      6  C   UNL     1       4.538   4.456  16.472  0.00  0.00    +0.000 A 
ENDROOT
BRANCH   1  11
ATOM      7  C   UNL     1       5.593   2.726  12.193  0.00  0.00    +0.000 C 
ATOM      8  N   UNL     1       6.493   3.829  12.471  0.00  0.00    +0.000 NA
ATOM      9  C   UNL     1       6.720   4.202  13.688  0.00  0.00    +0.000 C 
ATOM     10  N   UNL     1       7.593   5.219  13.959  0.00  0.00    +0.000 N 
ATOM     11  N   UNL     1       6.175   3.604  14.802  0.00  0.00    +0.000 N 
ATOM     12  H   UNL     1       8.126   5.107  14.806  0.00  0.00    +0.000 HD
ATOM     13  H   UNL     1       5.643   2.766  14.608  0.00  0.00    +0.000 HD
BRANCH  10  14
ATOM     14  C   UNL     1       8.254   5.890  12.877  0.00  0.00    +0.000 C 
ATOM     15  N   UNL     1       8.736   6.522  12.031  0.00  0.00    +0.000 NA
ENDBRANCH  10  14
ENDBRANCH   1  11
BRANCH   5  16
ATOM     16  C   UNL     1       2.865   5.437  18.016  0.00  0.00    +0.000 C 
ATOM     17  C   UNL     1       1.884   4.511  17.922  0.00  0.00    +0.000 C 
BRANCH  16  18
ATOM     18  C   UNL     1       2.415   6.796  18.391  0.00  0.00    +0.000 A 
ATOM     19  C   UNL     1       2.453   7.847  17.471  0.00  0.00    +0.000 A 
ATOM     20  C   UNL     1       2.117   9.138  17.880  0.00  0.00    +0.000 A 
ATOM     21  C   UNL     1       1.740   9.334  19.198  0.00  0.00    +0.000 A 
ATOM     22  N   UNL     1       1.675   8.345  20.113  0.00  0.00    +0.000 NA
ATOM     23  C   UNL     1       2.021   7.103  19.691  0.00  0.00    +0.000 A 
ENDBRANCH  16  18
BRANCH  17  24
ATOM     24  C   UNL     1       2.032   3.046  17.624  0.00  0.00    +0.000 C 
BRANCH  24  25
ATOM     25  C   UNL     1       1.820   2.128  18.833  0.00  0.00    +0.000 C 
BRANCH  25  26
ATOM     26  C   UNL     1       2.870   2.461  19.896  0.00  0.00    +0.000 C 
BRANCH  26  27
ATOM     27  C   UNL     1       2.287   3.027  21.165  0.00  0.00    +0.000 C 
ATOM     28  O   UNL     1       1.535   3.985  21.234  0.00  0.00    +0.000 OA
BRANCH  27  29
ATOM     29  O   UNL     1       2.704   2.349  22.260  0.00  0.00    +0.000 OA
ATOM     30  H   UNL     1       2.083   2.394  23.013  0.00  0.00    +0.000 HD
ENDBRANCH  27  29
ENDBRANCH  26  27
ENDBRANCH  25  26
ENDBRANCH  24  25
ENDBRANCH  17  24
ENDBRANCH   5  16
TORSDOF 9
ENDMDL
MODEL 8
REMARK VINA RESULT:      -7.4      2.524      4.296
REMARK  Name = 
REMARK  10 active torsions:
REMARK  status: ('A' for Active; 'I' for Inactive)
REMARK    1  A    between atoms: C_1  and  N_2
REMARK    2  A    between atoms: N_4  and  C_5
REMARK    3  A    between atoms: N_7  and  C_8
REMARK    4  A    between atoms: C_12  and  C_13
REMARK    5  A    between atoms: C_13  and  C_21
REMARK    6  A    between atoms: C_14  and  C_15
REMARK    7  A    between atoms: C_15  and  C_16
REMARK    8  A    between atoms: C_16  and  C_17
REMARK    9  A    between atoms: C_17  and  C_18
REMARK   10  A    between atoms: C_18  and  O_20
REMARK                            x       y       z     vdW  Elec       q    Type
REMARK                         _______ _______ _______ _____ _____    ______ ____
ROOT
ATOM      1  C   UNL     1       6.194   5.487  16.197  0.00  0.00    +0.000 A 
ATOM      2  C   UNL     1       7.148   5.199  17.186  0.00  0.00    +0.000 A 
ATOM      3  C   UNL     1       6.778   5.037  18.523  0.00  0.00    +0.000 A 
ATOM      4  C   UNL     1       5.443   5.199  18.907  0.00  0.00    +0.000 A 
ATOM      5  C   UNL     1       4.473   5.497  17.947  0.00  0.00    +0.000 A 
ATOM      6  C   UNL     1       4.858   5.611  16.601  0.00  0.00    +0.000 A 
ENDROOT
BRANCH   1  11
ATOM      7  C   UNL     1       8.625   5.927  12.885  0.00  0.00    +0.000 C 
ATOM      8  N   UNL     1       7.571   4.932  12.844  0.00  0.00    +0.000 NA
ATOM      9  C   UNL     1       6.692   4.866  13.790  0.00  0.00    +0.000 C 
ATOM     10  N   UNL     1       5.676   3.953  13.741  0.00  0.00    +0.000 N 
ATOM     11  N   UNL     1       6.651   5.710  14.877  0.00  0.00    +0.000 N 
ATOM     12  H   UNL     1       4.799   4.271  14.123  0.00  0.00    +0.000 HD
ATOM     13  H   UNL     1       7.315   6.472  14.840  0.00  0.00    +0.000 HD
BRANCH  10  14
ATOM     14  C   UNL     1       5.593   3.046  12.632  0.00  0.00    +0.000 C 
ATOM     15  N   UNL     1       5.473   2.390  11.682  0.00  0.00    +0.000 NA
ENDBRANCH  10  14
ENDBRANCH   1  11
BRANCH   5  16
ATOM     16  C   UNL     1       3.045   5.692  18.289  0.00  0.00    +0.000 C 
ATOM     17  C   UNL     1       2.471   6.914  18.237  0.00  0.00    +0.000 C 
BRANCH  16  18
ATOM     18  C   UNL     1       2.168   4.603  18.775  0.00  0.00    +0.000 A 
ATOM     19  C   UNL     1       1.888   4.456  20.136  0.00  0.00    +0.000 A 
ATOM     20  C   UNL     1       1.139   3.364  20.575  0.00  0.00    +0.000 A 
ATOM     21  C   UNL     1       0.682   2.457  19.634  0.00  0.00    +0.000 A 
ATOM     22  N   UNL     1       0.917   2.570  18.310  0.00  0.00    +0.000 NA
ATOM     23  C   UNL     1       1.659   3.634  17.913  0.00  0.00    +0.000 A 
ENDBRANCH  16  18
BRANCH  17  24
ATOM     24  C   UNL     1       3.080   8.191  17.733  0.00  0.00    +0.000 C 
BRANCH  24  25
ATOM     25  C   UNL     1       2.135   9.398  17.759  0.00  0.00    +0.000 C 
BRANCH  25  26
ATOM     26  C   UNL     1       1.294   9.339  19.037  0.00  0.00    +0.000 C 
BRANCH  26  27
ATOM     27  C   UNL     1       0.086  10.239  19.007  0.00  0.00    +0.000 C 
ATOM     28  O   UNL     1      -0.882  10.152  19.745  0.00  0.00    +0.000 OA
BRANCH  27  29
ATOM     29  O   UNL     1       0.181  11.181  18.039  0.00  0.00    +0.000 OA
ATOM     30  H   UNL     1       0.559  10.851  17.202  0.00  0.00    +0.000 HD
ENDBRANCH  27  29
ENDBRANCH  26  27
ENDBRANCH  25  26
ENDBRANCH  24  25
ENDBRANCH  17  24
ENDBRANCH   5  16
TORSDOF 9
ENDMDL
MODEL 9
REMARK VINA RESULT:      -7.2      3.057      7.277
REMARK  Name = 
REMARK  10 active torsions:
REMARK  status: ('A' for Active; 'I' for Inactive)
REMARK    1  A    between atoms: C_1  and  N_2
REMARK    2  A    between atoms: N_4  and  C_5
REMARK    3  A    between atoms: N_7  and  C_8
REMARK    4  A    between atoms: C_12  and  C_13
REMARK    5  A    between atoms: C_13  and  C_21
REMARK    6  A    between atoms: C_14  and  C_15
REMARK    7  A    between atoms: C_15  and  C_16
REMARK    8  A    between atoms: C_16  and  C_17
REMARK    9  A    between atoms: C_17  and  C_18
REMARK   10  A    between atoms: C_18  and  O_20
REMARK                            x       y       z     vdW  Elec       q    Type
REMARK                         _______ _______ _______ _____ _____    ______ ____
ROOT
ATOM      1  C   UNL     1       1.271   8.999  18.991  0.00  0.00    +0.000 A 
ATOM      2  C   UNL     1       0.941   8.735  20.328  0.00  0.00    +0.000 A 
ATOM      3  C   UNL     1       1.442   7.610  20.989  0.00  0.00    +0.000 A 
ATOM      4  C   UNL     1       2.258   6.702  20.308  0.00  0.00    +0.000 A 
ATOM      5  C   UNL     1       2.595   6.932  18.972  0.00  0.00    +0.000 A 
ATOM      6  C   UNL     1       2.117   8.092  18.339  0.00  0.00    +0.000 A 
ENDROOT
BRANCH   1  11
ATOM      7  C   UNL     1      -1.505  11.765  17.679  0.00  0.00    +0.000 C 
ATOM      8  N   UNL     1      -0.380  12.231  18.465  0.00  0.00    +0.000 NA
ATOM      9  C   UNL     1       0.592  11.431  18.763  0.00  0.00    +0.000 C 
ATOM     10  N   UNL     1       1.672  11.874  19.475  0.00  0.00    +0.000 N 
ATOM     11  N   UNL     1       0.669  10.116  18.364  0.00  0.00    +0.000 N 
ATOM     12  H   UNL     1       2.552  11.456  19.216  0.00  0.00    +0.000 HD
ATOM     13  H   UNL     1      -0.059   9.831  17.721  0.00  0.00    +0.000 HD
BRANCH  10  14
ATOM     14  C   UNL     1       1.720  13.240  19.909  0.00  0.00    +0.000 C 
ATOM     15  N   UNL     1       1.850  14.321  20.313  0.00  0.00    +0.000 NA
ENDBRANCH  10  14
ENDBRANCH   1  11
BRANCH   5  16
ATOM     16  C   UNL     1       3.445   6.004  18.191  0.00  0.00    +0.000 C 
ATOM     17  C   UNL     1       2.947   4.856  17.681  0.00  0.00    +0.000 C 
BRANCH  16  18
ATOM     18  C   UNL     1       4.893   6.215  17.972  0.00  0.00    +0.000 A 
ATOM     19  C   UNL     1       5.841   5.672  18.844  0.00  0.00    +0.000 A 
ATOM     20  C   UNL     1       7.193   5.969  18.669  0.00  0.00    +0.000 A 
ATOM     21  C   UNL     1       7.556   6.793  17.617  0.00  0.00    +0.000 A 
ATOM     22  N   UNL     1       6.675   7.325  16.744  0.00  0.00    +0.000 NA
ATOM     23  C   UNL     1       5.366   7.031  16.946  0.00  0.00    +0.000 A 
ENDBRANCH  16  18
BRANCH  17  24
ATOM     24  C   UNL     1       1.517   4.395  17.688  0.00  0.00    +0.000 C 
BRANCH  24  25
ATOM     25  C   UNL     1       1.276   3.086  18.449  0.00  0.00    +0.000 C 
BRANCH  25  26
ATOM     26  C   UNL     1       2.266   3.002  19.614  0.00  0.00    +0.000 C 
BRANCH  26  27
ATOM     27  C   UNL     1       3.482   2.165  19.313  0.00  0.00    +0.000 C 
ATOM     28  O   UNL     1       4.602   2.356  19.760  0.00  0.00    +0.000 OA
BRANCH  27  29
ATOM     29  O   UNL     1       3.203   1.152  18.460  0.00  0.00    +0.000 OA
ATOM     30  H   UNL     1       2.247   1.012  18.312  0.00  0.00    +0.000 HD
ENDBRANCH  27  29
ENDBRANCH  26  27
ENDBRANCH  25  26
ENDBRANCH  24  25
ENDBRANCH  17  24
ENDBRANCH   5  16
TORSDOF 9
ENDMDL
