MODEL 1
REMARK VINA RESULT:      -7.5      0.000      0.000
REMARK  Name = 
REMARK  0 active torsions:
REMARK  status: ('A' for Active; 'I' for Inactive)
REMARK                            x       y       z     vdW  Elec       q    Type
REMARK                         _______ _______ _______ _____ _____    ______ ____
ROOT
ATOM      1  O   UNL     1       2.208   7.029  18.113  0.00  0.00    +0.000 OA
ATOM      2  S   UNL     1       3.391   6.146  18.652  0.00  0.00    +0.000 S 
ATOM      3  C   UNL     1       2.661   4.647  19.303  0.00  0.00    +0.000 A 
ATOM      4  C   UNL     1       1.840   4.807  20.437  0.00  0.00    +0.000 A 
ATOM      5  C   UNL     1       1.260   3.713  21.077  0.00  0.00    +0.000 A 
ATOM      6  C   UNL     1       1.485   2.436  20.585  0.00  0.00    +0.000 A 
ATOM      7  C   UNL     1       2.286   2.264  19.458  0.00  0.00    +0.000 A 
ATOM      8  C   UNL     1       2.886   3.364  18.803  0.00  0.00    +0.000 A 
ATOM      9  C   UNL     1       3.717   3.059  17.591  0.00  0.00    +0.000 C 
ATOM     10  C   UNL     1       4.377   4.190  16.856  0.00  0.00    +0.000 A 
ATOM     11  C   UNL     1       5.145   3.849  15.718  0.00  0.00    +0.000 A 
ATOM     12  C   UNL     1       5.787   4.828  14.961  0.00  0.00    +0.000 A 
ATOM     13 CL   UNL     1       6.719   4.376  13.589  0.00  0.00    +0.000 Cl
ATOM     14  C   UNL     1       5.674   6.163  15.314  0.00  0.00    +0.000 A 
ATOM     15  C   UNL     1       4.915   6.511  16.432  0.00  0.00    +0.000 A 
ATOM     16  C   UNL     1       4.265   5.534  17.216  0.00  0.00    +0.000 A 
ENDROOT
TORSDOF 0
ENDMDL
MODEL 2
REMARK VINA RESULT:      -7.3      1.667      1.718
REMARK  Name = 
REMARK  0 active torsions:
REMARK  status: ('A' for Active; 'I' for Inactive)
REMARK                            x       y       z     vdW  Elec       q    Type
REMARK                         _______ _______ _______ _____ _____    ______ ____
ROOT
ATOM      1  O   UNL     1       5.242   5.759  19.761  0.00  0.00    +0.000 OA
ATOM      2  S   UNL     1       5.139   4.271  19.267  0.00  0.00    +0.000 S 
ATOM      3  C   UNL     1       3.404   3.837  19.292  0.00  0.00    +0.000 A 
ATOM      4  C   UNL     1       2.801   3.792  20.565  0.00  0.00    +0.000 A 
ATOM      5  C   UNL     1       1.471   3.409  20.730  0.00  0.00    +0.000 A 
ATOM      6  C   UNL     1       0.715   3.071  19.616  0.00  0.00    +0.000 A 
ATOM      7  C   UNL     1       1.295   3.122  18.350  0.00  0.00    +0.000 A 
ATOM      8  C   UNL     1       2.645   3.502  18.170  0.00  0.00    +0.000 A 
ATOM      9  C   UNL     1       3.158   3.532  16.760  0.00  0.00    +0.000 C 
ATOM     10  C   UNL     1       4.584   3.929  16.510  0.00  0.00    +0.000 A 
ATOM     11  C   UNL     1       5.015   3.947  15.164  0.00  0.00    +0.000 A 
ATOM     12  C   UNL     1       6.317   4.313  14.827  0.00  0.00    +0.000 A 
ATOM     13 CL   UNL     1       6.809   4.314  13.180  0.00  0.00    +0.000 Cl
ATOM     14  C   UNL     1       7.214   4.677  15.819  0.00  0.00    +0.000 A 
ATOM     15  C   UNL     1       6.797   4.669  17.150  0.00  0.00    +0.000 A 
ATOM     16  C   UNL     1       5.487   4.292  17.512  0.00  0.00    +0.000 A 
ENDROOT
TORSDOF 0
ENDMDL
MODEL 3
REMARK VINA RESULT:      -7.0      3.136      5.818
REMARK  Name = 
REMARK  0 active torsions:
REMARK  status: ('A' for Active; 'I' for Inactive)
REMARK                            x       y       z     vdW  Elec       q    Type
REMARK                         _______ _______ _______ _____ _____    ______ ____
ROOT
ATOM      1  O   UNL     1       2.876   2.465  17.662  0.00  0.00    +0.000 OA
ATOM      2  S   UNL     1       3.981   3.417  18.245  0.00  0.00    +0.000 S 
ATOM      3  C   UNL     1       4.773   4.205  16.847  0.00  0.00    +0.000 A 
ATOM      4  C   UNL     1       5.504   3.353  15.996  0.00  0.00    +0.000 A 
ATOM      5  C   UNL     1       6.217   3.849  14.905  0.00  0.00    +0.000 A 
ATOM      6  C   UNL     1       6.204   5.211  14.643  0.00  0.00    +0.000 A 
ATOM      7  C   UNL     1       5.477   6.064  15.471  0.00  0.00    +0.000 A 
ATOM      8  C   UNL     1       4.754   5.575  16.583  0.00  0.00    +0.000 A 
ATOM      9  C   UNL     1       3.998   6.585  17.396  0.00  0.00    +0.000 C 
ATOM     10  C   UNL     1       3.213   6.122  18.589  0.00  0.00    +0.000 A 
ATOM     11  C   UNL     1       2.513   7.113  19.317  0.00  0.00    +0.000 A 
ATOM     12  C   UNL     1       1.746   6.782  20.432  0.00  0.00    +0.000 A 
ATOM     13 CL   UNL     1       0.917   8.014  21.298  0.00  0.00    +0.000 Cl
ATOM     14  C   UNL     1       1.651   5.462  20.843  0.00  0.00    +0.000 A 
ATOM     15  C   UNL     1       2.333   4.476  20.128  0.00  0.00    +0.000 A 
ATOM     16  C   UNL     1       3.122   4.792  19.003  0.00  0.00    +0.000 A 
ENDROOT
TORSDOF 0
ENDMDL
MODEL 4
REMARK VINA RESULT:      -6.6      3.805      4.927
REMARK  Name = 
REMARK  0 active torsions:
REMARK  status: ('A' for Active; 'I' for Inactive)
REMARK                            x       y       z     vdW  Elec       q    Type
REMARK                         _______ _______ _______ _____ _____    ______ ____
ROOT
ATOM      1  O   UNL     1       4.847   6.233  17.912  0.00  0.00    +0.000 OA
ATOM      2  S   UNL     1       3.312   5.902  17.963  0.00  0.00    +0.000 S 
ATOM      3  C   UNL     1       3.075   4.762  19.323  0.00  0.00    +0.000 A 
ATOM      4  C   UNL     1       3.670   3.494  19.171  0.00  0.00    +0.000 A 
ATOM      5  C   UNL     1       3.511   2.494  20.130  0.00  0.00    +0.000 A 
ATOM      6  C   UNL     1       2.757   2.751  21.265  0.00  0.00    +0.000 A 
ATOM      7  C   UNL     1       2.171   4.005  21.434  0.00  0.00    +0.000 A 
ATOM      8  C   UNL     1       2.320   5.026  20.466  0.00  0.00    +0.000 A 
ATOM      9  C   UNL     1       1.655   6.339  20.760  0.00  0.00    +0.000 C 
ATOM     10  C   UNL     1       1.780   7.458  19.768  0.00  0.00    +0.000 A 
ATOM     11  C   UNL     1       1.140   8.676  20.095  0.00  0.00    +0.000 A 
ATOM     12  C   UNL     1       1.208   9.778  19.245  0.00  0.00    +0.000 A 
ATOM     13 CL   UNL     1       0.410  11.240  19.672  0.00  0.00    +0.000 Cl
ATOM     14  C   UNL     1       1.918   9.697  18.058  0.00  0.00    +0.000 A 
ATOM     15  C   UNL     1       2.557   8.502  17.728  0.00  0.00    +0.000 A 
ATOM     16  C   UNL     1       2.493   7.372  18.570  0.00  0.00    +0.000 A 
ENDROOT
TORSDOF 0
ENDMDL
MODEL 5
REMARK VINA RESULT:      -6.6      3.539      5.870
REMARK  Name = 
REMARK  0 active torsions:
REMARK  status: ('A' for Active; 'I' for Inactive)
REMARK                            x       y       z     vdW  Elec       q    Type
REMARK                         _______ _______ _______ _____ _____    ______ ____
ROOT
ATOM      1  O   UNL     1       2.291   3.752  19.031  0.00  0.00    +0.000 OA
ATOM      2  S   UNL     1       3.399   4.832  19.305  0.00  0.00    +0.000 S 
ATOM      3  C   UNL     1       4.251   5.102  17.756  0.00  0.00    +0.000 A 
ATOM      4  C   UNL     1       4.989   4.008  17.262  0.00  0.00    +0.000 A 
ATOM      5  C   UNL     1       5.747   4.105  16.096  0.00  0.00    +0.000 A 
ATOM      6  C   UNL     1       5.773   5.303  15.397  0.00  0.00    +0.000 A 
ATOM      7  C   UNL     1       5.040   6.391  15.868  0.00  0.00    +0.000 A 
ATOM      8  C   UNL     1       4.272   6.307  17.052  0.00  0.00    +0.000 A 
ATOM      9  C   UNL     1       3.514   7.538  17.456  0.00  0.00    +0.000 C 
ATOM     10  C   UNL     1       2.681   7.505  18.705  0.00  0.00    +0.000 A 
ATOM     11  C   UNL     1       1.982   8.689  19.037  0.00  0.00    +0.000 A 
ATOM     12  C   UNL     1       1.173   8.756  20.170  0.00  0.00    +0.000 A 
ATOM     13 CL   UNL     1       0.346  10.215  20.548  0.00  0.00    +0.000 Cl
ATOM     14  C   UNL     1       1.036   7.648  20.991  0.00  0.00    +0.000 A 
ATOM     15  C   UNL     1       1.717   6.473  20.669  0.00  0.00    +0.000 A 
ATOM     16  C   UNL     1       2.547   6.389  19.533  0.00  0.00    +0.000 A 
ENDROOT
TORSDOF 0
ENDMDL
MODEL 6
REMARK VINA RESULT:      -6.5      4.905      6.158
REMARK  Name = 
REMARK  0 active torsions:
REMARK  status: ('A' for Active; 'I' for Inactive)
REMARK                            x       y       z     vdW  Elec       q    Type
REMARK                         _______ _______ _______ _____ _____    ______ ____
ROOT
ATOM      1  O   UNL     1      -0.378  10.279  17.997  0.00  0.00    +0.000 OA
ATOM      2  S   UNL     1       0.817  10.375  19.013  0.00  0.00    +0.000 S 
ATOM      3  C   UNL     1       0.105  10.321  20.654  0.00  0.00    +0.000 A 
ATOM      4  C   UNL     1      -0.702  11.420  21.009  0.00  0.00    +0.000 A 
ATOM      5  C   UNL     1      -1.267  11.531  22.278  0.00  0.00    +0.000 A 
ATOM      6  C   UNL     1      -1.039  10.535  23.216  0.00  0.00    +0.000 A 
ATOM      7  C   UNL     1      -0.250   9.437  22.876  0.00  0.00    +0.000 A 
ATOM      8  C   UNL     1       0.334   9.316  21.594  0.00  0.00    +0.000 A 
ATOM      9  C   UNL     1       1.153   8.084  21.337  0.00  0.00    +0.000 C 
ATOM     10  C   UNL     1       1.796   7.903  19.992  0.00  0.00    +0.000 A 
ATOM     11  C   UNL     1       2.552   6.724  19.800  0.00  0.00    +0.000 A 
ATOM     12  C   UNL     1       3.178   6.458  18.583  0.00  0.00    +0.000 A 
ATOM     13 CL   UNL     1       4.096   5.018  18.389  0.00  0.00    +0.000 Cl
ATOM     14  C   UNL     1       3.059   7.353  17.532  0.00  0.00    +0.000 A 
ATOM     15  C   UNL     1       2.311   8.517  17.709  0.00  0.00    +0.000 A 
ATOM     16  C   UNL     1       1.678   8.808  18.935  0.00  0.00    +0.000 A 
ENDROOT
TORSDOF 0
ENDMDL
MODEL 7
REMARK VINA RESULT:      -6.5      2.027      3.052
REMARK  Name = 
REMARK  0 active torsions:
REMARK  status: ('A' for Active; 'I' for Inactive)
REMARK                            x       y       z     vdW  Elec       q    Type
REMARK                         _______ _______ _______ _____ _____    ______ ____
ROOT
ATOM      1  O   UNL     1       4.956   3.456  19.553  0.00  0.00    +0.000 OA
ATOM      2  S   UNL     1       3.910   3.857  18.450  0.00  0.00    +0.000 S 
ATOM      3  C   UNL     1       3.172   5.400  18.977  0.00  0.00    +0.000 A 
ATOM      4  C   UNL     1       2.392   5.339  20.148  0.00  0.00    +0.000 A 
ATOM      5  C   UNL     1       1.713   6.456  20.632  0.00  0.00    +0.000 A 
ATOM      6  C   UNL     1       1.812   7.662  19.953  0.00  0.00    +0.000 A 
ATOM      7  C   UNL     1       2.589   7.740  18.798  0.00  0.00    +0.000 A 
ATOM      8  C   UNL     1       3.277   6.612  18.294  0.00  0.00    +0.000 A 
ATOM      9  C   UNL     1       4.093   6.818  17.051  0.00  0.00    +0.000 C 
ATOM     10  C   UNL     1       4.845   5.655  16.471  0.00  0.00    +0.000 A 
ATOM     11  C   UNL     1       5.603   5.904  15.303  0.00  0.00    +0.000 A 
ATOM     12  C   UNL     1       6.345   4.893  14.695  0.00  0.00    +0.000 A 
ATOM     13 CL   UNL     1       7.247   5.229  13.271  0.00  0.00    +0.000 Cl
ATOM     14  C   UNL     1       6.357   3.618  15.239  0.00  0.00    +0.000 A 
ATOM     15  C   UNL     1       5.617   3.363  16.394  0.00  0.00    +0.000 A 
ATOM     16  C   UNL     1       4.852   4.371  17.018  0.00  0.00    +0.000 A 
ENDROOT
TORSDOF 0
ENDMDL
MODEL 8
REMARK VINA RESULT:      -6.4      2.969      5.633
REMARK  Name = 
REMARK  0 active torsions:
REMARK  status: ('A' for Active; 'I' for Inactive)
REMARK                            x       y       z     vdW  Elec       q    Type
REMARK                         _______ _______ _______ _____ _____    ______ ____
ROOT
ATOM      1  O   UNL     1       6.831   5.109  19.163  0.00  0.00    +0.000 OA
ATOM      2  S   UNL     1       5.698   5.704  18.251  0.00  0.00    +0.000 S 
ATOM      3  C   UNL     1       5.975   5.066  16.602  0.00  0.00    +0.000 A 
ATOM      4  C   UNL     1       7.155   5.499  15.966  0.00  0.00    +0.000 A 
ATOM      5  C   UNL     1       7.460   5.124  14.659  0.00  0.00    +0.000 A 
ATOM      6  C   UNL     1       6.587   4.299  13.965  0.00  0.00    +0.000 A 
ATOM      7  C   UNL     1       5.420   3.854  14.585  0.00  0.00    +0.000 A 
ATOM      8  C   UNL     1       5.097   4.232  15.908  0.00  0.00    +0.000 A 
ATOM      9  C   UNL     1       3.821   3.683  16.477  0.00  0.00    +0.000 C 
ATOM     10  C   UNL     1       3.429   4.051  17.878  0.00  0.00    +0.000 A 
ATOM     11  C   UNL     1       2.221   3.502  18.368  0.00  0.00    +0.000 A 
ATOM     12  C   UNL     1       1.776   3.774  19.660  0.00  0.00    +0.000 A 
ATOM     13 CL   UNL     1       0.298   3.096  20.218  0.00  0.00    +0.000 Cl
ATOM     14  C   UNL     1       2.524   4.589  20.495  0.00  0.00    +0.000 A 
ATOM     15  C   UNL     1       3.720   5.131  20.023  0.00  0.00    +0.000 A 
ATOM     16  C   UNL     1       4.182   4.876  18.716  0.00  0.00    +0.000 A 
ENDROOT
TORSDOF 0
ENDMDL
MODEL 9
REMARK VINA RESULT:      -6.3      2.718      5.437
REMARK  Name = 
REMARK  0 active torsions:
REMARK  status: ('A' for Active; 'I' for Inactive)
REMARK                            x       y       z     vdW  Elec       q    Type
REMARK                         _______ _______ _______ _____ _____    ______ ____
ROOT
ATOM      1  O   UNL     1       4.622   7.405  18.220  0.00  0.00    +0.000 OA
ATOM      2  S   UNL     1       3.674   6.403  17.469  0.00  0.00    +0.000 S 
ATOM      3  C   UNL     1       4.720   5.367  16.451  0.00  0.00    +0.000 A 
ATOM      4  C   UNL     1       5.391   6.019  15.398  0.00  0.00    +0.000 A 
ATOM      5  C   UNL     1       6.189   5.318  14.496  0.00  0.00    +0.000 A 
ATOM      6  C   UNL     1       6.336   3.946  14.638  0.00  0.00    +0.000 A 
ATOM      7  C   UNL     1       5.686   3.288  15.681  0.00  0.00    +0.000 A 
ATOM      8  C   UNL     1       4.869   3.987  16.600  0.00  0.00    +0.000 A 
ATOM      9  C   UNL     1       4.230   3.177  17.689  0.00  0.00    +0.000 C 
ATOM     10  C   UNL     1       3.352   3.868  18.693  0.00  0.00    +0.000 A 
ATOM     11  C   UNL     1       2.779   3.061  19.702  0.00  0.00    +0.000 A 
ATOM     12  C   UNL     1       1.959   3.610  20.687  0.00  0.00    +0.000 A 
ATOM     13 CL   UNL     1       1.272   2.596  21.893  0.00  0.00    +0.000 Cl
ATOM     14  C   UNL     1       1.699   4.971  20.694  0.00  0.00    +0.000 A 
ATOM     15  C   UNL     1       2.264   5.777  19.706  0.00  0.00    +0.000 A 
ATOM     16  C   UNL     1       3.088   5.239  18.696  0.00  0.00    +0.000 A 
ENDROOT
TORSDOF 0
ENDMDL
