MODEL 1
REMARK VINA RESULT:      -6.8      0.000      0.000
REMARK  Name = 
REMARK  13 active torsions:
REMARK  status: ('A' for Active; 'I' for Inactive)
REMARK    1  A    between atoms: C_1  and  C_2
REMARK    2  A    between atoms: C_2  and  C_3
REMARK    3  A    between atoms: C_3  and  N_4
REMARK    4  A    between atoms: C_5  and  S_6
REMARK    5  A    between atoms: S_6  and  C_7
REMARK    6  A    between atoms: C_7  and  C_8
REMARK    7  A    between atoms: N_10  and  C_11
REMARK    8  A    between atoms: C_11  and  C_12
REMARK    9  A    between atoms: C_11  and  C_13
REMARK   10  A    between atoms: C_11  and  C_14
REMARK   11  A    between atoms: C_17  and  C_18
REMARK   12  A    between atoms: C_18  and  C_19
REMARK   13  A    between atoms: C_18  and  C_20
REMARK                            x       y       z     vdW  Elec       q    Type
REMARK                         _______ _______ _______ _____ _____    ______ ____
ROOT
ATOM      1  N   UNL     1       3.479   4.631  18.686  0.00  0.00    +0.000 N 
ATOM      2  C   UNL     1       4.795   4.303  18.452  0.00  0.00    +0.000 A 
ATOM      3  N   UNL     1       5.137   3.289  19.213  0.00  0.00    +0.000 NA
ATOM      4  N   UNL     1       4.064   2.948  19.986  0.00  0.00    +0.000 NA
ATOM      5  C   UNL     1       3.069   3.763  19.697  0.00  0.00    +0.000 A 
ENDROOT
BRANCH   5   6
ATOM      6  C   UNL     1       1.704   3.736  20.339  0.00  0.00    +0.000 C 
ATOM      7  C   UNL     1       0.705   3.022  19.429  0.00  0.00    +0.000 C 
ATOM      8  C   UNL     1       1.730   3.059  21.714  0.00  0.00    +0.000 C 
ENDBRANCH   5   6
BRANCH   1   9
ATOM      9  C   UNL     1       2.636   5.684  18.160  0.00  0.00    +0.000 C 
BRANCH   9  11
ATOM     10  C   UNL     1       2.013   8.147  17.850  0.00  0.00    +0.000 C 
ATOM     11  C   UNL     1       2.658   7.098  18.741  0.00  0.00    +0.000 C 
ENDBRANCH   9  11
ENDBRANCH   1   9
BRANCH   2  12
ATOM     12  S   UNL     1       5.898   5.096  17.370  0.00  0.00    +0.000 S 
BRANCH  12  13
ATOM     13  C   UNL     1       6.218   3.746  16.181  0.00  0.00    +0.000 C 
BRANCH  13  14
ATOM     14  C   UNL     1       6.208   4.202  14.720  0.00  0.00    +0.000 C 
ATOM     15  O   UNL     1       6.034   5.384  14.434  0.00  0.00    +0.000 OA
ATOM     16  N   UNL     1       6.299   3.203  13.773  0.00  0.00    +0.000 N 
ATOM     17  H   UNL     1       6.504   2.271  14.114  0.00  0.00    +0.000 HD
BRANCH  16  18
ATOM     18  C   UNL     1       6.250   3.406  12.309  0.00  0.00    +0.000 C 
ATOM     19  C   UNL     1       7.198   4.534  11.867  0.00  0.00    +0.000 C 
ATOM     20  C   UNL     1       6.704   2.101  11.628  0.00  0.00    +0.000 C 
ATOM     21  C   UNL     1       4.821   3.716  11.833  0.00  0.00    +0.000 C 
ENDBRANCH  16  18
ENDBRANCH  13  14
ENDBRANCH  12  13
ENDBRANCH   2  12
TORSDOF 7
ENDMDL
MODEL 2
REMARK VINA RESULT:      -6.4      1.532      2.089
REMARK  Name = 
REMARK  13 active torsions:
REMARK  status: ('A' for Active; 'I' for Inactive)
REMARK    1  A    between atoms: C_1  and  C_2
REMARK    2  A    between atoms: C_2  and  C_3
REMARK    3  A    between atoms: C_3  and  N_4
REMARK    4  A    between atoms: C_5  and  S_6
REMARK    5  A    between atoms: S_6  and  C_7
REMARK    6  A    between atoms: C_7  and  C_8
REMARK    7  A    between atoms: N_10  and  C_11
REMARK    8  A    between atoms: C_11  and  C_12
REMARK    9  A    between atoms: C_11  and  C_13
REMARK   10  A    between atoms: C_11  and  C_14
REMARK   11  A    between atoms: C_17  and  C_18
REMARK   12  A    between atoms: C_18  and  C_19
REMARK   13  A    between atoms: C_18  and  C_20
REMARK                            x       y       z     vdW  Elec       q    Type
REMARK                         _______ _______ _______ _____ _____    ______ ____
ROOT
ATOM      1  N   UNL     1       3.880   4.994  19.151  0.00  0.00    +0.000 N 
ATOM      2  C   UNL     1       5.166   4.514  19.237  0.00  0.00    +0.000 A 
ATOM      3  N   UNL     1       5.145   3.201  19.265  0.00  0.00    +0.000 NA
ATOM      4  N   UNL     1       3.843   2.790  19.231  0.00  0.00    +0.000 NA
ATOM      5  C   UNL     1       3.072   3.858  19.188  0.00  0.00    +0.000 A 
ENDROOT
BRANCH   5   6
ATOM      6  C   UNL     1       1.564   3.845  19.156  0.00  0.00    +0.000 C 
ATOM      7  C   UNL     1       1.057   2.503  18.625  0.00  0.00    +0.000 C 
ATOM      8  C   UNL     1       0.958   4.119  20.536  0.00  0.00    +0.000 C 
ENDBRANCH   5   6
BRANCH   1   9
ATOM      9  C   UNL     1       3.348   6.340  19.141  0.00  0.00    +0.000 C 
BRANCH   9  11
ATOM     10  C   UNL     1       2.178   8.186  17.808  0.00  0.00    +0.000 C 
ATOM     11  C   UNL     1       3.319   7.184  17.866  0.00  0.00    +0.000 C 
ENDBRANCH   9  11
ENDBRANCH   1   9
BRANCH   2  12
ATOM     12  S   UNL     1       6.629   5.445  19.343  0.00  0.00    +0.000 S 
BRANCH  12  13
ATOM     13  C   UNL     1       7.619   4.649  18.029  0.00  0.00    +0.000 C 
BRANCH  13  14
ATOM     14  C   UNL     1       7.354   5.219  16.633  0.00  0.00    +0.000 C 
ATOM     15  O   UNL     1       7.491   6.420  16.411  0.00  0.00    +0.000 OA
ATOM     16  N   UNL     1       6.862   4.332  15.699  0.00  0.00    +0.000 N 
ATOM     17  H   UNL     1       6.848   3.354  15.966  0.00  0.00    +0.000 HD
BRANCH  16  18
ATOM     18  C   UNL     1       6.482   4.674  14.312  0.00  0.00    +0.000 C 
ATOM     19  C   UNL     1       5.955   3.443  13.554  0.00  0.00    +0.000 C 
ATOM     20  C   UNL     1       5.355   5.723  14.368  0.00  0.00    +0.000 C 
ATOM     21  C   UNL     1       7.663   5.289  13.542  0.00  0.00    +0.000 C 
ENDBRANCH  16  18
ENDBRANCH  13  14
ENDBRANCH  12  13
ENDBRANCH   2  12
TORSDOF 7
ENDMDL
MODEL 3
REMARK VINA RESULT:      -6.1      3.760      6.002
REMARK  Name = 
REMARK  13 active torsions:
REMARK  status: ('A' for Active; 'I' for Inactive)
REMARK    1  A    between atoms: C_1  and  C_2
REMARK    2  A    between atoms: C_2  and  C_3
REMARK    3  A    between atoms: C_3  and  N_4
REMARK    4  A    between atoms: C_5  and  S_6
REMARK    5  A    between atoms: S_6  and  C_7
REMARK    6  A    between atoms: C_7  and  C_8
REMARK    7  A    between atoms: N_10  and  C_11
REMARK    8  A    between atoms: C_11  and  C_12
REMARK    9  A    between atoms: C_11  and  C_13
REMARK   10  A    between atoms: C_11  and  C_14
REMARK   11  A    between atoms: C_17  and  C_18
REMARK   12  A    between atoms: C_18  and  C_19
REMARK   13  A    between atoms: C_18  and  C_20
REMARK                            x       y       z     vdW  Elec       q    Type
REMARK                         _______ _______ _______ _____ _____    ______ ____
ROOT
ATOM      1  N   UNL     1       1.605   8.526  19.844  0.00  0.00    +0.000 N 
ATOM      2  C   UNL     1       2.144   7.494  19.112  0.00  0.00    +0.000 A 
ATOM      3  N   UNL     1       2.259   7.857  17.855  0.00  0.00    +0.000 NA
ATOM      4  N   UNL     1       1.767   9.125  17.727  0.00  0.00    +0.000 NA
ATOM      5  C   UNL     1       1.348   9.529  18.909  0.00  0.00    +0.000 A 
ENDROOT
BRANCH   5   6
ATOM      6  C   UNL     1       0.720  10.870  19.202  0.00  0.00    +0.000 C 
ATOM      7  C   UNL     1       1.629  11.998  18.713  0.00  0.00    +0.000 C 
ATOM      8  C   UNL     1      -0.666  11.006  18.563  0.00  0.00    +0.000 C 
ENDBRANCH   5   6
BRANCH   1   9
ATOM      9  C   UNL     1       1.229   8.632  21.238  0.00  0.00    +0.000 C 
BRANCH   9  11
ATOM     10  C   UNL     1      -0.576   9.701  22.704  0.00  0.00    +0.000 C 
ATOM     11  C   UNL     1      -0.234   8.632  21.679  0.00  0.00    +0.000 C 
ENDBRANCH   9  11
ENDBRANCH   1   9
BRANCH   2  12
ATOM     12  S   UNL     1       2.583   5.915  19.689  0.00  0.00    +0.000 S 
BRANCH  12  13
ATOM     13  C   UNL     1       3.179   5.154  18.138  0.00  0.00    +0.000 C 
BRANCH  13  14
ATOM     14  C   UNL     1       4.678   4.843  18.146  0.00  0.00    +0.000 C 
ATOM     15  O   UNL     1       5.082   3.710  18.395  0.00  0.00    +0.000 OA
ATOM     16  N   UNL     1       5.521   5.920  17.966  0.00  0.00    +0.000 N 
ATOM     17  H   UNL     1       5.087   6.798  17.705  0.00  0.00    +0.000 HD
BRANCH  16  18
ATOM     18  C   UNL     1       6.998   5.864  17.995  0.00  0.00    +0.000 C 
ATOM     19  C   UNL     1       7.620   7.166  17.464  0.00  0.00    +0.000 C 
ATOM     20  C   UNL     1       7.443   5.681  19.459  0.00  0.00    +0.000 C 
ATOM     21  C   UNL     1       7.530   4.669  17.186  0.00  0.00    +0.000 C 
ENDBRANCH  16  18
ENDBRANCH  13  14
ENDBRANCH  12  13
ENDBRANCH   2  12
TORSDOF 7
ENDMDL
MODEL 4
REMARK VINA RESULT:      -6.0      2.217      6.265
REMARK  Name = 
REMARK  13 active torsions:
REMARK  status: ('A' for Active; 'I' for Inactive)
REMARK    1  A    between atoms: C_1  and  C_2
REMARK    2  A    between atoms: C_2  and  C_3
REMARK    3  A    between atoms: C_3  and  N_4
REMARK    4  A    between atoms: C_5  and  S_6
REMARK    5  A    between atoms: S_6  and  C_7
REMARK    6  A    between atoms: C_7  and  C_8
REMARK    7  A    between atoms: N_10  and  C_11
REMARK    8  A    between atoms: C_11  and  C_12
REMARK    9  A    between atoms: C_11  and  C_13
REMARK   10  A    between atoms: C_11  and  C_14
REMARK   11  A    between atoms: C_17  and  C_18
REMARK   12  A    between atoms: C_18  and  C_19
REMARK   13  A    between atoms: C_18  and  C_20
REMARK                            x       y       z     vdW  Elec       q    Type
REMARK                         _______ _______ _______ _____ _____    ______ ____
ROOT
ATOM      1  N   UNL     1       5.969   5.313  16.543  0.00  0.00    +0.000 N 
ATOM      2  C   UNL     1       6.644   4.981  17.694  0.00  0.00    +0.000 A 
ATOM      3  N   UNL     1       7.808   4.455  17.386  0.00  0.00    +0.000 NA
ATOM      4  N   UNL     1       7.909   4.401  16.024  0.00  0.00    +0.000 NA
ATOM      5  C   UNL     1       6.800   4.890  15.507  0.00  0.00    +0.000 A 
ENDROOT
BRANCH   5   6
ATOM      6  C   UNL     1       6.499   4.998  14.032  0.00  0.00    +0.000 C 
ATOM      7  C   UNL     1       7.787   5.239  13.245  0.00  0.00    +0.000 C 
ATOM      8  C   UNL     1       5.791   3.749  13.498  0.00  0.00    +0.000 C 
ENDBRANCH   5   6
BRANCH   1   9
ATOM      9  C   UNL     1       4.649   5.865  16.320  0.00  0.00    +0.000 C 
BRANCH   9  11
ATOM     10  C   UNL     1       3.251   7.297  17.916  0.00  0.00    +0.000 C 
ATOM     11  C   UNL     1       4.275   7.270  16.793  0.00  0.00    +0.000 C 
ENDBRANCH   9  11
ENDBRANCH   1   9
BRANCH   2  12
ATOM     12  S   UNL     1       6.084   5.157  19.329  0.00  0.00    +0.000 S 
BRANCH  12  13
ATOM     13  C   UNL     1       5.444   3.473  19.638  0.00  0.00    +0.000 C 
BRANCH  13  14
ATOM     14  C   UNL     1       4.091   3.201  18.976  0.00  0.00    +0.000 C 
ATOM     15  O   UNL     1       4.030   2.667  17.872  0.00  0.00    +0.000 OA
ATOM     16  N   UNL     1       2.983   3.682  19.642  0.00  0.00    +0.000 N 
ATOM     17  H   UNL     1       3.138   4.049  20.574  0.00  0.00    +0.000 HD
BRANCH  16  18
ATOM     18  C   UNL     1       1.589   3.586  19.162  0.00  0.00    +0.000 C 
ATOM     19  C   UNL     1       1.138   2.121  19.032  0.00  0.00    +0.000 C 
ATOM     20  C   UNL     1       0.677   4.280  20.192  0.00  0.00    +0.000 C 
ATOM     21  C   UNL     1       1.410   4.304  17.813  0.00  0.00    +0.000 C 
ENDBRANCH  16  18
ENDBRANCH  13  14
ENDBRANCH  12  13
ENDBRANCH   2  12
TORSDOF 7
ENDMDL
MODEL 5
REMARK VINA RESULT:      -6.0      1.008      1.607
REMARK  Name = 
REMARK  13 active torsions:
REMARK  status: ('A' for Active; 'I' for Inactive)
REMARK    1  A    between atoms: C_1  and  C_2
REMARK    2  A    between atoms: C_2  and  C_3
REMARK    3  A    between atoms: C_3  and  N_4
REMARK    4  A    between atoms: C_5  and  S_6
REMARK    5  A    between atoms: S_6  and  C_7
REMARK    6  A    between atoms: C_7  and  C_8
REMARK    7  A    between atoms: N_10  and  C_11
REMARK    8  A    between atoms: C_11  and  C_12
REMARK    9  A    between atoms: C_11  and  C_13
REMARK   10  A    between atoms: C_11  and  C_14
REMARK   11  A    between atoms: C_17  and  C_18
REMARK   12  A    between atoms: C_18  and  C_19
REMARK   13  A    between atoms: C_18  and  C_20
REMARK                            x       y       z     vdW  Elec       q    Type
REMARK                         _______ _______ _______ _____ _____    ______ ____
ROOT
ATOM      1  N   UNL     1       3.408   4.264  18.906  0.00  0.00    +0.000 N 
ATOM      2  C   UNL     1       4.249   3.998  17.851  0.00  0.00    +0.000 A 
ATOM      3  N   UNL     1       4.082   2.757  17.456  0.00  0.00    +0.000 NA
ATOM      4  N   UNL     1       3.150   2.169  18.264  0.00  0.00    +0.000 NA
ATOM      5  C   UNL     1       2.756   3.056  19.155  0.00  0.00    +0.000 A 
ENDROOT
BRANCH   5   6
ATOM      6  C   UNL     1       1.743   2.808  20.245  0.00  0.00    +0.000 C 
ATOM      7  C   UNL     1       2.438   2.719  21.604  0.00  0.00    +0.000 C 
ATOM      8  C   UNL     1       0.664   3.895  20.285  0.00  0.00    +0.000 C 
ENDBRANCH   5   6
BRANCH   1   9
ATOM      9  C   UNL     1       3.231   5.440  19.730  0.00  0.00    +0.000 C 
BRANCH   9  11
ATOM     10  C   UNL     1       1.928   7.594  20.196  0.00  0.00    +0.000 C 
ATOM     11  C   UNL     1       2.648   6.737  19.168  0.00  0.00    +0.000 C 
ENDBRANCH   9  11
ENDBRANCH   1   9
BRANCH   2  12
ATOM     12  S   UNL     1       5.409   5.075  17.136  0.00  0.00    +0.000 S 
BRANCH  12  13
ATOM     13  C   UNL     1       6.287   3.919  16.026  0.00  0.00    +0.000 C 
BRANCH  13  14
ATOM     14  C   UNL     1       6.081   4.222  14.539  0.00  0.00    +0.000 C 
ATOM     15  O   UNL     1       5.619   5.301  14.178  0.00  0.00    +0.000 OA
ATOM     16  N   UNL     1       6.344   3.186  13.668  0.00  0.00    +0.000 N 
ATOM     17  H   UNL     1       6.781   2.361  14.062  0.00  0.00    +0.000 HD
BRANCH  16  18
ATOM     18  C   UNL     1       6.159   3.234  12.202  0.00  0.00    +0.000 C 
ATOM     19  C   UNL     1       4.707   3.581  11.830  0.00  0.00    +0.000 C 
ATOM     20  C   UNL     1       7.076   4.336  11.638  0.00  0.00    +0.000 C 
ATOM     21  C   UNL     1       6.558   1.903  11.542  0.00  0.00    +0.000 C 
ENDBRANCH  16  18
ENDBRANCH  13  14
ENDBRANCH  12  13
ENDBRANCH   2  12
TORSDOF 7
ENDMDL
MODEL 6
REMARK VINA RESULT:      -5.9      2.376      6.258
REMARK  Name = 
REMARK  13 active torsions:
REMARK  status: ('A' for Active; 'I' for Inactive)
REMARK    1  A    between atoms: C_1  and  C_2
REMARK    2  A    between atoms: C_2  and  C_3
REMARK    3  A    between atoms: C_3  and  N_4
REMARK    4  A    between atoms: C_5  and  S_6
REMARK    5  A    between atoms: S_6  and  C_7
REMARK    6  A    between atoms: C_7  and  C_8
REMARK    7  A    between atoms: N_10  and  C_11
REMARK    8  A    between atoms: C_11  and  C_12
REMARK    9  A    between atoms: C_11  and  C_13
REMARK   10  A    between atoms: C_11  and  C_14
REMARK   11  A    between atoms: C_17  and  C_18
REMARK   12  A    between atoms: C_18  and  C_19
REMARK   13  A    between atoms: C_18  and  C_20
REMARK                            x       y       z     vdW  Elec       q    Type
REMARK                         _______ _______ _______ _____ _____    ______ ____
ROOT
ATOM      1  N   UNL     1       6.114   5.459  16.566  0.00  0.00    +0.000 N 
ATOM      2  C   UNL     1       6.852   5.106  17.672  0.00  0.00    +0.000 A 
ATOM      3  N   UNL     1       7.918   4.437  17.296  0.00  0.00    +0.000 NA
ATOM      4  N   UNL     1       7.887   4.307  15.936  0.00  0.00    +0.000 NA
ATOM      5  C   UNL     1       6.797   4.895  15.488  0.00  0.00    +0.000 A 
ENDROOT
BRANCH   5   6
ATOM      6  C   UNL     1       6.376   4.967  14.041  0.00  0.00    +0.000 C 
ATOM      7  C   UNL     1       7.592   5.215  13.147  0.00  0.00    +0.000 C 
ATOM      8  C   UNL     1       5.652   3.694  13.590  0.00  0.00    +0.000 C 
ENDBRANCH   5   6
BRANCH   1   9
ATOM      9  C   UNL     1       4.849   6.147  16.425  0.00  0.00    +0.000 C 
BRANCH   9  11
ATOM     10  C   UNL     1       3.089   7.593  17.594  0.00  0.00    +0.000 C 
ATOM     11  C   UNL     1       4.546   7.438  17.187  0.00  0.00    +0.000 C 
ENDBRANCH   9  11
ENDBRANCH   1   9
BRANCH   2  12
ATOM     12  S   UNL     1       6.465   5.422  19.336  0.00  0.00    +0.000 S 
BRANCH  12  13
ATOM     13  C   UNL     1       5.344   4.021  19.683  0.00  0.00    +0.000 C 
BRANCH  13  14
ATOM     14  C   UNL     1       3.861   4.381  19.565  0.00  0.00    +0.000 C 
ATOM     15  O   UNL     1       3.446   5.468  19.959  0.00  0.00    +0.000 OA
ATOM     16  N   UNL     1       3.032   3.384  19.095  0.00  0.00    +0.000 N 
ATOM     17  H   UNL     1       3.483   2.549  18.738  0.00  0.00    +0.000 HD
BRANCH  16  18
ATOM     18  C   UNL     1       1.564   3.488  18.955  0.00  0.00    +0.000 C 
ATOM     19  C   UNL     1       0.922   4.103  20.211  0.00  0.00    +0.000 C 
ATOM     20  C   UNL     1       1.259   4.409  17.759  0.00  0.00    +0.000 C 
ATOM     21  C   UNL     1       0.929   2.116  18.670  0.00  0.00    +0.000 C 
ENDBRANCH  16  18
ENDBRANCH  13  14
ENDBRANCH  12  13
ENDBRANCH   2  12
TORSDOF 7
ENDMDL
MODEL 7
REMARK VINA RESULT:      -5.9      0.700      1.235
REMARK  Name = 
REMARK  13 active torsions:
REMARK  status: ('A' for Active; 'I' for Inactive)
REMARK    1  A    between atoms: C_1  and  C_2
REMARK    2  A    between atoms: C_2  and  C_3
REMARK    3  A    between atoms: C_3  and  N_4
REMARK    4  A    between atoms: C_5  and  S_6
REMARK    5  A    between atoms: S_6  and  C_7
REMARK    6  A    between atoms: C_7  and  C_8
REMARK    7  A    between atoms: N_10  and  C_11
REMARK    8  A    between atoms: C_11  and  C_12
REMARK    9  A    between atoms: C_11  and  C_13
REMARK   10  A    between atoms: C_11  and  C_14
REMARK   11  A    between atoms: C_17  and  C_18
REMARK   12  A    between atoms: C_18  and  C_19
REMARK   13  A    between atoms: C_18  and  C_20
REMARK                            x       y       z     vdW  Elec       q    Type
REMARK                         _______ _______ _______ _____ _____    ______ ____
ROOT
ATOM      1  N   UNL     1       3.757   4.590  18.252  0.00  0.00    +0.000 N 
ATOM      2  C   UNL     1       5.123   4.469  18.363  0.00  0.00    +0.000 A 
ATOM      3  N   UNL     1       5.411   3.537  19.243  0.00  0.00    +0.000 NA
ATOM      4  N   UNL     1       4.242   3.049  19.753  0.00  0.00    +0.000 NA
ATOM      5  C   UNL     1       3.242   3.691  19.185  0.00  0.00    +0.000 A 
ENDROOT
BRANCH   5   6
ATOM      6  C   UNL     1       1.779   3.464  19.479  0.00  0.00    +0.000 C 
ATOM      7  C   UNL     1       1.440   1.977  19.364  0.00  0.00    +0.000 C 
ATOM      8  C   UNL     1       1.387   3.980  20.867  0.00  0.00    +0.000 C 
ENDBRANCH   5   6
BRANCH   1   9
ATOM      9  C   UNL     1       2.925   5.486  17.477  0.00  0.00    +0.000 C 
BRANCH   9  11
ATOM     10  C   UNL     1       2.844   7.106  19.458  0.00  0.00    +0.000 C 
ATOM     11  C   UNL     1       2.278   6.724  18.100  0.00  0.00    +0.000 C 
ENDBRANCH   9  11
ENDBRANCH   1   9
BRANCH   2  12
ATOM     12  S   UNL     1       6.331   5.402  17.535  0.00  0.00    +0.000 S 
BRANCH  12  13
ATOM     13  C   UNL     1       6.929   4.166  16.329  0.00  0.00    +0.000 C 
BRANCH  13  14
ATOM     14  C   UNL     1       6.583   4.510  14.878  0.00  0.00    +0.000 C 
ATOM     15  O   UNL     1       6.209   5.640  14.573  0.00  0.00    +0.000 OA
ATOM     16  N   UNL     1       6.618   3.462  13.982  0.00  0.00    +0.000 N 
ATOM     17  H   UNL     1       7.001   2.587  14.322  0.00  0.00    +0.000 HD
BRANCH  16  18
ATOM     18  C   UNL     1       6.267   3.550  12.549  0.00  0.00    +0.000 C 
ATOM     19  C   UNL     1       4.799   3.967  12.355  0.00  0.00    +0.000 C 
ATOM     20  C   UNL     1       7.161   4.623  11.899  0.00  0.00    +0.000 C 
ATOM     21  C   UNL     1       6.525   2.218  11.825  0.00  0.00    +0.000 C 
ENDBRANCH  16  18
ENDBRANCH  13  14
ENDBRANCH  12  13
ENDBRANCH   2  12
TORSDOF 7
ENDMDL
MODEL 8
REMARK VINA RESULT:      -5.8      2.146      3.893
REMARK  Name = 
REMARK  13 active torsions:
REMARK  status: ('A' for Active; 'I' for Inactive)
REMARK    1  A    between atoms: C_1  and  C_2
REMARK    2  A    between atoms: C_2  and  C_3
REMARK    3  A    between atoms: C_3  and  N_4
REMARK    4  A    between atoms: C_5  and  S_6
REMARK    5  A    between atoms: S_6  and  C_7
REMARK    6  A    between atoms: C_7  and  C_8
REMARK    7  A    between atoms: N_10  and  C_11
REMARK    8  A    between atoms: C_11  and  C_12
REMARK    9  A    between atoms: C_11  and  C_13
REMARK   10  A    between atoms: C_11  and  C_14
REMARK   11  A    between atoms: C_17  and  C_18
REMARK   12  A    between atoms: C_18  and  C_19
REMARK   13  A    between atoms: C_18  and  C_20
REMARK                            x       y       z     vdW  Elec       q    Type
REMARK                         _______ _______ _______ _____ _____    ______ ____
ROOT
ATOM      1  N   UNL     1       2.686   4.682  19.524  0.00  0.00    +0.000 N 
ATOM      2  C   UNL     1       3.911   4.061  19.601  0.00  0.00    +0.000 A 
ATOM      3  N   UNL     1       4.864   4.965  19.585  0.00  0.00    +0.000 NA
ATOM      4  N   UNL     1       4.287   6.198  19.465  0.00  0.00    +0.000 NA
ATOM      5  C   UNL     1       2.980   6.039  19.403  0.00  0.00    +0.000 A 
ENDROOT
BRANCH   5   6
ATOM      6  C   UNL     1       1.972   7.152  19.252  0.00  0.00    +0.000 C 
ATOM      7  C   UNL     1       1.728   7.831  20.601  0.00  0.00    +0.000 C 
ATOM      8  C   UNL     1       2.417   8.193  18.220  0.00  0.00    +0.000 C 
ENDBRANCH   5   6
BRANCH   1   9
ATOM      9  C   UNL     1       1.338   4.157  19.455  0.00  0.00    +0.000 C 
BRANCH   9  11
ATOM     10  C   UNL     1       1.376   2.987  21.731  0.00  0.00    +0.000 C 
ATOM     11  C   UNL     1       0.900   2.952  20.288  0.00  0.00    +0.000 C 
ENDBRANCH   9  11
ENDBRANCH   1   9
BRANCH   2  12
ATOM     12  S   UNL     1       4.222   2.353  19.662  0.00  0.00    +0.000 S 
BRANCH  12  13
ATOM     13  C   UNL     1       3.903   1.901  17.920  0.00  0.00    +0.000 C 
BRANCH  13  14
ATOM     14  C   UNL     1       4.081   3.066  16.943  0.00  0.00    +0.000 C 
ATOM     15  O   UNL     1       3.114   3.545  16.356  0.00  0.00    +0.000 OA
ATOM     16  N   UNL     1       5.380   3.456  16.696  0.00  0.00    +0.000 N 
ATOM     17  H   UNL     1       6.098   3.041  17.279  0.00  0.00    +0.000 HD
BRANCH  16  18
ATOM     18  C   UNL     1       5.789   4.515  15.748  0.00  0.00    +0.000 C 
ATOM     19  C   UNL     1       5.062   5.839  16.036  0.00  0.00    +0.000 C 
ATOM     20  C   UNL     1       7.303   4.751  15.915  0.00  0.00    +0.000 C 
ATOM     21  C   UNL     1       5.535   4.092  14.291  0.00  0.00    +0.000 C 
ENDBRANCH  16  18
ENDBRANCH  13  14
ENDBRANCH  12  13
ENDBRANCH   2  12
TORSDOF 7
ENDMDL
MODEL 9
REMARK VINA RESULT:      -5.7      1.122      1.406
REMARK  Name = 
REMARK  13 active torsions:
REMARK  status: ('A' for Active; 'I' for Inactive)
REMARK    1  A    between atoms: C_1  and  C_2
REMARK    2  A    between atoms: C_2  and  C_3
REMARK    3  A    between atoms: C_3  and  N_4
REMARK    4  A    between atoms: C_5  and  S_6
REMARK    5  A    between atoms: S_6  and  C_7
REMARK    6  A    between atoms: C_7  and  C_8
REMARK    7  A    between atoms: N_10  and  C_11
REMARK    8  A    between atoms: C_11  and  C_12
REMARK    9  A    between atoms: C_11  and  C_13
REMARK   10  A    between atoms: C_11  and  C_14
REMARK   11  A    between atoms: C_17  and  C_18
REMARK   12  A    between atoms: C_18  and  C_19
REMARK   13  A    between atoms: C_18  and  C_20
REMARK                            x       y       z     vdW  Elec       q    Type
REMARK                         _______ _______ _______ _____ _____    ______ ____
ROOT
ATOM      1  N   UNL     1       3.487   4.221  18.692  0.00  0.00    +0.000 N 
ATOM      2  C   UNL     1       4.321   4.066  17.609  0.00  0.00    +0.000 A 
ATOM      3  N   UNL     1       4.276   2.821  17.194  0.00  0.00    +0.000 NA
ATOM      4  N   UNL     1       3.436   2.123  18.014  0.00  0.00    +0.000 NA
ATOM      5  C   UNL     1       2.975   2.946  18.933  0.00  0.00    +0.000 A 
ENDROOT
BRANCH   5   6
ATOM      6  C   UNL     1       2.026   2.571  20.045  0.00  0.00    +0.000 C 
ATOM      7  C   UNL     1       2.605   2.986  21.398  0.00  0.00    +0.000 C 
ATOM      8  C   UNL     1       0.643   3.204  19.856  0.00  0.00    +0.000 C 
ENDBRANCH   5   6
BRANCH   1   9
ATOM      9  C   UNL     1       3.208   5.358  19.545  0.00  0.00    +0.000 C 
BRANCH   9  11
ATOM     10  C   UNL     1       1.898   7.438  20.255  0.00  0.00    +0.000 C 
ATOM     11  C   UNL     1       2.165   6.410  19.168  0.00  0.00    +0.000 C 
ENDBRANCH   9  11
ENDBRANCH   1   9
BRANCH   2  12
ATOM     12  S   UNL     1       5.338   5.274  16.886  0.00  0.00    +0.000 S 
BRANCH  12  13
ATOM     13  C   UNL     1       6.660   4.218  16.196  0.00  0.00    +0.000 C 
BRANCH  13  14
ATOM     14  C   UNL     1       6.842   4.374  14.684  0.00  0.00    +0.000 C 
ATOM     15  O   UNL     1       7.490   5.312  14.225  0.00  0.00    +0.000 OA
ATOM     16  N   UNL     1       6.157   3.475  13.895  0.00  0.00    +0.000 N 
ATOM     17  H   UNL     1       5.705   2.704  14.373  0.00  0.00    +0.000 HD
BRANCH  16  18
ATOM     18  C   UNL     1       6.139   3.475  12.417  0.00  0.00    +0.000 C 
ATOM     19  C   UNL     1       7.149   4.483  11.843  0.00  0.00    +0.000 C 
ATOM     20  C   UNL     1       6.535   2.067  11.931  0.00  0.00    +0.000 C 
ATOM     21  C   UNL     1       4.734   3.784  11.873  0.00  0.00    +0.000 C 
ENDBRANCH  16  18
ENDBRANCH  13  14
ENDBRANCH  12  13
ENDBRANCH   2  12
TORSDOF 7
ENDMDL
