MODEL 1
REMARK VINA RESULT:      -7.2      0.000      0.000
REMARK  Name = 
REMARK  3 active torsions:
REMARK  status: ('A' for Active; 'I' for Inactive)
REMARK    1  A    between atoms: C_1  and  O_2
REMARK    2  A    between atoms: O_2  and  C_3
REMARK    3  A    between atoms: C_6  and  C_7
REMARK                            x       y       z     vdW  Elec       q    Type
REMARK                         _______ _______ _______ _____ _____    ______ ____
ROOT
ATOM      1  C   UNL     1       1.863   8.235  19.278  0.00  0.00    +0.000 C 
ATOM      2  O   UNL     1       2.065   8.906  18.252  0.00  0.00    +0.000 OA
ATOM      3  N   UNL     1       2.410   6.964  19.435  0.00  0.00    +0.000 N 
ATOM      4  C   UNL     1       3.366   6.469  18.449  0.00  0.00    +0.000 C 
ATOM      5  C   UNL     1       2.893   5.167  17.819  0.00  0.00    +0.000 C 
ATOM      6  C   UNL     1       2.535   4.139  18.890  0.00  0.00    +0.000 C 
ATOM      7  C   UNL     1       1.531   4.712  19.883  0.00  0.00    +0.000 C 
ATOM      8  C   UNL     1       2.034   6.009  20.479  0.00  0.00    +0.000 C 
ATOM      9  O   UNL     1       3.733   3.738  19.580  0.00  0.00    +0.000 OA
ATOM     10  C   UNL     1       3.665   2.314  19.641  0.00  0.00    +0.000 C 
ATOM     11  C   UNL     1       2.889   1.941  18.409  0.00  0.00    +0.000 C 
ATOM     12  O   UNL     1       1.933   2.989  18.275  0.00  0.00    +0.000 OA
ENDROOT
BRANCH   1  16
ATOM     13  C   UNL     1      -0.243  10.281  22.414  0.00  0.00    +0.000 A 
ATOM     14  C   UNL     1      -0.533  10.536  21.072  0.00  0.00    +0.000 A 
ATOM     15  C   UNL     1       0.097   9.817  20.053  0.00  0.00    +0.000 A 
ATOM     16  C   UNL     1       1.063   8.857  20.366  0.00  0.00    +0.000 A 
ATOM     17  C   UNL     1       1.363   8.630  21.717  0.00  0.00    +0.000 A 
ATOM     18  C   UNL     1       0.701   9.311  22.729  0.00  0.00    +0.000 A 
BRANCH  13  20
ATOM     19  C   UNL     1      -1.259  12.355  22.883  0.00  0.00    +0.000 C 
ATOM     20  O   UNL     1      -0.902  11.051  23.330  0.00  0.00    +0.000 OA
ENDBRANCH  13  20
ENDBRANCH   1  16
TORSDOF 2
ENDMDL
MODEL 2
REMARK VINA RESULT:      -7.1      4.683      6.476
REMARK  Name = 
REMARK  3 active torsions:
REMARK  status: ('A' for Active; 'I' for Inactive)
REMARK    1  A    between atoms: C_1  and  O_2
REMARK    2  A    between atoms: O_2  and  C_3
REMARK    3  A    between atoms: C_6  and  C_7
REMARK                            x       y       z     vdW  Elec       q    Type
REMARK                         _______ _______ _______ _____ _____    ______ ____
ROOT
ATOM      1  C   UNL     1       5.893   4.742  17.166  0.00  0.00    +0.000 C 
ATOM      2  O   UNL     1       5.963   4.286  16.012  0.00  0.00    +0.000 OA
ATOM      3  N   UNL     1       5.050   4.180  18.120  0.00  0.00    +0.000 N 
ATOM      4  C   UNL     1       4.349   2.936  17.813  0.00  0.00    +0.000 C 
ATOM      5  C   UNL     1       2.841   3.101  17.936  0.00  0.00    +0.000 C 
ATOM      6  C   UNL     1       2.465   3.694  19.293  0.00  0.00    +0.000 C 
ATOM      7  C   UNL     1       3.222   4.990  19.551  0.00  0.00    +0.000 C 
ATOM      8  C   UNL     1       4.714   4.786  19.409  0.00  0.00    +0.000 C 
ATOM      9  O   UNL     1       2.762   2.737  20.326  0.00  0.00    +0.000 OA
ATOM     10  C   UNL     1       1.602   2.719  21.158  0.00  0.00    +0.000 C 
ATOM     11  C   UNL     1       0.482   3.054  20.214  0.00  0.00    +0.000 C 
ATOM     12  O   UNL     1       1.061   3.996  19.315  0.00  0.00    +0.000 OA
ENDROOT
BRANCH   1  16
ATOM     13  C   UNL     1       8.266   8.098  18.414  0.00  0.00    +0.000 A 
ATOM     14  C   UNL     1       8.431   6.845  19.008  0.00  0.00    +0.000 A 
ATOM     15  C   UNL     1       7.714   5.736  18.551  0.00  0.00    +0.000 A 
ATOM     16  C   UNL     1       6.786   5.878  17.516  0.00  0.00    +0.000 A 
ATOM     17  C   UNL     1       6.613   7.148  16.947  0.00  0.00    +0.000 A 
ATOM     18  C   UNL     1       7.361   8.238  17.369  0.00  0.00    +0.000 A 
BRANCH  13  20
ATOM     19  C   UNL     1       8.892  10.367  18.269  0.00  0.00    +0.000 C 
ATOM     20  O   UNL     1       9.002   9.119  18.947  0.00  0.00    +0.000 OA
ENDBRANCH  13  20
ENDBRANCH   1  16
TORSDOF 2
ENDMDL
MODEL 3
REMARK VINA RESULT:      -7.1      0.936      1.078
REMARK  Name = 
REMARK  3 active torsions:
REMARK  status: ('A' for Active; 'I' for Inactive)
REMARK    1  A    between atoms: C_1  and  O_2
REMARK    2  A    between atoms: O_2  and  C_3
REMARK    3  A    between atoms: C_6  and  C_7
REMARK                            x       y       z     vdW  Elec       q    Type
REMARK                         _______ _______ _______ _____ _____    ______ ____
ROOT
ATOM      1  C   UNL     1       2.352   8.009  18.367  0.00  0.00    +0.000 C 
ATOM      2  O   UNL     1       2.700   8.572  17.315  0.00  0.00    +0.000 OA
ATOM      3  N   UNL     1       2.867   6.768  18.732  0.00  0.00    +0.000 N 
ATOM      4  C   UNL     1       3.953   6.184  17.948  0.00  0.00    +0.000 C 
ATOM      5  C   UNL     1       3.569   4.818  17.397  0.00  0.00    +0.000 C 
ATOM      6  C   UNL     1       3.059   3.903  18.509  0.00  0.00    +0.000 C 
ATOM      7  C   UNL     1       1.927   4.564  19.284  0.00  0.00    +0.000 C 
ATOM      8  C   UNL     1       2.344   5.922  19.806  0.00  0.00    +0.000 C 
ATOM      9  O   UNL     1       4.146   3.590  19.399  0.00  0.00    +0.000 OA
ATOM     10  C   UNL     1       4.066   2.179  19.599  0.00  0.00    +0.000 C 
ATOM     11  C   UNL     1       3.471   1.671  18.315  0.00  0.00    +0.000 C 
ATOM     12  O   UNL     1       2.548   2.689  17.939  0.00  0.00    +0.000 OA
ENDROOT
BRANCH   1  16
ATOM     13  C   UNL     1      -0.154  10.326  20.977  0.00  0.00    +0.000 A 
ATOM     14  C   UNL     1      -0.144  10.560  19.599  0.00  0.00    +0.000 A 
ATOM     15  C   UNL     1       0.613   9.758  18.742  0.00  0.00    +0.000 A 
ATOM     16  C   UNL     1       1.407   8.731  19.259  0.00  0.00    +0.000 A 
ATOM     17  C   UNL     1       1.408   8.525  20.647  0.00  0.00    +0.000 A 
ATOM     18  C   UNL     1       0.619   9.292  21.492  0.00  0.00    +0.000 A 
BRANCH  13  20
ATOM     19  C   UNL     1      -1.134  10.771  23.074  0.00  0.00    +0.000 C 
ATOM     20  O   UNL     1      -0.912  11.179  21.727  0.00  0.00    +0.000 OA
ENDBRANCH  13  20
ENDBRANCH   1  16
TORSDOF 2
ENDMDL
MODEL 4
REMARK VINA RESULT:      -7.1      2.363      7.455
REMARK  Name = 
REMARK  3 active torsions:
REMARK  status: ('A' for Active; 'I' for Inactive)
REMARK    1  A    between atoms: C_1  and  O_2
REMARK    2  A    between atoms: O_2  and  C_3
REMARK    3  A    between atoms: C_6  and  C_7
REMARK                            x       y       z     vdW  Elec       q    Type
REMARK                         _______ _______ _______ _____ _____    ______ ____
ROOT
ATOM      1  C   UNL     1       2.197   6.324  19.971  0.00  0.00    +0.000 C 
ATOM      2  O   UNL     1       1.699   5.756  20.957  0.00  0.00    +0.000 OA
ATOM      3  N   UNL     1       2.040   7.691  19.761  0.00  0.00    +0.000 N 
ATOM      4  C   UNL     1       1.410   8.506  20.797  0.00  0.00    +0.000 C 
ATOM      5  C   UNL     1       0.182   9.230  20.266  0.00  0.00    +0.000 C 
ATOM      6  C   UNL     1       0.513  10.009  18.994  0.00  0.00    +0.000 C 
ATOM      7  C   UNL     1       1.160   9.105  17.953  0.00  0.00    +0.000 C 
ATOM      8  C   UNL     1       2.370   8.397  18.523  0.00  0.00    +0.000 C 
ATOM      9  O   UNL     1       1.401  11.094  19.322  0.00  0.00    +0.000 OA
ATOM     10  C   UNL     1       0.857  12.232  18.655  0.00  0.00    +0.000 C 
ATOM     11  C   UNL     1      -0.619  11.950  18.616  0.00  0.00    +0.000 C 
ATOM     12  O   UNL     1      -0.693  10.540  18.424  0.00  0.00    +0.000 OA
ENDROOT
BRANCH   1  16
ATOM     13  C   UNL     1       4.607   4.216  17.106  0.00  0.00    +0.000 A 
ATOM     14  C   UNL     1       5.199   4.960  18.129  0.00  0.00    +0.000 A 
ATOM     15  C   UNL     1       4.417   5.583  19.106  0.00  0.00    +0.000 A 
ATOM     16  C   UNL     1       3.024   5.504  19.045  0.00  0.00    +0.000 A 
ATOM     17  C   UNL     1       2.443   4.776  17.996  0.00  0.00    +0.000 A 
ATOM     18  C   UNL     1       3.222   4.117  17.055  0.00  0.00    +0.000 A 
BRANCH  13  20
ATOM     19  C   UNL     1       6.688   4.359  16.008  0.00  0.00    +0.000 C 
ATOM     20  O   UNL     1       5.460   3.662  16.193  0.00  0.00    +0.000 OA
ENDBRANCH  13  20
ENDBRANCH   1  16
TORSDOF 2
ENDMDL
MODEL 5
REMARK VINA RESULT:      -7.0      4.709      6.335
REMARK  Name = 
REMARK  3 active torsions:
REMARK  status: ('A' for Active; 'I' for Inactive)
REMARK    1  A    between atoms: C_1  and  O_2
REMARK    2  A    between atoms: O_2  and  C_3
REMARK    3  A    between atoms: C_6  and  C_7
REMARK                            x       y       z     vdW  Elec       q    Type
REMARK                         _______ _______ _______ _____ _____    ______ ____
ROOT
ATOM      1  C   UNL     1       6.248   4.865  17.626  0.00  0.00    +0.000 C 
ATOM      2  O   UNL     1       6.718   4.195  16.691  0.00  0.00    +0.000 OA
ATOM      3  N   UNL     1       5.233   4.368  18.439  0.00  0.00    +0.000 N 
ATOM      4  C   UNL     1       4.815   2.976  18.294  0.00  0.00    +0.000 C 
ATOM      5  C   UNL     1       3.332   2.870  17.971  0.00  0.00    +0.000 C 
ATOM      6  C   UNL     1       2.495   3.656  18.979  0.00  0.00    +0.000 C 
ATOM      7  C   UNL     1       2.974   5.098  19.081  0.00  0.00    +0.000 C 
ATOM      8  C   UNL     1       4.454   5.160  19.392  0.00  0.00    +0.000 C 
ATOM      9  O   UNL     1       2.584   3.018  20.266  0.00  0.00    +0.000 OA
ATOM     10  C   UNL     1       1.239   2.955  20.741  0.00  0.00    +0.000 C 
ATOM     11  C   UNL     1       0.422   2.858  19.484  0.00  0.00    +0.000 C 
ATOM     12  O   UNL     1       1.124   3.680  18.554  0.00  0.00    +0.000 OA
ENDROOT
BRANCH   1  16
ATOM     13  C   UNL     1       8.189   8.662  18.149  0.00  0.00    +0.000 A 
ATOM     14  C   UNL     1       7.144   8.512  17.233  0.00  0.00    +0.000 A 
ATOM     15  C   UNL     1       6.463   7.298  17.117  0.00  0.00    +0.000 A 
ATOM     16  C   UNL     1       6.848   6.200  17.890  0.00  0.00    +0.000 A 
ATOM     17  C   UNL     1       7.916   6.358  18.786  0.00  0.00    +0.000 A 
ATOM     18  C   UNL     1       8.560   7.578  18.935  0.00  0.00    +0.000 A 
BRANCH  13  20
ATOM     19  C   UNL     1       9.308  10.288  19.438  0.00  0.00    +0.000 C 
ATOM     20  O   UNL     1       8.800   9.884  18.170  0.00  0.00    +0.000 OA
ENDBRANCH  13  20
ENDBRANCH   1  16
TORSDOF 2
ENDMDL
MODEL 6
REMARK VINA RESULT:      -7.0      2.296      7.596
REMARK  Name = 
REMARK  3 active torsions:
REMARK  status: ('A' for Active; 'I' for Inactive)
REMARK    1  A    between atoms: C_1  and  O_2
REMARK    2  A    between atoms: O_2  and  C_3
REMARK    3  A    between atoms: C_6  and  C_7
REMARK                            x       y       z     vdW  Elec       q    Type
REMARK                         _______ _______ _______ _____ _____    ______ ____
ROOT
ATOM      1  C   UNL     1       2.354   6.452  19.535  0.00  0.00    +0.000 C 
ATOM      2  O   UNL     1       1.969   5.766  20.497  0.00  0.00    +0.000 OA
ATOM      3  N   UNL     1       2.107   7.820  19.470  0.00  0.00    +0.000 N 
ATOM      4  C   UNL     1       1.520   8.497  20.623  0.00  0.00    +0.000 C 
ATOM      5  C   UNL     1       0.216   9.191  20.259  0.00  0.00    +0.000 C 
ATOM      6  C   UNL     1       0.401  10.101  19.046  0.00  0.00    +0.000 C 
ATOM      7  C   UNL     1       1.009   9.338  17.877  0.00  0.00    +0.000 C 
ATOM      8  C   UNL     1       2.297   8.655  18.283  0.00  0.00    +0.000 C 
ATOM      9  O   UNL     1       1.253  11.204  19.408  0.00  0.00    +0.000 OA
ATOM     10  C   UNL     1       0.596  12.362  18.897  0.00  0.00    +0.000 C 
ATOM     11  C   UNL     1      -0.861  11.995  18.943  0.00  0.00    +0.000 C 
ATOM     12  O   UNL     1      -0.875  10.607  18.622  0.00  0.00    +0.000 OA
ENDROOT
BRANCH   1  16
ATOM     13  C   UNL     1       4.758   4.295  16.701  0.00  0.00    +0.000 A 
ATOM     14  C   UNL     1       3.478   3.849  17.040  0.00  0.00    +0.000 A 
ATOM     15  C   UNL     1       2.667   4.591  17.902  0.00  0.00    +0.000 A 
ATOM     16  C   UNL     1       3.145   5.772  18.475  0.00  0.00    +0.000 A 
ATOM     17  C   UNL     1       4.443   6.193  18.146  0.00  0.00    +0.000 A 
ATOM     18  C   UNL     1       5.229   5.481  17.251  0.00  0.00    +0.000 A 
BRANCH  13  20
ATOM     19  C   UNL     1       6.339   4.165  14.957  0.00  0.00    +0.000 C 
ATOM     20  O   UNL     1       5.475   3.487  15.864  0.00  0.00    +0.000 OA
ENDBRANCH  13  20
ENDBRANCH   1  16
TORSDOF 2
ENDMDL
MODEL 7
REMARK VINA RESULT:      -6.9      0.327      1.123
REMARK  Name = 
REMARK  3 active torsions:
REMARK  status: ('A' for Active; 'I' for Inactive)
REMARK    1  A    between atoms: C_1  and  O_2
REMARK    2  A    between atoms: O_2  and  C_3
REMARK    3  A    between atoms: C_6  and  C_7
REMARK                            x       y       z     vdW  Elec       q    Type
REMARK                         _______ _______ _______ _____ _____    ______ ____
ROOT
ATOM      1  C   UNL     1       1.809   8.289  19.085  0.00  0.00    +0.000 C 
ATOM      2  O   UNL     1       1.898   8.846  17.978  0.00  0.00    +0.000 OA
ATOM      3  N   UNL     1       2.354   7.028  19.312  0.00  0.00    +0.000 N 
ATOM      4  C   UNL     1       3.182   6.410  18.279  0.00  0.00    +0.000 C 
ATOM      5  C   UNL     1       2.622   5.063  17.848  0.00  0.00    +0.000 C 
ATOM      6  C   UNL     1       2.378   4.160  19.056  0.00  0.00    +0.000 C 
ATOM      7  C   UNL     1       1.505   4.857  20.092  0.00  0.00    +0.000 C 
ATOM      8  C   UNL     1       2.090   6.195  20.486  0.00  0.00    +0.000 C 
ATOM      9  O   UNL     1       3.643   3.802  19.642  0.00  0.00    +0.000 OA
ATOM     10  C   UNL     1       3.564   2.394  19.859  0.00  0.00    +0.000 C 
ATOM     11  C   UNL     1       2.645   1.916  18.771  0.00  0.00    +0.000 C 
ATOM     12  O   UNL     1       1.694   2.968  18.638  0.00  0.00    +0.000 OA
ENDROOT
BRANCH   1  16
ATOM     13  C   UNL     1      -0.312  10.217  22.286  0.00  0.00    +0.000 A 
ATOM     14  C   UNL     1       0.699   9.291  22.553  0.00  0.00    +0.000 A 
ATOM     15  C   UNL     1       1.441   8.721  21.515  0.00  0.00    +0.000 A 
ATOM     16  C   UNL     1       1.149   9.040  20.186  0.00  0.00    +0.000 A 
ATOM     17  C   UNL     1       0.114   9.952  19.932  0.00  0.00    +0.000 A 
ATOM     18  C   UNL     1      -0.589  10.554  20.966  0.00  0.00    +0.000 A 
BRANCH  13  20
ATOM     19  C   UNL     1      -1.909  11.751  23.094  0.00  0.00    +0.000 C 
ATOM     20  O   UNL     1      -0.987  10.701  23.370  0.00  0.00    +0.000 OA
ENDBRANCH  13  20
ENDBRANCH   1  16
TORSDOF 2
ENDMDL
MODEL 8
REMARK VINA RESULT:      -6.8      0.995      1.575
REMARK  Name = 
REMARK  3 active torsions:
REMARK  status: ('A' for Active; 'I' for Inactive)
REMARK    1  A    between atoms: C_1  and  O_2
REMARK    2  A    between atoms: O_2  and  C_3
REMARK    3  A    between atoms: C_6  and  C_7
REMARK                            x       y       z     vdW  Elec       q    Type
REMARK                         _______ _______ _______ _____ _____    ______ ____
ROOT
ATOM      1  C   UNL     1       2.437   7.980  18.289  0.00  0.00    +0.000 C 
ATOM      2  O   UNL     1       2.699   8.479  17.181  0.00  0.00    +0.000 OA
ATOM      3  N   UNL     1       2.961   6.749  18.675  0.00  0.00    +0.000 N 
ATOM      4  C   UNL     1       3.962   6.101  17.831  0.00  0.00    +0.000 C 
ATOM      5  C   UNL     1       3.507   4.717  17.392  0.00  0.00    +0.000 C 
ATOM      6  C   UNL     1       3.083   3.873  18.593  0.00  0.00    +0.000 C 
ATOM      7  C   UNL     1       2.036   4.600  19.428  0.00  0.00    +0.000 C 
ATOM      8  C   UNL     1       2.522   5.974  19.835  0.00  0.00    +0.000 C 
ATOM      9  O   UNL     1       4.239   3.584  19.400  0.00  0.00    +0.000 OA
ATOM     10  C   UNL     1       4.152   2.188  19.683  0.00  0.00    +0.000 C 
ATOM     11  C   UNL     1       3.437   1.626  18.487  0.00  0.00    +0.000 C 
ATOM     12  O   UNL     1       2.501   2.642  18.138  0.00  0.00    +0.000 OA
ENDROOT
BRANCH   1  16
ATOM     13  C   UNL     1      -0.249  10.046  20.929  0.00  0.00    +0.000 A 
ATOM     14  C   UNL     1       0.558   9.007  21.399  0.00  0.00    +0.000 A 
ATOM     15  C   UNL     1       1.486   8.386  20.559  0.00  0.00    +0.000 A 
ATOM     16  C   UNL     1       1.589   8.770  19.220  0.00  0.00    +0.000 A 
ATOM     17  C   UNL     1       0.753   9.797  18.756  0.00  0.00    +0.000 A 
ATOM     18  C   UNL     1      -0.134  10.446  19.603  0.00  0.00    +0.000 A 
BRANCH  13  20
ATOM     19  C   UNL     1      -0.832  10.327  23.196  0.00  0.00    +0.000 C 
ATOM     20  O   UNL     1      -1.135  10.572  21.826  0.00  0.00    +0.000 OA
ENDBRANCH  13  20
ENDBRANCH   1  16
TORSDOF 2
ENDMDL
MODEL 9
REMARK VINA RESULT:      -6.7      4.451      8.277
REMARK  Name = 
REMARK  3 active torsions:
REMARK  status: ('A' for Active; 'I' for Inactive)
REMARK    1  A    between atoms: C_1  and  O_2
REMARK    2  A    between atoms: O_2  and  C_3
REMARK    3  A    between atoms: C_6  and  C_7
REMARK                            x       y       z     vdW  Elec       q    Type
REMARK                         _______ _______ _______ _____ _____    ______ ____
ROOT
ATOM      1  C   UNL     1       5.192   5.739  16.667  0.00  0.00    +0.000 C 
ATOM      2  O   UNL     1       5.731   6.808  17.003  0.00  0.00    +0.000 OA
ATOM      3  N   UNL     1       4.104   5.221  17.365  0.00  0.00    +0.000 N 
ATOM      4  C   UNL     1       3.482   6.021  18.416  0.00  0.00    +0.000 C 
ATOM      5  C   UNL     1       3.494   5.293  19.752  0.00  0.00    +0.000 C 
ATOM      6  C   UNL     1       2.898   3.893  19.617  0.00  0.00    +0.000 C 
ATOM      7  C   UNL     1       3.592   3.107  18.511  0.00  0.00    +0.000 C 
ATOM      8  C   UNL     1       3.567   3.870  17.204  0.00  0.00    +0.000 C 
ATOM      9  O   UNL     1       1.492   4.003  19.331  0.00  0.00    +0.000 OA
ATOM     10  C   UNL     1       0.861   3.076  20.215  0.00  0.00    +0.000 C 
ATOM     11  C   UNL     1       1.775   3.043  21.407  0.00  0.00    +0.000 C 
ATOM     12  O   UNL     1       3.078   3.170  20.845  0.00  0.00    +0.000 OA
ENDROOT
BRANCH   1  16
ATOM     13  C   UNL     1       6.651   4.040  13.000  0.00  0.00    +0.000 A 
ATOM     14  C   UNL     1       7.513   4.709  13.872  0.00  0.00    +0.000 A 
ATOM     15  C   UNL     1       7.056   5.195  15.099  0.00  0.00    +0.000 A 
ATOM     16  C   UNL     1       5.711   5.055  15.453  0.00  0.00    +0.000 A 
ATOM     17  C   UNL     1       4.851   4.405  14.555  0.00  0.00    +0.000 A 
ATOM     18  C   UNL     1       5.317   3.880  13.358  0.00  0.00    +0.000 A 
BRANCH  13  20
ATOM     19  C   UNL     1       6.863   2.289  11.436  0.00  0.00    +0.000 C 
ATOM     20  O   UNL     1       7.194   3.620  11.819  0.00  0.00    +0.000 OA
ENDBRANCH  13  20
ENDBRANCH   1  16
TORSDOF 2
ENDMDL
