MODEL 1
REMARK VINA RESULT:      -8.4      0.000      0.000
REMARK  Name = 
REMARK  6 active torsions:
REMARK  status: ('A' for Active; 'I' for Inactive)
REMARK    1  A    between atoms: C_1  and  C_2
REMARK    2  A    between atoms: C_6  and  N_7
REMARK    3  A    between atoms: C_8  and  C_10
REMARK    4  A    between atoms: C_10  and  S_11
REMARK    5  A    between atoms: S_11  and  C_14
REMARK    6  A    between atoms: N_16  and  C_17
REMARK                            x       y       z     vdW  Elec       q    Type
REMARK                         _______ _______ _______ _____ _____    ______ ____
ROOT
ATOM      1  S   UNL     1       3.282   3.327  18.608  0.00  0.00    +0.000 S 
ATOM      2  O   UNL     1       3.594   1.917  18.511  0.00  0.00    +0.000 OA
ATOM      3  O   UNL     1       2.279   3.955  17.768  0.00  0.00    +0.000 OA
ENDROOT
BRANCH   1   4
ATOM      4  C   UNL     1       4.762   4.122  18.187  0.00  0.00    +0.000 A 
ATOM      5  C   UNL     1       5.631   4.686  19.100  0.00  0.00    +0.000 A 
ATOM      6  N   UNL     1       6.723   5.147  18.419  0.00  0.00    +0.000 N 
ATOM      7  C   UNL     1       7.891   5.733  19.038  0.00  0.00    +0.000 C 
ATOM      8  C   UNL     1       6.567   4.924  17.066  0.00  0.00    +0.000 A 
ATOM      9  C   UNL     1       7.425   5.222  15.994  0.00  0.00    +0.000 A 
ATOM     10  C   UNL     1       7.024   4.857  14.709  0.00  0.00    +0.000 A 
ATOM     11  C   UNL     1       5.810   4.212  14.500  0.00  0.00    +0.000 A 
ATOM     12  C   UNL     1       4.962   3.911  15.575  0.00  0.00    +0.000 A 
ATOM     13  C   UNL     1       5.336   4.275  16.889  0.00  0.00    +0.000 A 
ENDBRANCH   1   4
BRANCH   1  14
ATOM     14  C   UNL     1       2.940   3.754  20.276  0.00  0.00    +0.000 C 
BRANCH  14  16
ATOM     15  N   UNL     1       2.633   6.176  20.087  0.00  0.00    +0.000 N 
ATOM     16  C   UNL     1       2.023   4.947  20.296  0.00  0.00    +0.000 C 
ATOM     17  O   UNL     1       0.839   4.786  20.593  0.00  0.00    +0.000 OA
ATOM     18  H   UNL     1       3.647   6.207  20.007  0.00  0.00    +0.000 HD
BRANCH  15  24
ATOM     19  C   UNL     1      -0.088   9.651  22.304  0.00  0.00    +0.000 C 
ATOM     20  C   UNL     1       0.647   9.159  21.092  0.00  0.00    +0.000 A 
ATOM     21  C   UNL     1       0.639   9.901  19.908  0.00  0.00    +0.000 A 
ATOM     22  C   UNL     1       1.304   9.426  18.781  0.00  0.00    +0.000 A 
ATOM     23  C   UNL     1       1.967   8.196  18.819  0.00  0.00    +0.000 A 
ATOM     24  C   UNL     1       1.981   7.430  19.986  0.00  0.00    +0.000 A 
ATOM     25  C   UNL     1       1.336   7.932  21.127  0.00  0.00    +0.000 A 
ENDBRANCH  15  24
ENDBRANCH  14  16
ENDBRANCH   1  14
TORSDOF 4
ENDMDL
MODEL 2
REMARK VINA RESULT:      -8.2      0.406      1.412
REMARK  Name = 
REMARK  6 active torsions:
REMARK  status: ('A' for Active; 'I' for Inactive)
REMARK    1  A    between atoms: C_1  and  C_2
REMARK    2  A    between atoms: C_6  and  N_7
REMARK    3  A    between atoms: C_8  and  C_10
REMARK    4  A    between atoms: C_10  and  S_11
REMARK    5  A    between atoms: S_11  and  C_14
REMARK    6  A    between atoms: N_16  and  C_17
REMARK                            x       y       z     vdW  Elec       q    Type
REMARK                         _______ _______ _______ _____ _____    ______ ____
ROOT
ATOM      1  S   UNL     1       3.191   3.176  18.402  0.00  0.00    +0.000 S 
ATOM      2  O   UNL     1       3.494   1.780  18.167  0.00  0.00    +0.000 OA
ATOM      3  O   UNL     1       2.186   3.888  17.633  0.00  0.00    +0.000 OA
ENDROOT
BRANCH   1   4
ATOM      4  C   UNL     1       4.673   4.000  18.049  0.00  0.00    +0.000 A 
ATOM      5  C   UNL     1       5.505   4.549  19.004  0.00  0.00    +0.000 A 
ATOM      6  N   UNL     1       6.612   5.041  18.371  0.00  0.00    +0.000 N 
ATOM      7  C   UNL     1       7.752   5.626  19.042  0.00  0.00    +0.000 C 
ATOM      8  C   UNL     1       6.502   4.853  17.008  0.00  0.00    +0.000 A 
ATOM      9  C   UNL     1       7.390   5.189  15.973  0.00  0.00    +0.000 A 
ATOM     10  C   UNL     1       7.035   4.854  14.666  0.00  0.00    +0.000 A 
ATOM     11  C   UNL     1       5.836   4.200  14.401  0.00  0.00    +0.000 A 
ATOM     12  C   UNL     1       4.959   3.860  15.440  0.00  0.00    +0.000 A 
ATOM     13  C   UNL     1       5.285   4.194  16.774  0.00  0.00    +0.000 A 
ENDBRANCH   1   4
BRANCH   1  14
ATOM     14  C   UNL     1       2.862   3.442  20.105  0.00  0.00    +0.000 C 
BRANCH  14  16
ATOM     15  N   UNL     1       2.569   5.872  20.170  0.00  0.00    +0.000 N 
ATOM     16  C   UNL     1       1.951   4.631  20.247  0.00  0.00    +0.000 C 
ATOM     17  O   UNL     1       0.765   4.447  20.519  0.00  0.00    +0.000 OA
ATOM     18  H   UNL     1       3.583   5.905  20.099  0.00  0.00    +0.000 HD
BRANCH  15  24
ATOM     19  C   UNL     1       1.669  10.148  17.868  0.00  0.00    +0.000 C 
ATOM     20  C   UNL     1       1.465   9.244  19.049  0.00  0.00    +0.000 A 
ATOM     21  C   UNL     1       0.703   9.667  20.141  0.00  0.00    +0.000 A 
ATOM     22  C   UNL     1       0.538   8.831  21.243  0.00  0.00    +0.000 A 
ATOM     23  C   UNL     1       1.148   7.575  21.273  0.00  0.00    +0.000 A 
ATOM     24  C   UNL     1       1.924   7.133  20.199  0.00  0.00    +0.000 A 
ATOM     25  C   UNL     1       2.057   7.969  19.079  0.00  0.00    +0.000 A 
ENDBRANCH  15  24
ENDBRANCH  14  16
ENDBRANCH   1  14
TORSDOF 4
ENDMDL
MODEL 3
REMARK VINA RESULT:      -8.1      1.246      2.431
REMARK  Name = 
REMARK  6 active torsions:
REMARK  status: ('A' for Active; 'I' for Inactive)
REMARK    1  A    between atoms: C_1  and  C_2
REMARK    2  A    between atoms: C_6  and  N_7
REMARK    3  A    between atoms: C_8  and  C_10
REMARK    4  A    between atoms: C_10  and  S_11
REMARK    5  A    between atoms: S_11  and  C_14
REMARK    6  A    between atoms: N_16  and  C_17
REMARK                            x       y       z     vdW  Elec       q    Type
REMARK                         _______ _______ _______ _____ _____    ______ ____
ROOT
ATOM      1  S   UNL     1       3.959   2.607  19.399  0.00  0.00    +0.000 S 
ATOM      2  O   UNL     1       5.045   1.911  20.055  0.00  0.00    +0.000 OA
ATOM      3  O   UNL     1       2.929   1.903  18.655  0.00  0.00    +0.000 OA
ENDROOT
BRANCH   1   4
ATOM      4  C   UNL     1       4.742   3.605  18.220  0.00  0.00    +0.000 A 
ATOM      5  C   UNL     1       4.398   3.648  16.883  0.00  0.00    +0.000 A 
ATOM      6  N   UNL     1       5.168   4.599  16.276  0.00  0.00    +0.000 N 
ATOM      7  C   UNL     1       5.048   4.994  14.890  0.00  0.00    +0.000 C 
ATOM      8  C   UNL     1       6.038   5.159  17.190  0.00  0.00    +0.000 A 
ATOM      9  C   UNL     1       7.002   6.168  17.022  0.00  0.00    +0.000 A 
ATOM     10  C   UNL     1       7.736   6.568  18.139  0.00  0.00    +0.000 A 
ATOM     11  C   UNL     1       7.513   5.985  19.382  0.00  0.00    +0.000 A 
ATOM     12  C   UNL     1       6.545   4.985  19.543  0.00  0.00    +0.000 A 
ATOM     13  C   UNL     1       5.789   4.551  18.430  0.00  0.00    +0.000 A 
ENDBRANCH   1   4
BRANCH   1  14
ATOM     14  C   UNL     1       3.168   3.692  20.530  0.00  0.00    +0.000 C 
BRANCH  14  16
ATOM     15  N   UNL     1       2.861   6.077  20.069  0.00  0.00    +0.000 N 
ATOM     16  C   UNL     1       2.474   4.781  19.758  0.00  0.00    +0.000 C 
ATOM     17  O   UNL     1       1.556   4.480  18.995  0.00  0.00    +0.000 OA
ATOM     18  H   UNL     1       3.520   6.216  20.831  0.00  0.00    +0.000 HD
BRANCH  15  24
ATOM     19  C   UNL     1       0.101  10.164  20.338  0.00  0.00    +0.000 C 
ATOM     20  C   UNL     1       1.058   9.295  19.575  0.00  0.00    +0.000 A 
ATOM     21  C   UNL     1       1.443   9.635  18.276  0.00  0.00    +0.000 A 
ATOM     22  C   UNL     1       2.313   8.810  17.567  0.00  0.00    +0.000 A 
ATOM     23  C   UNL     1       2.791   7.629  18.141  0.00  0.00    +0.000 A 
ATOM     24  C   UNL     1       2.412   7.261  19.434  0.00  0.00    +0.000 A 
ATOM     25  C   UNL     1       1.561   8.115  20.153  0.00  0.00    +0.000 A 
ENDBRANCH  15  24
ENDBRANCH  14  16
ENDBRANCH   1  14
TORSDOF 4
ENDMDL
MODEL 4
REMARK VINA RESULT:      -8.0      2.335      7.483
REMARK  Name = 
REMARK  6 active torsions:
REMARK  status: ('A' for Active; 'I' for Inactive)
REMARK    1  A    between atoms: C_1  and  C_2
REMARK    2  A    between atoms: C_6  and  N_7
REMARK    3  A    between atoms: C_8  and  C_10
REMARK    4  A    between atoms: C_10  and  S_11
REMARK    5  A    between atoms: S_11  and  C_14
REMARK    6  A    between atoms: N_16  and  C_17
REMARK                            x       y       z     vdW  Elec       q    Type
REMARK                         _______ _______ _______ _____ _____    ______ ____
ROOT
ATOM      1  S   UNL     1       5.491   4.790  18.235  0.00  0.00    +0.000 S 
ATOM      2  O   UNL     1       5.116   3.835  17.213  0.00  0.00    +0.000 OA
ATOM      3  O   UNL     1       6.459   4.472  19.270  0.00  0.00    +0.000 OA
ENDROOT
BRANCH   1   4
ATOM      4  C   UNL     1       4.019   5.095  19.095  0.00  0.00    +0.000 A 
ATOM      5  C   UNL     1       3.597   6.347  19.498  0.00  0.00    +0.000 A 
ATOM      6  N   UNL     1       2.364   6.215  20.071  0.00  0.00    +0.000 N 
ATOM      7  C   UNL     1       1.557   7.317  20.548  0.00  0.00    +0.000 C 
ATOM      8  C   UNL     1       1.983   4.889  20.081  0.00  0.00    +0.000 A 
ATOM      9  C   UNL     1       0.807   4.287  20.558  0.00  0.00    +0.000 A 
ATOM     10  C   UNL     1       0.670   2.906  20.416  0.00  0.00    +0.000 A 
ATOM     11  C   UNL     1       1.669   2.151  19.812  0.00  0.00    +0.000 A 
ATOM     12  C   UNL     1       2.837   2.760  19.330  0.00  0.00    +0.000 A 
ATOM     13  C   UNL     1       3.011   4.156  19.467  0.00  0.00    +0.000 A 
ENDBRANCH   1   4
BRANCH   1  14
ATOM     14  C   UNL     1       5.964   6.309  17.494  0.00  0.00    +0.000 C 
BRANCH  14  16
ATOM     15  N   UNL     1       6.875   5.304  15.455  0.00  0.00    +0.000 N 
ATOM     16  C   UNL     1       5.923   6.156  15.998  0.00  0.00    +0.000 C 
ATOM     17  O   UNL     1       5.144   6.853  15.347  0.00  0.00    +0.000 OA
ATOM     18  H   UNL     1       7.572   4.900  16.075  0.00  0.00    +0.000 HD
BRANCH  15  24
ATOM     19  C   UNL     1       5.375   2.363  11.782  0.00  0.00    +0.000 C 
ATOM     20  C   UNL     1       6.237   3.492  12.268  0.00  0.00    +0.000 A 
ATOM     21  C   UNL     1       7.144   4.114  11.407  0.00  0.00    +0.000 A 
ATOM     22  C   UNL     1       7.955   5.145  11.872  0.00  0.00    +0.000 A 
ATOM     23  C   UNL     1       7.884   5.551  13.207  0.00  0.00    +0.000 A 
ATOM     24  C   UNL     1       6.993   4.938  14.092  0.00  0.00    +0.000 A 
ATOM     25  C   UNL     1       6.156   3.923  13.605  0.00  0.00    +0.000 A 
ENDBRANCH  15  24
ENDBRANCH  14  16
ENDBRANCH   1  14
TORSDOF 4
ENDMDL
MODEL 5
REMARK VINA RESULT:      -7.6      0.859      2.158
REMARK  Name = 
REMARK  6 active torsions:
REMARK  status: ('A' for Active; 'I' for Inactive)
REMARK    1  A    between atoms: C_1  and  C_2
REMARK    2  A    between atoms: C_6  and  N_7
REMARK    3  A    between atoms: C_8  and  C_10
REMARK    4  A    between atoms: C_10  and  S_11
REMARK    5  A    between atoms: S_11  and  C_14
REMARK    6  A    between atoms: N_16  and  C_17
REMARK                            x       y       z     vdW  Elec       q    Type
REMARK                         _______ _______ _______ _____ _____    ______ ____
ROOT
ATOM      1  S   UNL     1       2.721   3.448  18.248  0.00  0.00    +0.000 S 
ATOM      2  O   UNL     1       2.630   2.006  18.168  0.00  0.00    +0.000 OA
ATOM      3  O   UNL     1       1.752   4.320  17.609  0.00  0.00    +0.000 OA
ENDROOT
BRANCH   1   4
ATOM      4  C   UNL     1       4.223   3.825  17.472  0.00  0.00    +0.000 A 
ATOM      5  C   UNL     1       4.497   3.576  16.142  0.00  0.00    +0.000 A 
ATOM      6  N   UNL     1       5.738   4.075  15.862  0.00  0.00    +0.000 N 
ATOM      7  C   UNL     1       6.348   4.077  14.551  0.00  0.00    +0.000 C 
ATOM      8  C   UNL     1       6.297   4.620  17.000  0.00  0.00    +0.000 A 
ATOM      9  C   UNL     1       7.541   5.245  17.188  0.00  0.00    +0.000 A 
ATOM     10  C   UNL     1       7.847   5.736  18.458  0.00  0.00    +0.000 A 
ATOM     11  C   UNL     1       6.939   5.612  19.504  0.00  0.00    +0.000 A 
ATOM     12  C   UNL     1       5.697   4.993  19.308  0.00  0.00    +0.000 A 
ATOM     13  C   UNL     1       5.360   4.478  18.035  0.00  0.00    +0.000 A 
ENDBRANCH   1   4
BRANCH   1  14
ATOM     14  C   UNL     1       2.882   3.948  19.923  0.00  0.00    +0.000 C 
BRANCH  14  16
ATOM     15  N   UNL     1       2.549   6.374  19.951  0.00  0.00    +0.000 N 
ATOM     16  C   UNL     1       1.979   5.127  20.169  0.00  0.00    +0.000 C 
ATOM     17  O   UNL     1       0.858   4.933  20.637  0.00  0.00    +0.000 OA
ATOM     18  H   UNL     1       3.537   6.421  19.714  0.00  0.00    +0.000 HD
BRANCH  15  24
ATOM     19  C   UNL     1       0.078   9.592  22.767  0.00  0.00    +0.000 C 
ATOM     20  C   UNL     1       0.679   9.226  21.441  0.00  0.00    +0.000 A 
ATOM     21  C   UNL     1       0.543  10.077  20.342  0.00  0.00    +0.000 A 
ATOM     22  C   UNL     1       1.085   9.718  19.110  0.00  0.00    +0.000 A 
ATOM     23  C   UNL     1       1.749   8.498  18.959  0.00  0.00    +0.000 A 
ATOM     24  C   UNL     1       1.888   7.625  20.040  0.00  0.00    +0.000 A 
ATOM     25  C   UNL     1       1.368   8.009  21.286  0.00  0.00    +0.000 A 
ENDBRANCH  15  24
ENDBRANCH  14  16
ENDBRANCH   1  14
TORSDOF 4
ENDMDL
MODEL 6
REMARK VINA RESULT:      -7.6      2.735      7.177
REMARK  Name = 
REMARK  6 active torsions:
REMARK  status: ('A' for Active; 'I' for Inactive)
REMARK    1  A    between atoms: C_1  and  C_2
REMARK    2  A    between atoms: C_6  and  N_7
REMARK    3  A    between atoms: C_8  and  C_10
REMARK    4  A    between atoms: C_10  and  S_11
REMARK    5  A    between atoms: S_11  and  C_14
REMARK    6  A    between atoms: N_16  and  C_17
REMARK                            x       y       z     vdW  Elec       q    Type
REMARK                         _______ _______ _______ _____ _____    ______ ____
ROOT
ATOM      1  S   UNL     1       6.304   5.062  18.620  0.00  0.00    +0.000 S 
ATOM      2  O   UNL     1       6.507   3.930  17.742  0.00  0.00    +0.000 OA
ATOM      3  O   UNL     1       7.010   5.198  19.881  0.00  0.00    +0.000 OA
ENDROOT
BRANCH   1   4
ATOM      4  C   UNL     1       4.633   4.964  19.065  0.00  0.00    +0.000 A 
ATOM      5  C   UNL     1       3.951   5.947  19.753  0.00  0.00    +0.000 A 
ATOM      6  N   UNL     1       2.643   5.565  19.855  0.00  0.00    +0.000 N 
ATOM      7  C   UNL     1       1.594   6.369  20.443  0.00  0.00    +0.000 C 
ATOM      8  C   UNL     1       2.464   4.326  19.273  0.00  0.00    +0.000 A 
ATOM      9  C   UNL     1       1.301   3.549  19.137  0.00  0.00    +0.000 A 
ATOM     10  C   UNL     1       1.400   2.327  18.471  0.00  0.00    +0.000 A 
ATOM     11  C   UNL     1       2.617   1.898  17.953  0.00  0.00    +0.000 A 
ATOM     12  C   UNL     1       3.771   2.682  18.085  0.00  0.00    +0.000 A 
ATOM     13  C   UNL     1       3.706   3.921  18.762  0.00  0.00    +0.000 A 
ENDBRANCH   1   4
BRANCH   1  14
ATOM     14  C   UNL     1       6.497   6.560  17.724  0.00  0.00    +0.000 C 
BRANCH  14  16
ATOM     15  N   UNL     1       7.253   5.594  15.605  0.00  0.00    +0.000 N 
ATOM     16  C   UNL     1       6.250   6.290  16.264  0.00  0.00    +0.000 C 
ATOM     17  O   UNL     1       5.256   6.778  15.727  0.00  0.00    +0.000 OA
ATOM     18  H   UNL     1       8.106   5.375  16.113  0.00  0.00    +0.000 HD
BRANCH  15  24
ATOM     19  C   UNL     1       5.254   2.577  12.243  0.00  0.00    +0.000 C 
ATOM     20  C   UNL     1       6.220   3.673  12.589  0.00  0.00    +0.000 A 
ATOM     21  C   UNL     1       7.077   4.195  11.618  0.00  0.00    +0.000 A 
ATOM     22  C   UNL     1       7.986   5.195  11.953  0.00  0.00    +0.000 A 
ATOM     23  C   UNL     1       8.062   5.669  13.265  0.00  0.00    +0.000 A 
ATOM     24  C   UNL     1       7.223   5.156  14.257  0.00  0.00    +0.000 A 
ATOM     25  C   UNL     1       6.288   4.172  13.903  0.00  0.00    +0.000 A 
ENDBRANCH  15  24
ENDBRANCH  14  16
ENDBRANCH   1  14
TORSDOF 4
ENDMDL
MODEL 7
REMARK VINA RESULT:      -7.4      2.225      7.507
REMARK  Name = 
REMARK  6 active torsions:
REMARK  status: ('A' for Active; 'I' for Inactive)
REMARK    1  A    between atoms: C_1  and  C_2
REMARK    2  A    between atoms: C_6  and  N_7
REMARK    3  A    between atoms: C_8  and  C_10
REMARK    4  A    between atoms: C_10  and  S_11
REMARK    5  A    between atoms: S_11  and  C_14
REMARK    6  A    between atoms: N_16  and  C_17
REMARK                            x       y       z     vdW  Elec       q    Type
REMARK                         _______ _______ _______ _____ _____    ______ ____
ROOT
ATOM      1  S   UNL     1       5.072   4.357  18.086  0.00  0.00    +0.000 S 
ATOM      2  O   UNL     1       4.552   3.567  16.990  0.00  0.00    +0.000 OA
ATOM      3  O   UNL     1       6.185   3.907  18.902  0.00  0.00    +0.000 OA
ENDROOT
BRANCH   1   4
ATOM      4  C   UNL     1       3.744   4.479  19.191  0.00  0.00    +0.000 A 
ATOM      5  C   UNL     1       3.273   3.435  19.963  0.00  0.00    +0.000 A 
ATOM      6  N   UNL     1       2.279   3.916  20.768  0.00  0.00    +0.000 N 
ATOM      7  C   UNL     1       1.590   3.141  21.776  0.00  0.00    +0.000 C 
ATOM      8  C   UNL     1       2.066   5.255  20.511  0.00  0.00    +0.000 A 
ATOM      9  C   UNL     1       1.159   6.156  21.093  0.00  0.00    +0.000 A 
ATOM     10  C   UNL     1       1.175   7.480  20.656  0.00  0.00    +0.000 A 
ATOM     11  C   UNL     1       2.069   7.894  19.675  0.00  0.00    +0.000 A 
ATOM     12  C   UNL     1       2.977   6.991  19.104  0.00  0.00    +0.000 A 
ATOM     13  C   UNL     1       2.981   5.640  19.519  0.00  0.00    +0.000 A 
ENDBRANCH   1   4
BRANCH   1  14
ATOM     14  C   UNL     1       5.422   5.988  17.540  0.00  0.00    +0.000 C 
BRANCH  14  16
ATOM     15  N   UNL     1       6.470   5.011  15.554  0.00  0.00    +0.000 N 
ATOM     16  C   UNL     1       5.600   5.974  16.045  0.00  0.00    +0.000 C 
ATOM     17  O   UNL     1       5.066   6.855  15.372  0.00  0.00    +0.000 OA
ATOM     18  H   UNL     1       6.979   4.434  16.219  0.00  0.00    +0.000 HD
BRANCH  15  24
ATOM     19  C   UNL     1       5.519   2.263  11.562  0.00  0.00    +0.000 C 
ATOM     20  C   UNL     1       6.262   3.396  12.208  0.00  0.00    +0.000 A 
ATOM     21  C   UNL     1       7.214   4.121  11.487  0.00  0.00    +0.000 A 
ATOM     22  C   UNL     1       7.915   5.156  12.101  0.00  0.00    +0.000 A 
ATOM     23  C   UNL     1       7.686   5.464  13.445  0.00  0.00    +0.000 A 
ATOM     24  C   UNL     1       6.747   4.748  14.190  0.00  0.00    +0.000 A 
ATOM     25  C   UNL     1       6.022   3.728  13.553  0.00  0.00    +0.000 A 
ENDBRANCH  15  24
ENDBRANCH  14  16
ENDBRANCH   1  14
TORSDOF 4
ENDMDL
MODEL 8
REMARK VINA RESULT:      -7.3      0.953      2.585
REMARK  Name = 
REMARK  6 active torsions:
REMARK  status: ('A' for Active; 'I' for Inactive)
REMARK    1  A    between atoms: C_1  and  C_2
REMARK    2  A    between atoms: C_6  and  N_7
REMARK    3  A    between atoms: C_8  and  C_10
REMARK    4  A    between atoms: C_10  and  S_11
REMARK    5  A    between atoms: S_11  and  C_14
REMARK    6  A    between atoms: N_16  and  C_17
REMARK                            x       y       z     vdW  Elec       q    Type
REMARK                         _______ _______ _______ _____ _____    ______ ____
ROOT
ATOM      1  S   UNL     1       3.283   2.845  18.628  0.00  0.00    +0.000 S 
ATOM      2  O   UNL     1       3.836   1.510  18.696  0.00  0.00    +0.000 OA
ATOM      3  O   UNL     1       2.007   3.121  17.993  0.00  0.00    +0.000 OA
ENDROOT
BRANCH   1   4
ATOM      4  C   UNL     1       4.435   3.739  17.694  0.00  0.00    +0.000 A 
ATOM      5  C   UNL     1       4.408   3.845  16.317  0.00  0.00    +0.000 A 
ATOM      6  N   UNL     1       5.414   4.687  15.936  0.00  0.00    +0.000 N 
ATOM      7  C   UNL     1       5.661   5.112  14.575  0.00  0.00    +0.000 C 
ATOM      8  C   UNL     1       6.125   5.109  17.042  0.00  0.00    +0.000 A 
ATOM      9  C   UNL     1       7.227   5.975  17.133  0.00  0.00    +0.000 A 
ATOM     10  C   UNL     1       7.740   6.255  18.400  0.00  0.00    +0.000 A 
ATOM     11  C   UNL     1       7.170   5.694  19.538  0.00  0.00    +0.000 A 
ATOM     12  C   UNL     1       6.065   4.837  19.439  0.00  0.00    +0.000 A 
ATOM     13  C   UNL     1       5.526   4.527  18.169  0.00  0.00    +0.000 A 
ENDBRANCH   1   4
BRANCH   1  14
ATOM     14  C   UNL     1       3.263   3.570  20.227  0.00  0.00    +0.000 C 
BRANCH  14  16
ATOM     15  N   UNL     1       2.797   5.974  20.254  0.00  0.00    +0.000 N 
ATOM     16  C   UNL     1       2.261   4.693  20.242  0.00  0.00    +0.000 C 
ATOM     17  O   UNL     1       1.065   4.425  20.345  0.00  0.00    +0.000 OA
ATOM     18  H   UNL     1       3.806   6.076  20.325  0.00  0.00    +0.000 HD
BRANCH  15  24
ATOM     19  C   UNL     1       1.678  10.042  17.688  0.00  0.00    +0.000 C 
ATOM     20  C   UNL     1       1.502   9.195  18.914  0.00  0.00    +0.000 A 
ATOM     21  C   UNL     1       0.683   9.625  19.961  0.00  0.00    +0.000 A 
ATOM     22  C   UNL     1       0.544   8.843  21.106  0.00  0.00    +0.000 A 
ATOM     23  C   UNL     1       1.236   7.635  21.223  0.00  0.00    +0.000 A 
ATOM     24  C   UNL     1       2.068   7.188  20.195  0.00  0.00    +0.000 A 
ATOM     25  C   UNL     1       2.177   7.966  19.032  0.00  0.00    +0.000 A 
ENDBRANCH  15  24
ENDBRANCH  14  16
ENDBRANCH   1  14
TORSDOF 4
ENDMDL
MODEL 9
REMARK VINA RESULT:      -7.2      1.110      1.685
REMARK  Name = 
REMARK  6 active torsions:
REMARK  status: ('A' for Active; 'I' for Inactive)
REMARK    1  A    between atoms: C_1  and  C_2
REMARK    2  A    between atoms: C_6  and  N_7
REMARK    3  A    between atoms: C_8  and  C_10
REMARK    4  A    between atoms: C_10  and  S_11
REMARK    5  A    between atoms: S_11  and  C_14
REMARK    6  A    between atoms: N_16  and  C_17
REMARK                            x       y       z     vdW  Elec       q    Type
REMARK                         _______ _______ _______ _____ _____    ______ ____
ROOT
ATOM      1  S   UNL     1       3.146   4.560  18.160  0.00  0.00    +0.000 S 
ATOM      2  O   UNL     1       3.169   3.162  17.787  0.00  0.00    +0.000 OA
ATOM      3  O   UNL     1       2.130   5.473  17.670  0.00  0.00    +0.000 OA
ENDROOT
BRANCH   1   4
ATOM      4  C   UNL     1       4.635   5.192  17.540  0.00  0.00    +0.000 A 
ATOM      5  C   UNL     1       5.454   6.068  18.225  0.00  0.00    +0.000 A 
ATOM      6  N   UNL     1       6.571   6.285  17.467  0.00  0.00    +0.000 N 
ATOM      7  C   UNL     1       7.702   7.086  17.880  0.00  0.00    +0.000 C 
ATOM      8  C   UNL     1       6.481   5.589  16.279  0.00  0.00    +0.000 A 
ATOM      9  C   UNL     1       7.384   5.508  15.206  0.00  0.00    +0.000 A 
ATOM     10  C   UNL     1       7.047   4.697  14.122  0.00  0.00    +0.000 A 
ATOM     11  C   UNL     1       5.852   3.986  14.110  0.00  0.00    +0.000 A 
ATOM     12  C   UNL     1       4.959   4.067  15.188  0.00  0.00    +0.000 A 
ATOM     13  C   UNL     1       5.266   4.886  16.298  0.00  0.00    +0.000 A 
ENDBRANCH   1   4
BRANCH   1  14
ATOM     14  C   UNL     1       3.223   4.717  19.907  0.00  0.00    +0.000 C 
BRANCH  14  16
ATOM     15  N   UNL     1       2.469   7.027  20.210  0.00  0.00    +0.000 N 
ATOM     16  C   UNL     1       2.159   5.682  20.358  0.00  0.00    +0.000 C 
ATOM     17  O   UNL     1       1.151   5.244  20.912  0.00  0.00    +0.000 OA
ATOM     18  H   UNL     1       3.399   7.277  19.883  0.00  0.00    +0.000 HD
BRANCH  15  24
ATOM     19  C   UNL     1      -0.336  10.683  18.434  0.00  0.00    +0.000 C 
ATOM     20  C   UNL     1       0.208   9.921  19.606  0.00  0.00    +0.000 A 
ATOM     21  C   UNL     1      -0.094  10.316  20.911  0.00  0.00    +0.000 A 
ATOM     22  C   UNL     1       0.434   9.617  21.994  0.00  0.00    +0.000 A 
ATOM     23  C   UNL     1       1.285   8.529  21.783  0.00  0.00    +0.000 A 
ATOM     24  C   UNL     1       1.612   8.120  20.488  0.00  0.00    +0.000 A 
ATOM     25  C   UNL     1       1.048   8.810  19.404  0.00  0.00    +0.000 A 
ENDBRANCH  15  24
ENDBRANCH  14  16
ENDBRANCH   1  14
TORSDOF 4
ENDMDL
