MODEL 1
REMARK VINA RESULT:      -8.2      0.000      0.000
REMARK  Name = 
REMARK  10 active torsions:
REMARK  status: ('A' for Active; 'I' for Inactive)
REMARK    1  A    between atoms: C_1  and  C_2
REMARK    2  A    between atoms: C_4  and  S_5
REMARK    3  A    between atoms: S_5  and  C_6
REMARK    4  A    between atoms: C_11  and  N_12
REMARK    5  A    between atoms: C_15  and  O_16
REMARK    6  A    between atoms: O_16  and  C_17
REMARK    7  A    between atoms: C_21  and  O_23
REMARK    8  A    between atoms: O_23  and  C_24
REMARK    9  A    between atoms: C_24  and  C_25
REMARK   10  A    between atoms: C_24  and  C_26
REMARK                            x       y       z     vdW  Elec       q    Type
REMARK                         _______ _______ _______ _____ _____    ______ ____
ROOT
ATOM      1  N   UNL     1       0.957  10.272  18.093  0.00  0.00    +0.000 N 
ATOM      2  C   UNL     1       1.539   9.096  18.644  0.00  0.00    +0.000 A 
ATOM      3  C   UNL     1       2.327   8.303  17.818  0.00  0.00    +0.000 A 
ATOM      4  C   UNL     1       2.862   7.151  18.363  0.00  0.00    +0.000 A 
ATOM      5  N   UNL     1       2.620   6.763  19.622  0.00  0.00    +0.000 NA
ATOM      6  C   UNL     1       1.821   7.576  20.329  0.00  0.00    +0.000 A 
ATOM      7  N   UNL     1       1.268   8.725  19.903  0.00  0.00    +0.000 NA
ATOM      8  H   UNL     1       0.287   9.963  17.391  0.00  0.00    +0.000 HD
ENDROOT
BRANCH   1  15
ATOM      9  C   UNL     1       2.520  12.892  18.213  0.00  0.00    +0.000 C 
ATOM     10  C   UNL     1       1.179  12.666  18.851  0.00  0.00    +0.000 A 
ATOM     11  N   UNL     1       0.647  13.795  19.406  0.00  0.00    +0.000 NA
ATOM     12  C   UNL     1      -0.634  13.729  19.838  0.00  0.00    +0.000 A 
ATOM     13  C   UNL     1      -1.430  12.604  19.754  0.00  0.00    +0.000 A 
ATOM     14  C   UNL     1      -0.853  11.457  19.202  0.00  0.00    +0.000 A 
ATOM     15  C   UNL     1       0.488  11.443  18.754  0.00  0.00    +0.000 A 
BRANCH  12  16
ATOM     16  S   UNL     1      -1.304  15.255  20.461  0.00  0.00    +0.000 S 
ATOM     17  C   UNL     1      -0.578  15.486  22.063  0.00  0.00    +0.000 C 
ATOM     18  O   UNL     1      -0.815  16.317  19.599  0.00  0.00    +0.000 OA
ATOM     19  O   UNL     1      -2.731  15.053  20.646  0.00  0.00    +0.000 OA
ENDBRANCH  12  16
ENDBRANCH   1  15
BRANCH   4  20
ATOM     20  O   UNL     1       3.657   6.370  17.529  0.00  0.00    +0.000 OA
BRANCH  20  21
ATOM     21  C   UNL     1       4.659   5.566  18.182  0.00  0.00    +0.000 C 
ATOM     22  C   UNL     1       6.060   6.109  17.913  0.00  0.00    +0.000 C 
ATOM     23  C   UNL     1       6.427   6.030  16.436  0.00  0.00    +0.000 C 
ATOM     24  N   UNL     1       6.203   4.728  15.811  0.00  0.00    +0.000 N 
ATOM     25  C   UNL     1       6.780   4.575  14.546  0.00  0.00    +0.000 C 
ATOM     26  O   UNL     1       7.631   5.343  14.110  0.00  0.00    +0.000 OA
ATOM     27  C   UNL     1       5.003   3.988  16.181  0.00  0.00    +0.000 C 
ATOM     28  C   UNL     1       4.609   4.122  17.655  0.00  0.00    +0.000 C 
BRANCH  25  29
ATOM     29  O   UNL     1       6.316   3.499  13.838  0.00  0.00    +0.000 OA
BRANCH  29  30
ATOM     30  C   UNL     1       6.206   3.714  12.411  0.00  0.00    +0.000 C 
ATOM     31  C   UNL     1       7.151   2.770  11.672  0.00  0.00    +0.000 C 
ATOM     32  C   UNL     1       4.766   3.459  11.971  0.00  0.00    +0.000 C 
ENDBRANCH  29  30
ENDBRANCH  25  29
ENDBRANCH  20  21
ENDBRANCH   4  20
TORSDOF 6
ENDMDL
MODEL 2
REMARK VINA RESULT:      -8.1      0.973      1.549
REMARK  Name = 
REMARK  10 active torsions:
REMARK  status: ('A' for Active; 'I' for Inactive)
REMARK    1  A    between atoms: C_1  and  C_2
REMARK    2  A    between atoms: C_4  and  S_5
REMARK    3  A    between atoms: S_5  and  C_6
REMARK    4  A    between atoms: C_11  and  N_12
REMARK    5  A    between atoms: C_15  and  O_16
REMARK    6  A    between atoms: O_16  and  C_17
REMARK    7  A    between atoms: C_21  and  O_23
REMARK    8  A    between atoms: O_23  and  C_24
REMARK    9  A    between atoms: C_24  and  C_25
REMARK   10  A    between atoms: C_24  and  C_26
REMARK                            x       y       z     vdW  Elec       q    Type
REMARK                         _______ _______ _______ _____ _____    ______ ____
ROOT
ATOM      1  N   UNL     1       1.193  10.313  18.161  0.00  0.00    +0.000 N 
ATOM      2  C   UNL     1       1.682   9.082  18.681  0.00  0.00    +0.000 A 
ATOM      3  C   UNL     1       2.446   8.274  17.847  0.00  0.00    +0.000 A 
ATOM      4  C   UNL     1       2.890   7.070  18.361  0.00  0.00    +0.000 A 
ATOM      5  N   UNL     1       2.584   6.649  19.595  0.00  0.00    +0.000 NA
ATOM      6  C   UNL     1       1.814   7.483  20.310  0.00  0.00    +0.000 A 
ATOM      7  N   UNL     1       1.348   8.680  19.916  0.00  0.00    +0.000 NA
ATOM      8  H   UNL     1       0.528  10.074  17.427  0.00  0.00    +0.000 HD
ENDROOT
BRANCH   1  15
ATOM      9  C   UNL     1      -1.725  10.983  18.753  0.00  0.00    +0.000 C 
ATOM     10  C   UNL     1      -0.556  11.846  19.134  0.00  0.00    +0.000 A 
ATOM     11  N   UNL     1      -0.906  12.926  19.892  0.00  0.00    +0.000 NA
ATOM     12  C   UNL     1       0.098  13.654  20.435  0.00  0.00    +0.000 A 
ATOM     13  C   UNL     1       1.441  13.375  20.274  0.00  0.00    +0.000 A 
ATOM     14  C   UNL     1       1.771  12.276  19.476  0.00  0.00    +0.000 A 
ATOM     15  C   UNL     1       0.776  11.485  18.854  0.00  0.00    +0.000 A 
BRANCH  12  16
ATOM     16  S   UNL     1      -0.417  14.990  21.490  0.00  0.00    +0.000 S 
ATOM     17  C   UNL     1      -0.156  16.475  20.557  0.00  0.00    +0.000 C 
ATOM     18  O   UNL     1      -1.849  14.843  21.692  0.00  0.00    +0.000 OA
ATOM     19  O   UNL     1       0.489  15.014  22.626  0.00  0.00    +0.000 OA
ENDBRANCH  12  16
ENDBRANCH   1  15
BRANCH   4  20
ATOM     20  O   UNL     1       3.661   6.272  17.520  0.00  0.00    +0.000 OA
BRANCH  20  21
ATOM     21  C   UNL     1       4.690   5.490  18.158  0.00  0.00    +0.000 C 
ATOM     22  C   UNL     1       6.075   6.065  17.870  0.00  0.00    +0.000 C 
ATOM     23  C   UNL     1       6.423   5.996  16.388  0.00  0.00    +0.000 C 
ATOM     24  N   UNL     1       6.220   4.689  15.765  0.00  0.00    +0.000 N 
ATOM     25  C   UNL     1       6.782   4.550  14.492  0.00  0.00    +0.000 C 
ATOM     26  O   UNL     1       7.610   5.338  14.044  0.00  0.00    +0.000 OA
ATOM     27  C   UNL     1       5.042   3.922  16.151  0.00  0.00    +0.000 C 
ATOM     28  C   UNL     1       4.666   4.046  17.630  0.00  0.00    +0.000 C 
BRANCH  25  29
ATOM     29  O   UNL     1       6.332   3.464  13.789  0.00  0.00    +0.000 OA
BRANCH  29  30
ATOM     30  C   UNL     1       6.209   3.674  12.363  0.00  0.00    +0.000 C 
ATOM     31  C   UNL     1       7.068   2.658  11.614  0.00  0.00    +0.000 C 
ATOM     32  C   UNL     1       4.746   3.520  11.955  0.00  0.00    +0.000 C 
ENDBRANCH  29  30
ENDBRANCH  25  29
ENDBRANCH  20  21
ENDBRANCH   4  20
TORSDOF 6
ENDMDL
MODEL 3
REMARK VINA RESULT:      -7.8      1.049      1.136
REMARK  Name = 
REMARK  10 active torsions:
REMARK  status: ('A' for Active; 'I' for Inactive)
REMARK    1  A    between atoms: C_1  and  C_2
REMARK    2  A    between atoms: C_4  and  S_5
REMARK    3  A    between atoms: S_5  and  C_6
REMARK    4  A    between atoms: C_11  and  N_12
REMARK    5  A    between atoms: C_15  and  O_16
REMARK    6  A    between atoms: O_16  and  C_17
REMARK    7  A    between atoms: C_21  and  O_23
REMARK    8  A    between atoms: O_23  and  C_24
REMARK    9  A    between atoms: C_24  and  C_25
REMARK   10  A    between atoms: C_24  and  C_26
REMARK                            x       y       z     vdW  Elec       q    Type
REMARK                         _______ _______ _______ _____ _____    ______ ____
ROOT
ATOM      1  N   UNL     1       1.246   9.943  18.675  0.00  0.00    +0.000 N 
ATOM      2  C   UNL     1       1.764   8.678  19.069  0.00  0.00    +0.000 A 
ATOM      3  C   UNL     1       2.521   7.963  18.148  0.00  0.00    +0.000 A 
ATOM      4  C   UNL     1       2.994   6.723  18.538  0.00  0.00    +0.000 A 
ATOM      5  N   UNL     1       2.721   6.185  19.733  0.00  0.00    +0.000 NA
ATOM      6  C   UNL     1       1.954   6.936  20.538  0.00  0.00    +0.000 A 
ATOM      7  N   UNL     1       1.463   8.157  20.267  0.00  0.00    +0.000 NA
ATOM      8  H   UNL     1       0.569   9.763  17.936  0.00  0.00    +0.000 HD
ENDROOT
BRANCH   1  15
ATOM      9  C   UNL     1       2.447  12.744  18.487  0.00  0.00    +0.000 C 
ATOM     10  C   UNL     1       1.362  12.341  19.446  0.00  0.00    +0.000 A 
ATOM     11  N   UNL     1       0.861  13.387  20.166  0.00  0.00    +0.000 NA
ATOM     12  C   UNL     1      -0.240  13.152  20.917  0.00  0.00    +0.000 A 
ATOM     13  C   UNL     1      -0.884  11.933  20.999  0.00  0.00    +0.000 A 
ATOM     14  C   UNL     1      -0.337  10.875  20.269  0.00  0.00    +0.000 A 
ATOM     15  C   UNL     1       0.827  11.039  19.484  0.00  0.00    +0.000 A 
BRANCH  12  16
ATOM     16  S   UNL     1      -0.905  14.573  21.755  0.00  0.00    +0.000 S 
ATOM     17  C   UNL     1      -2.642  14.263  21.935  0.00  0.00    +0.000 C 
ATOM     18  O   UNL     1      -0.321  14.594  23.085  0.00  0.00    +0.000 OA
ATOM     19  O   UNL     1      -0.748  15.710  20.863  0.00  0.00    +0.000 OA
ENDBRANCH  12  16
ENDBRANCH   1  15
BRANCH   4  20
ATOM     20  O   UNL     1       3.758   6.021  17.611  0.00  0.00    +0.000 OA
BRANCH  20  21
ATOM     21  C   UNL     1       4.876   5.283  18.143  0.00  0.00    +0.000 C 
ATOM     22  C   UNL     1       6.201   5.918  17.728  0.00  0.00    +0.000 C 
ATOM     23  C   UNL     1       6.409   5.868  16.219  0.00  0.00    +0.000 C 
ATOM     24  N   UNL     1       6.203   4.555  15.610  0.00  0.00    +0.000 N 
ATOM     25  C   UNL     1       6.647   4.444  14.288  0.00  0.00    +0.000 C 
ATOM     26  O   UNL     1       7.394   5.268  13.769  0.00  0.00    +0.000 OA
ATOM     27  C   UNL     1       5.102   3.736  16.101  0.00  0.00    +0.000 C 
ATOM     28  C   UNL     1       4.864   3.840  17.610  0.00  0.00    +0.000 C 
BRANCH  25  29
ATOM     29  O   UNL     1       6.179   3.341  13.624  0.00  0.00    +0.000 OA
BRANCH  29  30
ATOM     30  C   UNL     1       6.079   3.496  12.189  0.00  0.00    +0.000 C 
ATOM     31  C   UNL     1       6.935   2.440  11.494  0.00  0.00    +0.000 C 
ATOM     32  C   UNL     1       4.620   3.344  11.765  0.00  0.00    +0.000 C 
ENDBRANCH  29  30
ENDBRANCH  25  29
ENDBRANCH  20  21
ENDBRANCH   4  20
TORSDOF 6
ENDMDL
MODEL 4
REMARK VINA RESULT:      -7.6      1.150      1.336
REMARK  Name = 
REMARK  10 active torsions:
REMARK  status: ('A' for Active; 'I' for Inactive)
REMARK    1  A    between atoms: C_1  and  C_2
REMARK    2  A    between atoms: C_4  and  S_5
REMARK    3  A    between atoms: S_5  and  C_6
REMARK    4  A    between atoms: C_11  and  N_12
REMARK    5  A    between atoms: C_15  and  O_16
REMARK    6  A    between atoms: O_16  and  C_17
REMARK    7  A    between atoms: C_21  and  O_23
REMARK    8  A    between atoms: O_23  and  C_24
REMARK    9  A    between atoms: C_24  and  C_25
REMARK   10  A    between atoms: C_24  and  C_26
REMARK                            x       y       z     vdW  Elec       q    Type
REMARK                         _______ _______ _______ _____ _____    ______ ____
ROOT
ATOM      1  N   UNL     1       0.970  10.821  18.137  0.00  0.00    +0.000 N 
ATOM      2  C   UNL     1       1.364   9.640  18.824  0.00  0.00    +0.000 A 
ATOM      3  C   UNL     1       2.108   8.693  18.130  0.00  0.00    +0.000 A 
ATOM      4  C   UNL     1       2.460   7.539  18.806  0.00  0.00    +0.000 A 
ATOM      5  N   UNL     1       2.083   7.292  20.067  0.00  0.00    +0.000 NA
ATOM      6  C   UNL     1       1.339   8.250  20.640  0.00  0.00    +0.000 A 
ATOM      7  N   UNL     1       0.961   9.413  20.083  0.00  0.00    +0.000 NA
ATOM      8  H   UNL     1       0.320  10.530  17.409  0.00  0.00    +0.000 HD
ENDROOT
BRANCH   1  15
ATOM      9  C   UNL     1       2.850  13.224  18.246  0.00  0.00    +0.000 C 
ATOM     10  C   UNL     1       1.435  13.222  18.752  0.00  0.00    +0.000 A 
ATOM     11  N   UNL     1       1.007  14.450  19.168  0.00  0.00    +0.000 NA
ATOM     12  C   UNL     1      -0.307  14.581  19.465  0.00  0.00    +0.000 A 
ATOM     13  C   UNL     1      -1.234  13.562  19.372  0.00  0.00    +0.000 A 
ATOM     14  C   UNL     1      -0.765  12.310  18.964  0.00  0.00    +0.000 A 
ATOM     15  C   UNL     1       0.599  12.092  18.663  0.00  0.00    +0.000 A 
BRANCH  12  16
ATOM     16  S   UNL     1      -0.825  16.224  19.908  0.00  0.00    +0.000 S 
ATOM     17  C   UNL     1       0.586  16.990  20.664  0.00  0.00    +0.000 C 
ATOM     18  O   UNL     1      -1.099  16.932  18.670  0.00  0.00    +0.000 OA
ATOM     19  O   UNL     1      -1.854  16.090  20.926  0.00  0.00    +0.000 OA
ENDBRANCH  12  16
ENDBRANCH   1  15
BRANCH   4  20
ATOM     20  O   UNL     1       3.212   6.602  18.103  0.00  0.00    +0.000 OA
BRANCH  20  21
ATOM     21  C   UNL     1       3.486   5.366  18.792  0.00  0.00    +0.000 C 
ATOM     22  C   UNL     1       4.934   5.315  19.274  0.00  0.00    +0.000 C 
ATOM     23  C   UNL     1       5.921   5.317  18.112  0.00  0.00    +0.000 C 
ATOM     24  N   UNL     1       5.645   4.337  17.064  0.00  0.00    +0.000 N 
ATOM     25  C   UNL     1       6.681   4.153  16.142  0.00  0.00    +0.000 C 
ATOM     26  O   UNL     1       7.823   4.557  16.340  0.00  0.00    +0.000 OA
ATOM     27  C   UNL     1       4.256   4.112  16.683  0.00  0.00    +0.000 C 
ATOM     28  C   UNL     1       3.265   4.171  17.850  0.00  0.00    +0.000 C 
BRANCH  25  29
ATOM     29  O   UNL     1       6.314   3.487  15.003  0.00  0.00    +0.000 OA
BRANCH  29  30
ATOM     30  C   UNL     1       6.191   4.321  13.827  0.00  0.00    +0.000 C 
ATOM     31  C   UNL     1       7.512   5.040  13.563  0.00  0.00    +0.000 C 
ATOM     32  C   UNL     1       5.824   3.451  12.627  0.00  0.00    +0.000 C 
ENDBRANCH  29  30
ENDBRANCH  25  29
ENDBRANCH  20  21
ENDBRANCH   4  20
TORSDOF 6
ENDMDL
MODEL 5
REMARK VINA RESULT:      -7.6      1.233      1.874
REMARK  Name = 
REMARK  10 active torsions:
REMARK  status: ('A' for Active; 'I' for Inactive)
REMARK    1  A    between atoms: C_1  and  C_2
REMARK    2  A    between atoms: C_4  and  S_5
REMARK    3  A    between atoms: S_5  and  C_6
REMARK    4  A    between atoms: C_11  and  N_12
REMARK    5  A    between atoms: C_15  and  O_16
REMARK    6  A    between atoms: O_16  and  C_17
REMARK    7  A    between atoms: C_21  and  O_23
REMARK    8  A    between atoms: O_23  and  C_24
REMARK    9  A    between atoms: C_24  and  C_25
REMARK   10  A    between atoms: C_24  and  C_26
REMARK                            x       y       z     vdW  Elec       q    Type
REMARK                         _______ _______ _______ _____ _____    ______ ____
ROOT
ATOM      1  N   UNL     1       0.901  10.759  18.143  0.00  0.00    +0.000 N 
ATOM      2  C   UNL     1       1.298   9.576  18.826  0.00  0.00    +0.000 A 
ATOM      3  C   UNL     1       1.940   8.581  18.098  0.00  0.00    +0.000 A 
ATOM      4  C   UNL     1       2.296   7.428  18.773  0.00  0.00    +0.000 A 
ATOM      5  N   UNL     1       2.013   7.226  20.066  0.00  0.00    +0.000 NA
ATOM      6  C   UNL     1       1.362   8.229  20.673  0.00  0.00    +0.000 A 
ATOM      7  N   UNL     1       0.990   9.396  20.119  0.00  0.00    +0.000 NA
ATOM      8  H   UNL     1       0.181  10.482  17.478  0.00  0.00    +0.000 HD
ENDROOT
BRANCH   1  15
ATOM      9  C   UNL     1      -1.865  11.676  19.051  0.00  0.00    +0.000 C 
ATOM     10  C   UNL     1      -0.630  12.530  19.079  0.00  0.00    +0.000 A 
ATOM     11  N   UNL     1      -0.826  13.745  19.670  0.00  0.00    +0.000 NA
ATOM     12  C   UNL     1       0.270  14.504  19.905  0.00  0.00    +0.000 A 
ATOM     13  C   UNL     1       1.562  14.131  19.590  0.00  0.00    +0.000 A 
ATOM     14  C   UNL     1       1.731  12.891  18.967  0.00  0.00    +0.000 A 
ATOM     15  C   UNL     1       0.630  12.056  18.665  0.00  0.00    +0.000 A 
BRANCH  12  16
ATOM     16  S   UNL     1      -0.035  16.032  20.764  0.00  0.00    +0.000 S 
ATOM     17  C   UNL     1      -0.896  15.590  22.251  0.00  0.00    +0.000 C 
ATOM     18  O   UNL     1       1.259  16.570  21.148  0.00  0.00    +0.000 OA
ATOM     19  O   UNL     1      -0.943  16.813  19.941  0.00  0.00    +0.000 OA
ENDBRANCH  12  16
ENDBRANCH   1  15
BRANCH   4  20
ATOM     20  O   UNL     1       2.946   6.442  18.035  0.00  0.00    +0.000 OA
BRANCH  20  21
ATOM     21  C   UNL     1       3.301   5.245  18.755  0.00  0.00    +0.000 C 
ATOM     22  C   UNL     1       4.714   5.344  19.324  0.00  0.00    +0.000 C 
ATOM     23  C   UNL     1       5.765   5.440  18.225  0.00  0.00    +0.000 C 
ATOM     24  N   UNL     1       5.655   4.430  17.174  0.00  0.00    +0.000 N 
ATOM     25  C   UNL     1       6.759   4.346  16.320  0.00  0.00    +0.000 C 
ATOM     26  O   UNL     1       7.840   4.866  16.582  0.00  0.00    +0.000 OA
ATOM     27  C   UNL     1       4.322   4.063  16.712  0.00  0.00    +0.000 C 
ATOM     28  C   UNL     1       3.260   4.028  17.816  0.00  0.00    +0.000 C 
BRANCH  25  29
ATOM     29  O   UNL     1       6.533   3.640  15.168  0.00  0.00    +0.000 OA
BRANCH  29  30
ATOM     30  C   UNL     1       6.239   4.452  14.007  0.00  0.00    +0.000 C 
ATOM     31  C   UNL     1       7.537   4.985  13.407  0.00  0.00    +0.000 C 
ATOM     32  C   UNL     1       5.497   3.606  12.975  0.00  0.00    +0.000 C 
ENDBRANCH  29  30
ENDBRANCH  25  29
ENDBRANCH  20  21
ENDBRANCH   4  20
TORSDOF 6
ENDMDL
MODEL 6
REMARK VINA RESULT:      -7.5      1.396      1.780
REMARK  Name = 
REMARK  10 active torsions:
REMARK  status: ('A' for Active; 'I' for Inactive)
REMARK    1  A    between atoms: C_1  and  C_2
REMARK    2  A    between atoms: C_4  and  S_5
REMARK    3  A    between atoms: S_5  and  C_6
REMARK    4  A    between atoms: C_11  and  N_12
REMARK    5  A    between atoms: C_15  and  O_16
REMARK    6  A    between atoms: O_16  and  C_17
REMARK    7  A    between atoms: C_21  and  O_23
REMARK    8  A    between atoms: O_23  and  C_24
REMARK    9  A    between atoms: C_24  and  C_25
REMARK   10  A    between atoms: C_24  and  C_26
REMARK                            x       y       z     vdW  Elec       q    Type
REMARK                         _______ _______ _______ _____ _____    ______ ____
ROOT
ATOM      1  N   UNL     1       0.791  10.850  18.267  0.00  0.00    +0.000 N 
ATOM      2  C   UNL     1       1.208   9.690  18.977  0.00  0.00    +0.000 A 
ATOM      3  C   UNL     1       1.891   8.701  18.278  0.00  0.00    +0.000 A 
ATOM      4  C   UNL     1       2.266   7.570  18.978  0.00  0.00    +0.000 A 
ATOM      5  N   UNL     1       1.967   7.382  20.270  0.00  0.00    +0.000 NA
ATOM      6  C   UNL     1       1.277   8.377  20.848  0.00  0.00    +0.000 A 
ATOM      7  N   UNL     1       0.883   9.523  20.267  0.00  0.00    +0.000 NA
ATOM      8  H   UNL     1       0.090  10.541  17.594  0.00  0.00    +0.000 HD
ENDROOT
BRANCH   1  15
ATOM      9  C   UNL     1       2.730  13.206  18.201  0.00  0.00    +0.000 C 
ATOM     10  C   UNL     1       1.340  13.258  18.770  0.00  0.00    +0.000 A 
ATOM     11  N   UNL     1       0.962  14.511  19.159  0.00  0.00    +0.000 NA
ATOM     12  C   UNL     1      -0.334  14.686  19.510  0.00  0.00    +0.000 A 
ATOM     13  C   UNL     1      -1.288  13.689  19.498  0.00  0.00    +0.000 A 
ATOM     14  C   UNL     1      -0.868  12.412  19.116  0.00  0.00    +0.000 A 
ATOM     15  C   UNL     1       0.475  12.147  18.762  0.00  0.00    +0.000 A 
BRANCH  12  16
ATOM     16  S   UNL     1      -0.791  16.357  19.915  0.00  0.00    +0.000 S 
ATOM     17  C   UNL     1      -0.816  17.240  18.377  0.00  0.00    +0.000 C 
ATOM     18  O   UNL     1      -2.152  16.315  20.421  0.00  0.00    +0.000 OA
ATOM     19  O   UNL     1       0.281  16.911  20.726  0.00  0.00    +0.000 OA
ENDBRANCH  12  16
ENDBRANCH   1  15
BRANCH   4  20
ATOM     20  O   UNL     1       2.956   6.591  18.269  0.00  0.00    +0.000 OA
BRANCH  20  21
ATOM     21  C   UNL     1       3.172   5.344  18.959  0.00  0.00    +0.000 C 
ATOM     22  C   UNL     1       4.579   5.278  19.548  0.00  0.00    +0.000 C 
ATOM     23  C   UNL     1       5.651   5.290  18.464  0.00  0.00    +0.000 C 
ATOM     24  N   UNL     1       5.450   4.325  17.385  0.00  0.00    +0.000 N 
ATOM     25  C   UNL     1       6.551   4.148  16.542  0.00  0.00    +0.000 C 
ATOM     26  O   UNL     1       7.677   4.542  16.831  0.00  0.00    +0.000 OA
ATOM     27  C   UNL     1       4.092   4.114  16.897  0.00  0.00    +0.000 C 
ATOM     28  C   UNL     1       3.017   4.163  17.987  0.00  0.00    +0.000 C 
BRANCH  25  29
ATOM     29  O   UNL     1       6.269   3.500  15.368  0.00  0.00    +0.000 OA
BRANCH  29  30
ATOM     30  C   UNL     1       6.514   4.277  14.173  0.00  0.00    +0.000 C 
ATOM     31  C   UNL     1       6.089   3.479  12.942  0.00  0.00    +0.000 C 
ATOM     32  C   UNL     1       5.722   5.580  14.247  0.00  0.00    +0.000 C 
ENDBRANCH  29  30
ENDBRANCH  25  29
ENDBRANCH  20  21
ENDBRANCH   4  20
TORSDOF 6
ENDMDL
MODEL 7
REMARK VINA RESULT:      -7.5      1.609      1.821
REMARK  Name = 
REMARK  10 active torsions:
REMARK  status: ('A' for Active; 'I' for Inactive)
REMARK    1  A    between atoms: C_1  and  C_2
REMARK    2  A    between atoms: C_4  and  S_5
REMARK    3  A    between atoms: S_5  and  C_6
REMARK    4  A    between atoms: C_11  and  N_12
REMARK    5  A    between atoms: C_15  and  O_16
REMARK    6  A    between atoms: O_16  and  C_17
REMARK    7  A    between atoms: C_21  and  O_23
REMARK    8  A    between atoms: O_23  and  C_24
REMARK    9  A    between atoms: C_24  and  C_25
REMARK   10  A    between atoms: C_24  and  C_26
REMARK                            x       y       z     vdW  Elec       q    Type
REMARK                         _______ _______ _______ _____ _____    ______ ____
ROOT
ATOM      1  N   UNL     1       0.867   9.809  19.077  0.00  0.00    +0.000 N 
ATOM      2  C   UNL     1       1.497   8.567  19.368  0.00  0.00    +0.000 A 
ATOM      3  C   UNL     1       2.380   8.043  18.430  0.00  0.00    +0.000 A 
ATOM      4  C   UNL     1       2.963   6.823  18.717  0.00  0.00    +0.000 A 
ATOM      5  N   UNL     1       2.683   6.127  19.827  0.00  0.00    +0.000 NA
ATOM      6  C   UNL     1       1.795   6.699  20.653  0.00  0.00    +0.000 A 
ATOM      7  N   UNL     1       1.188   7.886  20.480  0.00  0.00    +0.000 NA
ATOM      8  H   UNL     1       0.257   9.645  18.279  0.00  0.00    +0.000 HD
ENDROOT
BRANCH   1  15
ATOM      9  C   UNL     1      -0.645  12.294  18.153  0.00  0.00    +0.000 C 
ATOM     10  C   UNL     1      -0.404  11.925  19.589  0.00  0.00    +0.000 A 
ATOM     11  N   UNL     1      -1.035  12.752  20.473  0.00  0.00    +0.000 NA
ATOM     12  C   UNL     1      -1.027  12.389  21.777  0.00  0.00    +0.000 A 
ATOM     13  C   UNL     1      -0.427  11.245  22.265  0.00  0.00    +0.000 A 
ATOM     14  C   UNL     1       0.230  10.428  21.341  0.00  0.00    +0.000 A 
ATOM     15  C   UNL     1       0.285  10.757  19.967  0.00  0.00    +0.000 A 
BRANCH  12  16
ATOM     16  S   UNL     1      -1.946  13.452  22.867  0.00  0.00    +0.000 S 
ATOM     17  C   UNL     1      -3.122  12.407  23.688  0.00  0.00    +0.000 C 
ATOM     18  O   UNL     1      -1.015  13.940  23.870  0.00  0.00    +0.000 OA
ATOM     19  O   UNL     1      -2.687  14.384  22.034  0.00  0.00    +0.000 OA
ENDBRANCH  12  16
ENDBRANCH   1  15
BRANCH   4  20
ATOM     20  O   UNL     1       3.851   6.312  17.775  0.00  0.00    +0.000 OA
BRANCH  20  21
ATOM     21  C   UNL     1       4.909   5.480  18.289  0.00  0.00    +0.000 C 
ATOM     22  C   UNL     1       6.279   6.013  17.874  0.00  0.00    +0.000 C 
ATOM     23  C   UNL     1       6.472   5.966  16.363  0.00  0.00    +0.000 C 
ATOM     24  N   UNL     1       6.159   4.682  15.739  0.00  0.00    +0.000 N 
ATOM     25  C   UNL     1       6.585   4.553  14.412  0.00  0.00    +0.000 C 
ATOM     26  O   UNL     1       7.391   5.321  13.898  0.00  0.00    +0.000 OA
ATOM     27  C   UNL     1       4.998   3.947  16.227  0.00  0.00    +0.000 C 
ATOM     28  C   UNL     1       4.778   4.050  17.739  0.00  0.00    +0.000 C 
BRANCH  25  29
ATOM     29  O   UNL     1       6.026   3.500  13.738  0.00  0.00    +0.000 OA
BRANCH  29  30
ATOM     30  C   UNL     1       6.014   3.641  12.297  0.00  0.00    +0.000 C 
ATOM     31  C   UNL     1       7.000   2.655  11.674  0.00  0.00    +0.000 C 
ATOM     32  C   UNL     1       4.606   3.369  11.775  0.00  0.00    +0.000 C 
ENDBRANCH  29  30
ENDBRANCH  25  29
ENDBRANCH  20  21
ENDBRANCH   4  20
TORSDOF 6
ENDMDL
MODEL 8
REMARK VINA RESULT:      -7.3      1.393      1.615
REMARK  Name = 
REMARK  10 active torsions:
REMARK  status: ('A' for Active; 'I' for Inactive)
REMARK    1  A    between atoms: C_1  and  C_2
REMARK    2  A    between atoms: C_4  and  S_5
REMARK    3  A    between atoms: S_5  and  C_6
REMARK    4  A    between atoms: C_11  and  N_12
REMARK    5  A    between atoms: C_15  and  O_16
REMARK    6  A    between atoms: O_16  and  C_17
REMARK    7  A    between atoms: C_21  and  O_23
REMARK    8  A    between atoms: O_23  and  C_24
REMARK    9  A    between atoms: C_24  and  C_25
REMARK   10  A    between atoms: C_24  and  C_26
REMARK                            x       y       z     vdW  Elec       q    Type
REMARK                         _______ _______ _______ _____ _____    ______ ____
ROOT
ATOM      1  N   UNL     1       1.773   9.489  17.864  0.00  0.00    +0.000 N 
ATOM      2  C   UNL     1       2.443   8.323  18.329  0.00  0.00    +0.000 A 
ATOM      3  C   UNL     1       3.568   7.891  17.635  0.00  0.00    +0.000 A 
ATOM      4  C   UNL     1       4.191   6.741  18.085  0.00  0.00    +0.000 A 
ATOM      5  N   UNL     1       3.734   6.025  19.121  0.00  0.00    +0.000 NA
ATOM      6  C   UNL     1       2.624   6.504  19.703  0.00  0.00    +0.000 A 
ATOM      7  N   UNL     1       1.956   7.618  19.360  0.00  0.00    +0.000 NA
ATOM      8  H   UNL     1       1.385   9.256  16.952  0.00  0.00    +0.000 HD
ENDROOT
BRANCH   1  15
ATOM      9  C   UNL     1       2.412  12.429  18.382  0.00  0.00    +0.000 C 
ATOM     10  C   UNL     1       1.165  11.730  18.846  0.00  0.00    +0.000 A 
ATOM     11  N   UNL     1       0.262  12.568  19.434  0.00  0.00    +0.000 NA
ATOM     12  C   UNL     1      -0.962  12.062  19.715  0.00  0.00    +0.000 A 
ATOM     13  C   UNL     1      -1.351  10.765  19.446  0.00  0.00    +0.000 A 
ATOM     14  C   UNL     1      -0.400   9.923  18.865  0.00  0.00    +0.000 A 
ATOM     15  C   UNL     1       0.907  10.374  18.568  0.00  0.00    +0.000 A 
BRANCH  12  16
ATOM     16  S   UNL     1      -2.127  13.225  20.389  0.00  0.00    +0.000 S 
ATOM     17  C   UNL     1      -2.079  12.998  22.147  0.00  0.00    +0.000 C 
ATOM     18  O   UNL     1      -1.614  14.555  20.103  0.00  0.00    +0.000 OA
ATOM     19  O   UNL     1      -3.446  12.829  19.926  0.00  0.00    +0.000 OA
ENDBRANCH  12  16
ENDBRANCH   1  15
BRANCH   4  20
ATOM     20  O   UNL     1       5.320   6.324  17.388  0.00  0.00    +0.000 OA
BRANCH  20  21
ATOM     21  C   UNL     1       5.747   4.968  17.630  0.00  0.00    +0.000 C 
ATOM     22  C   UNL     1       7.101   4.693  16.978  0.00  0.00    +0.000 C 
ATOM     23  C   UNL     1       7.031   4.793  15.459  0.00  0.00    +0.000 C 
ATOM     24  N   UNL     1       5.947   4.035  14.838  0.00  0.00    +0.000 N 
ATOM     25  C   UNL     1       6.039   3.907  13.448  0.00  0.00    +0.000 C 
ATOM     26  O   UNL     1       7.067   4.157  12.827  0.00  0.00    +0.000 OA
ATOM     27  C   UNL     1       4.652   4.016  15.507  0.00  0.00    +0.000 C 
ATOM     28  C   UNL     1       4.734   3.976  17.036  0.00  0.00    +0.000 C 
BRANCH  25  29
ATOM     29  O   UNL     1       4.887   3.482  12.841  0.00  0.00    +0.000 OA
BRANCH  29  30
ATOM     30  C   UNL     1       5.032   3.134  11.443  0.00  0.00    +0.000 C 
ATOM     31  C   UNL     1       5.598   1.721  11.318  0.00  0.00    +0.000 C 
ATOM     32  C   UNL     1       3.669   3.211  10.760  0.00  0.00    +0.000 C 
ENDBRANCH  29  30
ENDBRANCH  25  29
ENDBRANCH  20  21
ENDBRANCH   4  20
TORSDOF 6
ENDMDL
MODEL 9
REMARK VINA RESULT:      -7.1      2.018      2.695
REMARK  Name = 
REMARK  10 active torsions:
REMARK  status: ('A' for Active; 'I' for Inactive)
REMARK    1  A    between atoms: C_1  and  C_2
REMARK    2  A    between atoms: C_4  and  S_5
REMARK    3  A    between atoms: S_5  and  C_6
REMARK    4  A    between atoms: C_11  and  N_12
REMARK    5  A    between atoms: C_15  and  O_16
REMARK    6  A    between atoms: O_16  and  C_17
REMARK    7  A    between atoms: C_21  and  O_23
REMARK    8  A    between atoms: O_23  and  C_24
REMARK    9  A    between atoms: C_24  and  C_25
REMARK   10  A    between atoms: C_24  and  C_26
REMARK                            x       y       z     vdW  Elec       q    Type
REMARK                         _______ _______ _______ _____ _____    ______ ____
ROOT
ATOM      1  N   UNL     1       1.102  11.816  18.137  0.00  0.00    +0.000 N 
ATOM      2  C   UNL     1       1.248  10.623  18.898  0.00  0.00    +0.000 A 
ATOM      3  C   UNL     1       1.830   9.519  18.285  0.00  0.00    +0.000 A 
ATOM      4  C   UNL     1       1.940   8.361  19.032  0.00  0.00    +0.000 A 
ATOM      5  N   UNL     1       1.479   8.258  20.285  0.00  0.00    +0.000 NA
ATOM      6  C   UNL     1       0.903   9.365  20.777  0.00  0.00    +0.000 A 
ATOM      7  N   UNL     1       0.765  10.544  20.146  0.00  0.00    +0.000 NA
ATOM      8  H   UNL     1       0.436  11.607  17.395  0.00  0.00    +0.000 HD
ENDROOT
BRANCH   1  15
ATOM      9  C   UNL     1       3.396  13.826  18.265  0.00  0.00    +0.000 C 
ATOM     10  C   UNL     1       1.981  14.116  18.677  0.00  0.00    +0.000 A 
ATOM     11  N   UNL     1       1.773  15.423  19.013  0.00  0.00    +0.000 NA
ATOM     12  C   UNL     1       0.493  15.814  19.218  0.00  0.00    +0.000 A 
ATOM     13  C   UNL     1      -0.604  14.984  19.109  0.00  0.00    +0.000 A 
ATOM     14  C   UNL     1      -0.361  13.647  18.786  0.00  0.00    +0.000 A 
ATOM     15  C   UNL     1       0.951  13.160  18.583  0.00  0.00    +0.000 A 
BRANCH  12  16
ATOM     16  S   UNL     1       0.275  17.547  19.556  0.00  0.00    +0.000 S 
ATOM     17  C   UNL     1      -0.621  18.203  18.173  0.00  0.00    +0.000 C 
ATOM     18  O   UNL     1      -0.583  17.647  20.724  0.00  0.00    +0.000 OA
ATOM     19  O   UNL     1       1.595  18.154  19.557  0.00  0.00    +0.000 OA
ENDBRANCH  12  16
ENDBRANCH   1  15
BRANCH   4  20
ATOM     20  O   UNL     1       2.532   7.265  18.411  0.00  0.00    +0.000 OA
BRANCH  20  21
ATOM     21  C   UNL     1       2.309   5.986  19.036  0.00  0.00    +0.000 C 
ATOM     22  C   UNL     1       3.481   5.601  19.936  0.00  0.00    +0.000 C 
ATOM     23  C   UNL     1       4.767   5.404  19.141  0.00  0.00    +0.000 C 
ATOM     24  N   UNL     1       4.646   4.531  17.976  0.00  0.00    +0.000 N 
ATOM     25  C   UNL     1       5.862   4.137  17.407  0.00  0.00    +0.000 C 
ATOM     26  O   UNL     1       6.936   4.270  17.984  0.00  0.00    +0.000 OA
ATOM     27  C   UNL     1       3.439   4.632  17.165  0.00  0.00    +0.000 C 
ATOM     28  C   UNL     1       2.160   4.890  17.968  0.00  0.00    +0.000 C 
BRANCH  25  29
ATOM     29  O   UNL     1       5.752   3.593  16.155  0.00  0.00    +0.000 OA
BRANCH  29  30
ATOM     30  C   UNL     1       6.451   4.318  15.116  0.00  0.00    +0.000 C 
ATOM     31  C   UNL     1       6.187   3.663  13.762  0.00  0.00    +0.000 C 
ATOM     32  C   UNL     1       5.965   5.766  15.097  0.00  0.00    +0.000 C 
ENDBRANCH  29  30
ENDBRANCH  25  29
ENDBRANCH  20  21
ENDBRANCH   4  20
TORSDOF 6
ENDMDL
