MODEL 1
REMARK VINA RESULT:      -6.7      0.000      0.000
REMARK  Name = 
REMARK  10 active torsions:
REMARK  status: ('A' for Active; 'I' for Inactive)
REMARK    1  A    between atoms: C_1  and  C_2
REMARK    2  A    between atoms: C_5  and  N_6
REMARK    3  A    between atoms: N_9  and  C_10
REMARK    4  A    between atoms: C_10  and  C_11
REMARK    5  A    between atoms: C_11  and  O_12
REMARK    6  A    between atoms: C_11  and  C_13
REMARK    7  A    between atoms: C_13  and  S_14
REMARK    8  A    between atoms: S_14  and  C_15
REMARK    9  A    between atoms: C_15  and  N_17
REMARK   10  A    between atoms: N_20  and  C_21
REMARK                            x       y       z     vdW  Elec       q    Type
REMARK                         _______ _______ _______ _____ _____    ______ ____
ROOT
ATOM      1  S   UNL     1       1.451   4.826  18.306  0.00  0.00    +0.000 S 
ENDROOT
BRANCH   1   2
ATOM      2  C   UNL     1       1.960   5.573  19.828  0.00  0.00    +0.000 C 
ATOM      3  S   UNL     1       2.311   4.603  21.153  0.00  0.00    +0.000 S 
BRANCH   2   4
ATOM      4  N   UNL     1       2.038   6.957  19.812  0.00  0.00    +0.000 N 
ATOM      5  C   UNL     1       2.531   7.726  18.654  0.00  0.00    +0.000 C 
ATOM      6  C   UNL     1       1.507   8.784  18.197  0.00  0.00    +0.000 C 
ATOM      7  N   UNL     1       1.117   9.641  19.327  0.00  0.00    +0.000 N 
ATOM      8  C   UNL     1       0.604   8.910  20.501  0.00  0.00    +0.000 C 
ATOM      9  C   UNL     1       1.593   7.812  20.935  0.00  0.00    +0.000 C 
BRANCH   7  10
ATOM     10  C   UNL     1       1.346  11.002  19.302  0.00  0.00    +0.000 A 
ATOM     11  C   UNL     1       2.071  11.601  18.256  0.00  0.00    +0.000 A 
ATOM     12  C   UNL     1       2.356  12.970  18.230  0.00  0.00    +0.000 A 
ATOM     13  C   UNL     1       1.901  13.791  19.251  0.00  0.00    +0.000 A 
ATOM     14  C   UNL     1       1.157  13.239  20.288  0.00  0.00    +0.000 A 
ATOM     15  C   UNL     1       0.884  11.864  20.306  0.00  0.00    +0.000 A 
ENDBRANCH   7  10
ENDBRANCH   2   4
ENDBRANCH   1   2
BRANCH   1  16
ATOM     16  C   UNL     1       2.356   3.248  18.410  0.00  0.00    +0.000 C 
BRANCH  16  17
ATOM     17  C   UNL     1       3.313   2.957  17.241  0.00  0.00    +0.000 C 
BRANCH  17  18
ATOM     18  O   UNL     1       4.274   2.002  17.710  0.00  0.00    +0.000 OA
ATOM     19  H   UNL     1       5.110   2.113  17.223  0.00  0.00    +0.000 HD
ENDBRANCH  17  18
BRANCH  17  20
ATOM     20  C   UNL     1       4.010   4.205  16.668  0.00  0.00    +0.000 C 
BRANCH  20  26
ATOM     21  C   UNL     1       6.120   4.059  14.197  0.00  0.00    +0.000 C 
ATOM     22  C   UNL     1       6.390   4.242  15.646  0.00  0.00    +0.000 A 
ATOM     23  N   UNL     1       7.624   4.362  16.103  0.00  0.00    +0.000 NA
ATOM     24  C   UNL     1       7.532   4.531  17.446  0.00  0.00    +0.000 A 
ATOM     25  C   UNL     1       6.222   4.510  17.837  0.00  0.00    +0.000 A 
ATOM     26  N   UNL     1       5.466   4.307  16.689  0.00  0.00    +0.000 N 
BRANCH  25  27
ATOM     27  N   UNL     1       5.737   4.661  19.169  0.00  0.00    +0.000 N 
ATOM     28  O   UNL     1       5.508   3.618  19.793  0.00  0.00    +0.000 OA
ATOM     29  O   UNL     1       5.563   5.806  19.606  0.00  0.00    +0.000 OA
ENDBRANCH  25  27
ENDBRANCH  20  26
ENDBRANCH  17  20
ENDBRANCH  16  17
ENDBRANCH   1  16
TORSDOF 9
ENDMDL
MODEL 2
REMARK VINA RESULT:      -6.4      3.137      4.386
REMARK  Name = 
REMARK  10 active torsions:
REMARK  status: ('A' for Active; 'I' for Inactive)
REMARK    1  A    between atoms: C_1  and  C_2
REMARK    2  A    between atoms: C_5  and  N_6
REMARK    3  A    between atoms: N_9  and  C_10
REMARK    4  A    between atoms: C_10  and  C_11
REMARK    5  A    between atoms: C_11  and  O_12
REMARK    6  A    between atoms: C_11  and  C_13
REMARK    7  A    between atoms: C_13  and  S_14
REMARK    8  A    between atoms: S_14  and  C_15
REMARK    9  A    between atoms: C_15  and  N_17
REMARK   10  A    between atoms: N_20  and  C_21
REMARK                            x       y       z     vdW  Elec       q    Type
REMARK                         _______ _______ _______ _____ _____    ______ ____
ROOT
ATOM      1  S   UNL     1       1.686   7.756  20.369  0.00  0.00    +0.000 S 
ENDROOT
BRANCH   1   2
ATOM      2  C   UNL     1       1.124   9.224  19.557  0.00  0.00    +0.000 C 
ATOM      3  S   UNL     1       1.654   9.568  18.002  0.00  0.00    +0.000 S 
BRANCH   2   4
ATOM      4  N   UNL     1       0.251  10.011  20.292  0.00  0.00    +0.000 N 
ATOM      5  C   UNL     1      -0.443   9.534  21.503  0.00  0.00    +0.000 C 
ATOM      6  C   UNL     1      -0.187  10.462  22.707  0.00  0.00    +0.000 C 
ATOM      7  N   UNL     1      -0.526  11.852  22.365  0.00  0.00    +0.000 N 
ATOM      8  C   UNL     1       0.160  12.372  21.167  0.00  0.00    +0.000 C 
ATOM      9  C   UNL     1      -0.042  11.426  19.969  0.00  0.00    +0.000 C 
BRANCH   7  10
ATOM     10  C   UNL     1      -1.504  12.539  23.055  0.00  0.00    +0.000 A 
ATOM     11  C   UNL     1      -2.753  11.950  23.329  0.00  0.00    +0.000 A 
ATOM     12  C   UNL     1      -3.778  12.639  23.986  0.00  0.00    +0.000 A 
ATOM     13  C   UNL     1      -3.574  13.944  24.410  0.00  0.00    +0.000 A 
ATOM     14  C   UNL     1      -2.342  14.549  24.181  0.00  0.00    +0.000 A 
ATOM     15  C   UNL     1      -1.325  13.849  23.515  0.00  0.00    +0.000 A 
ENDBRANCH   7  10
ENDBRANCH   2   4
ENDBRANCH   1   2
BRANCH   1  16
ATOM     16  C   UNL     1       2.560   6.946  18.990  0.00  0.00    +0.000 C 
BRANCH  16  17
ATOM     17  C   UNL     1       3.245   5.612  19.334  0.00  0.00    +0.000 C 
BRANCH  17  18
ATOM     18  O   UNL     1       2.888   5.291  20.685  0.00  0.00    +0.000 OA
ATOM     19  H   UNL     1       3.578   4.729  21.080  0.00  0.00    +0.000 HD
ENDBRANCH  17  18
BRANCH  17  20
ATOM     20  C   UNL     1       4.774   5.621  19.155  0.00  0.00    +0.000 C 
BRANCH  20  26
ATOM     21  C   UNL     1       3.806   3.152  17.272  0.00  0.00    +0.000 C 
ATOM     22  C   UNL     1       4.980   4.046  17.109  0.00  0.00    +0.000 A 
ATOM     23  N   UNL     1       5.818   3.899  16.098  0.00  0.00    +0.000 NA
ATOM     24  C   UNL     1       6.759   4.868  16.221  0.00  0.00    +0.000 A 
ATOM     25  C   UNL     1       6.511   5.631  17.329  0.00  0.00    +0.000 A 
ATOM     26  N   UNL     1       5.373   5.105  17.928  0.00  0.00    +0.000 N 
BRANCH  25  27
ATOM     27  N   UNL     1       7.282   6.742  17.778  0.00  0.00    +0.000 N 
ATOM     28  O   UNL     1       8.017   6.545  18.753  0.00  0.00    +0.000 OA
ATOM     29  O   UNL     1       7.159   7.822  17.185  0.00  0.00    +0.000 OA
ENDBRANCH  25  27
ENDBRANCH  20  26
ENDBRANCH  17  20
ENDBRANCH  16  17
ENDBRANCH   1  16
TORSDOF 9
ENDMDL
MODEL 3
REMARK VINA RESULT:      -6.3      3.414      4.732
REMARK  Name = 
REMARK  10 active torsions:
REMARK  status: ('A' for Active; 'I' for Inactive)
REMARK    1  A    between atoms: C_1  and  C_2
REMARK    2  A    between atoms: C_5  and  N_6
REMARK    3  A    between atoms: N_9  and  C_10
REMARK    4  A    between atoms: C_10  and  C_11
REMARK    5  A    between atoms: C_11  and  O_12
REMARK    6  A    between atoms: C_11  and  C_13
REMARK    7  A    between atoms: C_13  and  S_14
REMARK    8  A    between atoms: S_14  and  C_15
REMARK    9  A    between atoms: C_15  and  N_17
REMARK   10  A    between atoms: N_20  and  C_21
REMARK                            x       y       z     vdW  Elec       q    Type
REMARK                         _______ _______ _______ _____ _____    ______ ____
ROOT
ATOM      1  S   UNL     1       1.663   7.997  20.590  0.00  0.00    +0.000 S 
ENDROOT
BRANCH   1   2
ATOM      2  C   UNL     1       0.940   9.334  19.684  0.00  0.00    +0.000 C 
ATOM      3  S   UNL     1       1.599   9.792  18.210  0.00  0.00    +0.000 S 
BRANCH   2   4
ATOM      4  N   UNL     1      -0.163   9.925  20.280  0.00  0.00    +0.000 N 
ATOM      5  C   UNL     1      -0.448   9.835  21.724  0.00  0.00    +0.000 C 
ATOM      6  C   UNL     1      -0.619  11.230  22.358  0.00  0.00    +0.000 C 
ATOM      7  N   UNL     1      -1.631  12.005  21.624  0.00  0.00    +0.000 N 
ATOM      8  C   UNL     1      -1.374  12.132  20.178  0.00  0.00    +0.000 C 
ATOM      9  C   UNL     1      -1.147  10.749  19.540  0.00  0.00    +0.000 C 
BRANCH   7  10
ATOM     10  C   UNL     1      -2.777  12.454  22.248  0.00  0.00    +0.000 A 
ATOM     11  C   UNL     1      -3.016  12.192  23.610  0.00  0.00    +0.000 A 
ATOM     12  C   UNL     1      -4.190  12.595  24.256  0.00  0.00    +0.000 A 
ATOM     13  C   UNL     1      -5.160  13.297  23.555  0.00  0.00    +0.000 A 
ATOM     14  C   UNL     1      -4.946  13.598  22.214  0.00  0.00    +0.000 A 
ATOM     15  C   UNL     1      -3.768  13.183  21.577  0.00  0.00    +0.000 A 
ENDBRANCH   7  10
ENDBRANCH   2   4
ENDBRANCH   1   2
BRANCH   1  16
ATOM     16  C   UNL     1       2.584   7.170  19.252  0.00  0.00    +0.000 C 
BRANCH  16  17
ATOM     17  C   UNL     1       2.949   5.698  19.512  0.00  0.00    +0.000 C 
BRANCH  17  18
ATOM     18  O   UNL     1       2.620   5.418  20.879  0.00  0.00    +0.000 OA
ATOM     19  H   UNL     1       2.931   4.526  21.114  0.00  0.00    +0.000 HD
ENDBRANCH  17  18
BRANCH  17  20
ATOM     20  C   UNL     1       4.420   5.350  19.217  0.00  0.00    +0.000 C 
BRANCH  20  26
ATOM     21  C   UNL     1       6.658   6.907  17.445  0.00  0.00    +0.000 C 
ATOM     22  C   UNL     1       5.804   5.753  17.065  0.00  0.00    +0.000 A 
ATOM     23  N   UNL     1       5.878   5.213  15.862  0.00  0.00    +0.000 NA
ATOM     24  C   UNL     1       4.997   4.181  15.838  0.00  0.00    +0.000 A 
ATOM     25  C   UNL     1       4.358   4.077  17.043  0.00  0.00    +0.000 A 
ATOM     26  N   UNL     1       4.853   5.096  17.847  0.00  0.00    +0.000 N 
BRANCH  25  27
ATOM     27  N   UNL     1       3.369   3.112  17.392  0.00  0.00    +0.000 N 
ATOM     28  O   UNL     1       3.765   2.117  18.013  0.00  0.00    +0.000 OA
ATOM     29  O   UNL     1       2.198   3.317  17.047  0.00  0.00    +0.000 OA
ENDBRANCH  25  27
ENDBRANCH  20  26
ENDBRANCH  17  20
ENDBRANCH  16  17
ENDBRANCH   1  16
TORSDOF 9
ENDMDL
MODEL 4
REMARK VINA RESULT:      -6.3      3.191      4.510
REMARK  Name = 
REMARK  10 active torsions:
REMARK  status: ('A' for Active; 'I' for Inactive)
REMARK    1  A    between atoms: C_1  and  C_2
REMARK    2  A    between atoms: C_5  and  N_6
REMARK    3  A    between atoms: N_9  and  C_10
REMARK    4  A    between atoms: C_10  and  C_11
REMARK    5  A    between atoms: C_11  and  O_12
REMARK    6  A    between atoms: C_11  and  C_13
REMARK    7  A    between atoms: C_13  and  S_14
REMARK    8  A    between atoms: S_14  and  C_15
REMARK    9  A    between atoms: C_15  and  N_17
REMARK   10  A    between atoms: N_20  and  C_21
REMARK                            x       y       z     vdW  Elec       q    Type
REMARK                         _______ _______ _______ _____ _____    ______ ____
ROOT
ATOM      1  S   UNL     1       1.459   7.738  20.652  0.00  0.00    +0.000 S 
ENDROOT
BRANCH   1   2
ATOM      2  C   UNL     1       1.111   9.311  19.919  0.00  0.00    +0.000 C 
ATOM      3  S   UNL     1       1.427   9.557  18.289  0.00  0.00    +0.000 S 
BRANCH   2   4
ATOM      4  N   UNL     1       0.578  10.260  20.778  0.00  0.00    +0.000 N 
ATOM      5  C   UNL     1      -0.000  11.535  20.315  0.00  0.00    +0.000 C 
ATOM      6  C   UNL     1      -1.441  11.727  20.830  0.00  0.00    +0.000 C 
ATOM      7  N   UNL     1      -1.486  11.577  22.292  0.00  0.00    +0.000 N 
ATOM      8  C   UNL     1      -0.931  10.307  22.795  0.00  0.00    +0.000 C 
ATOM      9  C   UNL     1       0.489  10.075  22.244  0.00  0.00    +0.000 C 
BRANCH   7  10
ATOM     10  C   UNL     1      -1.904  12.613  23.103  0.00  0.00    +0.000 A 
ATOM     11  C   UNL     1      -3.183  12.610  23.689  0.00  0.00    +0.000 A 
ATOM     12  C   UNL     1      -3.648  13.668  24.477  0.00  0.00    +0.000 A 
ATOM     13  C   UNL     1      -2.831  14.762  24.720  0.00  0.00    +0.000 A 
ATOM     14  C   UNL     1      -1.549  14.787  24.180  0.00  0.00    +0.000 A 
ATOM     15  C   UNL     1      -1.097  13.723  23.386  0.00  0.00    +0.000 A 
ENDBRANCH   7  10
ENDBRANCH   2   4
ENDBRANCH   1   2
BRANCH   1  16
ATOM     16  C   UNL     1       2.602   7.055  19.408  0.00  0.00    +0.000 C 
BRANCH  16  17
ATOM     17  C   UNL     1       2.984   5.577  19.601  0.00  0.00    +0.000 C 
BRANCH  17  18
ATOM     18  O   UNL     1       2.662   5.233  20.955  0.00  0.00    +0.000 OA
ATOM     19  H   UNL     1       1.979   5.839  21.293  0.00  0.00    +0.000 HD
ENDBRANCH  17  18
BRANCH  17  20
ATOM     20  C   UNL     1       4.457   5.258  19.286  0.00  0.00    +0.000 C 
BRANCH  20  26
ATOM     21  C   UNL     1       6.683   6.862  17.538  0.00  0.00    +0.000 C 
ATOM     22  C   UNL     1       5.827   5.716  17.136  0.00  0.00    +0.000 A 
ATOM     23  N   UNL     1       5.894   5.206  15.919  0.00  0.00    +0.000 NA
ATOM     24  C   UNL     1       5.013   4.175  15.875  0.00  0.00    +0.000 A 
ATOM     25  C   UNL     1       4.382   4.040  17.081  0.00  0.00    +0.000 A 
ATOM     26  N   UNL     1       4.882   5.039  17.907  0.00  0.00    +0.000 N 
BRANCH  25  27
ATOM     27  N   UNL     1       3.397   3.065  17.412  0.00  0.00    +0.000 N 
ATOM     28  O   UNL     1       2.241   3.300  17.039  0.00  0.00    +0.000 OA
ATOM     29  O   UNL     1       3.748   2.068  18.055  0.00  0.00    +0.000 OA
ENDBRANCH  25  27
ENDBRANCH  20  26
ENDBRANCH  17  20
ENDBRANCH  16  17
ENDBRANCH   1  16
TORSDOF 9
ENDMDL
MODEL 5
REMARK VINA RESULT:      -6.2      3.742      5.353
REMARK  Name = 
REMARK  10 active torsions:
REMARK  status: ('A' for Active; 'I' for Inactive)
REMARK    1  A    between atoms: C_1  and  C_2
REMARK    2  A    between atoms: C_5  and  N_6
REMARK    3  A    between atoms: N_9  and  C_10
REMARK    4  A    between atoms: C_10  and  C_11
REMARK    5  A    between atoms: C_11  and  O_12
REMARK    6  A    between atoms: C_11  and  C_13
REMARK    7  A    between atoms: C_13  and  S_14
REMARK    8  A    between atoms: S_14  and  C_15
REMARK    9  A    between atoms: C_15  and  N_17
REMARK   10  A    between atoms: N_20  and  C_21
REMARK                            x       y       z     vdW  Elec       q    Type
REMARK                         _______ _______ _______ _____ _____    ______ ____
ROOT
ATOM      1  S   UNL     1       1.541   8.431  19.940  0.00  0.00    +0.000 S 
ENDROOT
BRANCH   1   2
ATOM      2  C   UNL     1       0.931  10.049  19.563  0.00  0.00    +0.000 C 
ATOM      3  S   UNL     1       1.734  10.999  18.436  0.00  0.00    +0.000 S 
BRANCH   2   4
ATOM      4  N   UNL     1      -0.213  10.425  20.250  0.00  0.00    +0.000 N 
ATOM      5  C   UNL     1      -0.343  10.335  21.716  0.00  0.00    +0.000 C 
ATOM      6  C   UNL     1      -0.741  11.689  22.336  0.00  0.00    +0.000 C 
ATOM      7  N   UNL     1      -1.953  12.213  21.687  0.00  0.00    +0.000 N 
ATOM      8  C   UNL     1      -1.858  12.333  20.220  0.00  0.00    +0.000 C 
ATOM      9  C   UNL     1      -1.407  11.001  19.591  0.00  0.00    +0.000 C 
BRANCH   7  10
ATOM     10  C   UNL     1      -3.107  12.442  22.409  0.00  0.00    +0.000 A 
ATOM     11  C   UNL     1      -4.274  12.921  21.786  0.00  0.00    +0.000 A 
ATOM     12  C   UNL     1      -5.442  13.205  22.501  0.00  0.00    +0.000 A 
ATOM     13  C   UNL     1      -5.483  12.997  23.872  0.00  0.00    +0.000 A 
ATOM     14  C   UNL     1      -4.356  12.497  24.518  0.00  0.00    +0.000 A 
ATOM     15  C   UNL     1      -3.190  12.223  23.790  0.00  0.00    +0.000 A 
ENDBRANCH   7  10
ENDBRANCH   2   4
ENDBRANCH   1   2
BRANCH   1  16
ATOM     16  C   UNL     1       2.229   7.967  18.317  0.00  0.00    +0.000 C 
BRANCH  16  17
ATOM     17  C   UNL     1       3.258   6.823  18.338  0.00  0.00    +0.000 C 
BRANCH  17  18
ATOM     18  O   UNL     1       4.266   7.146  17.371  0.00  0.00    +0.000 OA
ATOM     19  H   UNL     1       4.644   6.325  17.007  0.00  0.00    +0.000 HD
ENDBRANCH  17  18
BRANCH  17  20
ATOM     20  C   UNL     1       2.661   5.430  18.068  0.00  0.00    +0.000 C 
BRANCH  20  26
ATOM     21  C   UNL     1       0.922   3.840  20.310  0.00  0.00    +0.000 C 
ATOM     22  C   UNL     1       2.320   3.600  19.870  0.00  0.00    +0.000 A 
ATOM     23  N   UNL     1       3.051   2.640  20.406  0.00  0.00    +0.000 NA
ATOM     24  C   UNL     1       4.256   2.668  19.784  0.00  0.00    +0.000 A 
ATOM     25  C   UNL     1       4.283   3.665  18.849  0.00  0.00    +0.000 A 
ATOM     26  N   UNL     1       3.044   4.293  18.900  0.00  0.00    +0.000 N 
BRANCH  25  27
ATOM     27  N   UNL     1       5.378   3.995  17.998  0.00  0.00    +0.000 N 
ATOM     28  O   UNL     1       6.395   4.430  18.552  0.00  0.00    +0.000 OA
ATOM     29  O   UNL     1       5.241   3.842  16.777  0.00  0.00    +0.000 OA
ENDBRANCH  25  27
ENDBRANCH  20  26
ENDBRANCH  17  20
ENDBRANCH  16  17
ENDBRANCH   1  16
TORSDOF 9
ENDMDL
MODEL 6
REMARK VINA RESULT:      -6.2      3.295      4.645
REMARK  Name = 
REMARK  10 active torsions:
REMARK  status: ('A' for Active; 'I' for Inactive)
REMARK    1  A    between atoms: C_1  and  C_2
REMARK    2  A    between atoms: C_5  and  N_6
REMARK    3  A    between atoms: N_9  and  C_10
REMARK    4  A    between atoms: C_10  and  C_11
REMARK    5  A    between atoms: C_11  and  O_12
REMARK    6  A    between atoms: C_11  and  C_13
REMARK    7  A    between atoms: C_13  and  S_14
REMARK    8  A    between atoms: S_14  and  C_15
REMARK    9  A    between atoms: C_15  and  N_17
REMARK   10  A    between atoms: N_20  and  C_21
REMARK                            x       y       z     vdW  Elec       q    Type
REMARK                         _______ _______ _______ _____ _____    ______ ____
ROOT
ATOM      1  S   UNL     1       1.752   7.550  20.652  0.00  0.00    +0.000 S 
ENDROOT
BRANCH   1   2
ATOM      2  C   UNL     1       1.315   9.073  19.863  0.00  0.00    +0.000 C 
ATOM      3  S   UNL     1       1.586   9.265  18.218  0.00  0.00    +0.000 S 
BRANCH   2   4
ATOM      4  N   UNL     1       0.756  10.032  20.694  0.00  0.00    +0.000 N 
ATOM      5  C   UNL     1       0.139  11.275  20.194  0.00  0.00    +0.000 C 
ATOM      6  C   UNL     1      -1.306  11.438  20.707  0.00  0.00    +0.000 C 
ATOM      7  N   UNL     1      -1.343  11.332  22.174  0.00  0.00    +0.000 N 
ATOM      8  C   UNL     1      -0.749  10.095  22.714  0.00  0.00    +0.000 C 
ATOM      9  C   UNL     1       0.676   9.889  22.166  0.00  0.00    +0.000 C 
BRANCH   7  10
ATOM     10  C   UNL     1      -1.790  12.380  22.954  0.00  0.00    +0.000 A 
ATOM     11  C   UNL     1      -3.078  12.369  23.520  0.00  0.00    +0.000 A 
ATOM     12  C   UNL     1      -3.573  13.437  24.276  0.00  0.00    +0.000 A 
ATOM     13  C   UNL     1      -2.777  14.550  24.507  0.00  0.00    +0.000 A 
ATOM     14  C   UNL     1      -1.487  14.583  23.986  0.00  0.00    +0.000 A 
ATOM     15  C   UNL     1      -1.006  13.509  23.224  0.00  0.00    +0.000 A 
ENDBRANCH   7  10
ENDBRANCH   2   4
ENDBRANCH   1   2
BRANCH   1  16
ATOM     16  C   UNL     1       2.296   6.589  19.202  0.00  0.00    +0.000 C 
BRANCH  16  17
ATOM     17  C   UNL     1       3.814   6.361  19.093  0.00  0.00    +0.000 C 
BRANCH  17  18
ATOM     18  O   UNL     1       4.179   6.606  17.728  0.00  0.00    +0.000 OA
ATOM     19  H   UNL     1       3.508   6.223  17.136  0.00  0.00    +0.000 HD
ENDBRANCH  17  18
BRANCH  17  20
ATOM     20  C   UNL     1       4.278   4.964  19.545  0.00  0.00    +0.000 C 
BRANCH  20  26
ATOM     21  C   UNL     1       4.670   3.590  16.623  0.00  0.00    +0.000 C 
ATOM     22  C   UNL     1       3.796   3.164  17.745  0.00  0.00    +0.000 A 
ATOM     23  N   UNL     1       3.023   2.098  17.645  0.00  0.00    +0.000 NA
ATOM     24  C   UNL     1       2.374   1.968  18.829  0.00  0.00    +0.000 A 
ATOM     25  C   UNL     1       2.741   2.971  19.682  0.00  0.00    +0.000 A 
ATOM     26  N   UNL     1       3.649   3.767  18.995  0.00  0.00    +0.000 N 
BRANCH  25  27
ATOM     27  N   UNL     1       2.271   3.160  21.014  0.00  0.00    +0.000 N 
ATOM     28  O   UNL     1       2.866   2.537  21.902  0.00  0.00    +0.000 OA
ATOM     29  O   UNL     1       1.304   3.911  21.197  0.00  0.00    +0.000 OA
ENDBRANCH  25  27
ENDBRANCH  20  26
ENDBRANCH  17  20
ENDBRANCH  16  17
ENDBRANCH   1  16
TORSDOF 9
ENDMDL
MODEL 7
REMARK VINA RESULT:      -6.2      4.288      5.581
REMARK  Name = 
REMARK  10 active torsions:
REMARK  status: ('A' for Active; 'I' for Inactive)
REMARK    1  A    between atoms: C_1  and  C_2
REMARK    2  A    between atoms: C_5  and  N_6
REMARK    3  A    between atoms: N_9  and  C_10
REMARK    4  A    between atoms: C_10  and  C_11
REMARK    5  A    between atoms: C_11  and  O_12
REMARK    6  A    between atoms: C_11  and  C_13
REMARK    7  A    between atoms: C_13  and  S_14
REMARK    8  A    between atoms: S_14  and  C_15
REMARK    9  A    between atoms: C_15  and  N_17
REMARK   10  A    between atoms: N_20  and  C_21
REMARK                            x       y       z     vdW  Elec       q    Type
REMARK                         _______ _______ _______ _____ _____    ______ ____
ROOT
ATOM      1  S   UNL     1       1.761   9.753  18.055  0.00  0.00    +0.000 S 
ENDROOT
BRANCH   1   2
ATOM      2  C   UNL     1       0.974  11.188  18.727  0.00  0.00    +0.000 C 
ATOM      3  S   UNL     1       1.895  12.538  19.113  0.00  0.00    +0.000 S 
BRANCH   2   4
ATOM      4  N   UNL     1      -0.399  11.090  18.889  0.00  0.00    +0.000 N 
ATOM      5  C   UNL     1      -1.113  11.601  20.074  0.00  0.00    +0.000 C 
ATOM      6  C   UNL     1      -2.242  12.575  19.681  0.00  0.00    +0.000 C 
ATOM      7  N   UNL     1      -3.141  11.948  18.700  0.00  0.00    +0.000 N 
ATOM      8  C   UNL     1      -2.467  11.437  17.492  0.00  0.00    +0.000 C 
ATOM      9  C   UNL     1      -1.301  10.504  17.870  0.00  0.00    +0.000 C 
BRANCH   7  10
ATOM     10  C   UNL     1      -4.480  11.758  18.978  0.00  0.00    +0.000 A 
ATOM     11  C   UNL     1      -5.096  12.399  20.068  0.00  0.00    +0.000 A 
ATOM     12  C   UNL     1      -6.439  12.189  20.400  0.00  0.00    +0.000 A 
ATOM     13  C   UNL     1      -7.217  11.337  19.629  0.00  0.00    +0.000 A 
ATOM     14  C   UNL     1      -6.648  10.708  18.526  0.00  0.00    +0.000 A 
ATOM     15  C   UNL     1      -5.299  10.922  18.209  0.00  0.00    +0.000 A 
ENDBRANCH   7  10
ENDBRANCH   2   4
ENDBRANCH   1   2
BRANCH   1  16
ATOM     16  C   UNL     1       1.610   8.616  19.471  0.00  0.00    +0.000 C 
BRANCH  16  17
ATOM     17  C   UNL     1       2.078   7.173  19.214  0.00  0.00    +0.000 C 
BRANCH  17  18
ATOM     18  O   UNL     1       2.808   6.754  20.375  0.00  0.00    +0.000 OA
ATOM     19  H   UNL     1       3.754   6.680  20.157  0.00  0.00    +0.000 HD
ENDBRANCH  17  18
BRANCH  17  20
ATOM     20  C   UNL     1       2.925   7.001  17.939  0.00  0.00    +0.000 C 
BRANCH  20  26
ATOM     21  C   UNL     1       6.097   6.773  17.257  0.00  0.00    +0.000 C 
ATOM     22  C   UNL     1       5.105   5.686  17.462  0.00  0.00    +0.000 A 
ATOM     23  N   UNL     1       5.453   4.416  17.368  0.00  0.00    +0.000 NA
ATOM     24  C   UNL     1       4.340   3.682  17.624  0.00  0.00    +0.000 A 
ATOM     25  C   UNL     1       3.279   4.506  17.877  0.00  0.00    +0.000 A 
ATOM     26  N   UNL     1       3.748   5.809  17.760  0.00  0.00    +0.000 N 
BRANCH  25  27
ATOM     27  N   UNL     1       1.950   4.098  18.189  0.00  0.00    +0.000 N 
ATOM     28  O   UNL     1       1.159   4.021  17.241  0.00  0.00    +0.000 OA
ATOM     29  O   UNL     1       1.668   3.864  19.372  0.00  0.00    +0.000 OA
ENDBRANCH  25  27
ENDBRANCH  20  26
ENDBRANCH  17  20
ENDBRANCH  16  17
ENDBRANCH   1  16
TORSDOF 9
ENDMDL
MODEL 8
REMARK VINA RESULT:      -6.1      4.186      5.439
REMARK  Name = 
REMARK  10 active torsions:
REMARK  status: ('A' for Active; 'I' for Inactive)
REMARK    1  A    between atoms: C_1  and  C_2
REMARK    2  A    between atoms: C_5  and  N_6
REMARK    3  A    between atoms: N_9  and  C_10
REMARK    4  A    between atoms: C_10  and  C_11
REMARK    5  A    between atoms: C_11  and  O_12
REMARK    6  A    between atoms: C_11  and  C_13
REMARK    7  A    between atoms: C_13  and  S_14
REMARK    8  A    between atoms: S_14  and  C_15
REMARK    9  A    between atoms: C_15  and  N_17
REMARK   10  A    between atoms: N_20  and  C_21
REMARK                            x       y       z     vdW  Elec       q    Type
REMARK                         _______ _______ _______ _____ _____    ______ ____
ROOT
ATOM      1  S   UNL     1       1.623   8.748  19.539  0.00  0.00    +0.000 S 
ENDROOT
BRANCH   1   2
ATOM      2  C   UNL     1       0.995  10.243  18.830  0.00  0.00    +0.000 C 
ATOM      3  S   UNL     1       2.053  11.338  18.123  0.00  0.00    +0.000 S 
BRANCH   2   4
ATOM      4  N   UNL     1      -0.380  10.404  18.910  0.00  0.00    +0.000 N 
ATOM      5  C   UNL     1      -1.056  11.018  20.068  0.00  0.00    +0.000 C 
ATOM      6  C   UNL     1      -1.954  12.197  19.643  0.00  0.00    +0.000 C 
ATOM      7  N   UNL     1      -2.893  11.772  18.593  0.00  0.00    +0.000 N 
ATOM      8  C   UNL     1      -2.255  11.166  17.410  0.00  0.00    +0.000 C 
ATOM      9  C   UNL     1      -1.311  10.022  17.824  0.00  0.00    +0.000 C 
BRANCH   7  10
ATOM     10  C   UNL     1      -4.258  11.835  18.789  0.00  0.00    +0.000 A 
ATOM     11  C   UNL     1      -5.154  11.280  17.857  0.00  0.00    +0.000 A 
ATOM     12  C   UNL     1      -6.542  11.369  18.008  0.00  0.00    +0.000 A 
ATOM     13  C   UNL     1      -7.079  12.006  19.117  0.00  0.00    +0.000 A 
ATOM     14  C   UNL     1      -6.223  12.543  20.073  0.00  0.00    +0.000 A 
ATOM     15  C   UNL     1      -4.834  12.452  19.907  0.00  0.00    +0.000 A 
ENDBRANCH   7  10
ENDBRANCH   2   4
ENDBRANCH   1   2
BRANCH   1  16
ATOM     16  C   UNL     1       2.096   7.854  18.022  0.00  0.00    +0.000 C 
BRANCH  16  17
ATOM     17  C   UNL     1       3.284   6.887  18.168  0.00  0.00    +0.000 C 
BRANCH  17  18
ATOM     18  O   UNL     1       4.341   7.388  17.339  0.00  0.00    +0.000 OA
ATOM     19  H   UNL     1       4.471   6.791  16.581  0.00  0.00    +0.000 HD
ENDBRANCH  17  18
BRANCH  17  20
ATOM     20  C   UNL     1       2.954   5.424  17.818  0.00  0.00    +0.000 C 
BRANCH  20  26
ATOM     21  C   UNL     1       6.034   4.658  18.533  0.00  0.00    +0.000 C 
ATOM     22  C   UNL     1       4.780   3.986  18.962  0.00  0.00    +0.000 A 
ATOM     23  N   UNL     1       4.808   2.915  19.734  0.00  0.00    +0.000 NA
ATOM     24  C   UNL     1       3.518   2.557  19.958  0.00  0.00    +0.000 A 
ATOM     25  C   UNL     1       2.671   3.414  19.312  0.00  0.00    +0.000 A 
ATOM     26  N   UNL     1       3.468   4.337  18.646  0.00  0.00    +0.000 N 
BRANCH  25  27
ATOM     27  N   UNL     1       1.247   3.357  19.319  0.00  0.00    +0.000 N 
ATOM     28  O   UNL     1       0.674   3.998  20.209  0.00  0.00    +0.000 OA
ATOM     29  O   UNL     1       0.681   2.669  18.460  0.00  0.00    +0.000 OA
ENDBRANCH  25  27
ENDBRANCH  20  26
ENDBRANCH  17  20
ENDBRANCH  16  17
ENDBRANCH   1  16
TORSDOF 9
ENDMDL
MODEL 9
REMARK VINA RESULT:      -6.1      3.336      4.656
REMARK  Name = 
REMARK  10 active torsions:
REMARK  status: ('A' for Active; 'I' for Inactive)
REMARK    1  A    between atoms: C_1  and  C_2
REMARK    2  A    between atoms: C_5  and  N_6
REMARK    3  A    between atoms: N_9  and  C_10
REMARK    4  A    between atoms: C_10  and  C_11
REMARK    5  A    between atoms: C_11  and  O_12
REMARK    6  A    between atoms: C_11  and  C_13
REMARK    7  A    between atoms: C_13  and  S_14
REMARK    8  A    between atoms: S_14  and  C_15
REMARK    9  A    between atoms: C_15  and  N_17
REMARK   10  A    between atoms: N_20  and  C_21
REMARK                            x       y       z     vdW  Elec       q    Type
REMARK                         _______ _______ _______ _____ _____    ______ ____
ROOT
ATOM      1  S   UNL     1       1.794   7.525  20.249  0.00  0.00    +0.000 S 
ENDROOT
BRANCH   1   2
ATOM      2  C   UNL     1       1.187   8.954  19.402  0.00  0.00    +0.000 C 
ATOM      3  S   UNL     1       1.885   9.418  17.947  0.00  0.00    +0.000 S 
BRANCH   2   4
ATOM      4  N   UNL     1       0.135   9.610  20.024  0.00  0.00    +0.000 N 
ATOM      5  C   UNL     1       0.037   9.776  21.486  0.00  0.00    +0.000 C 
ATOM      6  C   UNL     1      -0.129  11.257  21.880  0.00  0.00    +0.000 C 
ATOM      7  N   UNL     1      -1.265  11.854  21.160  0.00  0.00    +0.000 N 
ATOM      8  C   UNL     1      -1.197  11.723  19.694  0.00  0.00    +0.000 C 
ATOM      9  C   UNL     1      -0.975  10.254  19.286  0.00  0.00    +0.000 C 
BRANCH   7  10
ATOM     10  C   UNL     1      -2.348  12.373  21.841  0.00  0.00    +0.000 A 
ATOM     11  C   UNL     1      -3.191  13.330  21.248  0.00  0.00    +0.000 A 
ATOM     12  C   UNL     1      -4.268  13.906  21.932  0.00  0.00    +0.000 A 
ATOM     13  C   UNL     1      -4.546  13.521  23.235  0.00  0.00    +0.000 A 
ATOM     14  C   UNL     1      -3.750  12.556  23.844  0.00  0.00    +0.000 A 
ATOM     15  C   UNL     1      -2.670  11.992  23.150  0.00  0.00    +0.000 A 
ENDBRANCH   7  10
ENDBRANCH   2   4
ENDBRANCH   1   2
BRANCH   1  16
ATOM     16  C   UNL     1       2.569   6.638  18.858  0.00  0.00    +0.000 C 
BRANCH  16  17
ATOM     17  C   UNL     1       4.068   6.333  19.021  0.00  0.00    +0.000 C 
BRANCH  17  18
ATOM     18  O   UNL     1       4.687   6.568  17.749  0.00  0.00    +0.000 OA
ATOM     19  H   UNL     1       4.573   5.786  17.181  0.00  0.00    +0.000 HD
ENDBRANCH  17  18
BRANCH  17  20
ATOM     20  C   UNL     1       4.373   4.911  19.528  0.00  0.00    +0.000 C 
BRANCH  20  26
ATOM     21  C   UNL     1       4.650   3.557  16.583  0.00  0.00    +0.000 C 
ATOM     22  C   UNL     1       3.761   3.171  17.709  0.00  0.00    +0.000 A 
ATOM     23  N   UNL     1       2.921   2.157  17.602  0.00  0.00    +0.000 NA
ATOM     24  C   UNL     1       2.276   2.052  18.791  0.00  0.00    +0.000 A 
ATOM     25  C   UNL     1       2.715   3.018  19.654  0.00  0.00    +0.000 A 
ATOM     26  N   UNL     1       3.665   3.765  18.968  0.00  0.00    +0.000 N 
BRANCH  25  27
ATOM     27  N   UNL     1       2.270   3.217  20.994  0.00  0.00    +0.000 N 
ATOM     28  O   UNL     1       2.830   2.543  21.866  0.00  0.00    +0.000 OA
ATOM     29  O   UNL     1       1.357   4.027  21.196  0.00  0.00    +0.000 OA
ENDBRANCH  25  27
ENDBRANCH  20  26
ENDBRANCH  17  20
ENDBRANCH  16  17
ENDBRANCH   1  16
TORSDOF 9
ENDMDL
