MODEL 1
REMARK VINA RESULT:      -8.3      0.000      0.000
REMARK  Name = 
REMARK  4 active torsions:
REMARK  status: ('A' for Active; 'I' for Inactive)
REMARK    1  A    between atoms: C_12  and  C_13
REMARK    2  A    between atoms: N_15  and  C_16
REMARK    3  A    between atoms: C_16  and  C_17
REMARK    4  A    between atoms: C_24  and  C_25
REMARK                            x       y       z     vdW  Elec       q    Type
REMARK                         _______ _______ _______ _____ _____    ______ ____
ROOT
ATOM      1  C   UNL     1       0.870  11.776  18.691  0.00  0.00    +0.000 A 
ATOM      2  C   UNL     1       1.617  12.850  19.101  0.00  0.00    +0.000 A 
ATOM      3  N   UNL     1       0.745  13.900  19.192  0.00  0.00    +0.000 N 
ATOM      4  N   UNL     1      -0.525  13.564  18.873  0.00  0.00    +0.000 NA
ATOM      5  C   UNL     1      -0.462  12.254  18.567  0.00  0.00    +0.000 A 
ENDROOT
BRANCH   1  17
ATOM      6  O   UNL     1       0.058  10.489  21.248  0.00  0.00    +0.000 OA
ATOM      7  C   UNL     1       0.681   9.567  20.749  0.00  0.00    +0.000 C 
ATOM      8  N   UNL     1       0.883   8.329  21.326  0.00  0.00    +0.000 N 
ATOM      9  C   UNL     1       1.572   7.479  20.470  0.00  0.00    +0.000 A 
ATOM     10  C   UNL     1       1.893   6.164  20.726  0.00  0.00    +0.000 A 
ATOM     11  C   UNL     1       2.565   5.469  19.722  0.00  0.00    +0.000 A 
ATOM     12  C   UNL     1       2.897   6.105  18.509  0.00  0.00    +0.000 A 
ATOM     13 CL   UNL     1       3.718   5.204  17.293  0.00  0.00    +0.000 Cl
ATOM     14  C   UNL     1       2.566   7.447  18.273  0.00  0.00    +0.000 A 
ATOM     15  C   UNL     1       1.892   8.126  19.271  0.00  0.00    +0.000 A 
ATOM     16  C   UNL     1       1.343   9.479  19.399  0.00  0.00    +0.000 C 
ATOM     17  C   UNL     1       1.394  10.473  18.496  0.00  0.00    +0.000 C 
ATOM     18  H   UNL     1       0.525   8.097  22.233  0.00  0.00    +0.000 HD
ENDBRANCH   1  17
BRANCH   5  19
ATOM     19  C   UNL     1      -1.659  11.488  18.246  0.00  0.00    +0.000 A 
ATOM     20  C   UNL     1      -1.621  10.382  17.400  0.00  0.00    +0.000 A 
ATOM     21  C   UNL     1      -2.808   9.735  17.061  0.00  0.00    +0.000 A 
ATOM     22  C   UNL     1      -3.994  10.214  17.592  0.00  0.00    +0.000 A 
ATOM     23  N   UNL     1      -4.078  11.260  18.439  0.00  0.00    +0.000 NA
ATOM     24  C   UNL     1      -2.905  11.869  18.741  0.00  0.00    +0.000 A 
ENDBRANCH   5  19
BRANCH   3  25
ATOM     25  C   UNL     1       1.034  15.225  19.741  0.00  0.00    +0.000 C 
BRANCH  25  26
ATOM     26  C   UNL     1       1.063  16.314  18.695  0.00  0.00    +0.000 A 
ATOM     27  C   UNL     1       2.228  16.572  17.956  0.00  0.00    +0.000 A 
ATOM     28  C   UNL     1       2.250  17.574  16.983  0.00  0.00    +0.000 A 
ATOM     29  C   UNL     1       1.098  18.306  16.704  0.00  0.00    +0.000 A 
ATOM     30  C   UNL     1      -0.076  18.042  17.407  0.00  0.00    +0.000 A 
ATOM     31  C   UNL     1      -0.090  17.062  18.404  0.00  0.00    +0.000 A 
ENDBRANCH  25  26
ENDBRANCH   3  25
TORSDOF 4
ENDMDL
MODEL 2
REMARK VINA RESULT:      -8.2      1.673      2.067
REMARK  Name = 
REMARK  4 active torsions:
REMARK  status: ('A' for Active; 'I' for Inactive)
REMARK    1  A    between atoms: C_12  and  C_13
REMARK    2  A    between atoms: N_15  and  C_16
REMARK    3  A    between atoms: C_16  and  C_17
REMARK    4  A    between atoms: C_24  and  C_25
REMARK                            x       y       z     vdW  Elec       q    Type
REMARK                         _______ _______ _______ _____ _____    ______ ____
ROOT
ATOM      1  C   UNL     1       0.687  11.111  19.871  0.00  0.00    +0.000 A 
ATOM      2  C   UNL     1       1.448  12.129  20.385  0.00  0.00    +0.000 A 
ATOM      3  N   UNL     1       0.862  13.289  19.957  0.00  0.00    +0.000 N 
ATOM      4  N   UNL     1      -0.240  13.079  19.203  0.00  0.00    +0.000 NA
ATOM      5  C   UNL     1      -0.362  11.738  19.147  0.00  0.00    +0.000 A 
ENDROOT
BRANCH   1  17
ATOM      6  O   UNL     1       2.325  10.464  17.472  0.00  0.00    +0.000 OA
ATOM      7  C   UNL     1       2.258   9.355  17.974  0.00  0.00    +0.000 C 
ATOM      8  N   UNL     1       2.823   8.204  17.459  0.00  0.00    +0.000 N 
ATOM      9  C   UNL     1       2.625   7.121  18.306  0.00  0.00    +0.000 A 
ATOM     10  C   UNL     1       3.100   5.844  18.105  0.00  0.00    +0.000 A 
ATOM     11  C   UNL     1       2.817   4.901  19.091  0.00  0.00    +0.000 A 
ATOM     12  C   UNL     1       2.070   5.258  20.231  0.00  0.00    +0.000 A 
ATOM     13 CL   UNL     1       1.753   4.062  21.428  0.00  0.00    +0.000 Cl
ATOM     14  C   UNL     1       1.591   6.564  20.411  0.00  0.00    +0.000 A 
ATOM     15  C   UNL     1       1.884   7.495  19.433  0.00  0.00    +0.000 A 
ATOM     16  C   UNL     1       1.617   8.927  19.268  0.00  0.00    +0.000 C 
ATOM     17  C   UNL     1       0.941   9.735  20.102  0.00  0.00    +0.000 C 
ATOM     18  H   UNL     1       3.340   8.202  16.600  0.00  0.00    +0.000 HD
ENDBRANCH   1  17
BRANCH   5  19
ATOM     19  C   UNL     1      -1.494  11.103  18.485  0.00  0.00    +0.000 A 
ATOM     20  C   UNL     1      -1.321  10.134  17.499  0.00  0.00    +0.000 A 
ATOM     21  C   UNL     1      -2.435   9.618  16.840  0.00  0.00    +0.000 A 
ATOM     22  C   UNL     1      -3.688  10.085  17.201  0.00  0.00    +0.000 A 
ATOM     23  N   UNL     1      -3.908  10.997  18.168  0.00  0.00    +0.000 NA
ATOM     24  C   UNL     1      -2.801  11.482  18.783  0.00  0.00    +0.000 A 
ENDBRANCH   5  19
BRANCH   3  25
ATOM     25  C   UNL     1       1.214  14.647  20.372  0.00  0.00    +0.000 C 
BRANCH  25  26
ATOM     26  C   UNL     1       1.780  15.487  19.253  0.00  0.00    +0.000 A 
ATOM     27  C   UNL     1       2.876  15.039  18.498  0.00  0.00    +0.000 A 
ATOM     28  C   UNL     1       3.393  15.815  17.458  0.00  0.00    +0.000 A 
ATOM     29  C   UNL     1       2.799  17.032  17.129  0.00  0.00    +0.000 A 
ATOM     30  C   UNL     1       1.691  17.477  17.848  0.00  0.00    +0.000 A 
ATOM     31  C   UNL     1       1.194  16.718  18.910  0.00  0.00    +0.000 A 
ENDBRANCH  25  26
ENDBRANCH   3  25
TORSDOF 4
ENDMDL
MODEL 3
REMARK VINA RESULT:      -8.2      4.841      9.378
REMARK  Name = 
REMARK  4 active torsions:
REMARK  status: ('A' for Active; 'I' for Inactive)
REMARK    1  A    between atoms: C_12  and  C_13
REMARK    2  A    between atoms: N_15  and  C_16
REMARK    3  A    between atoms: C_16  and  C_17
REMARK    4  A    between atoms: C_24  and  C_25
REMARK                            x       y       z     vdW  Elec       q    Type
REMARK                         _______ _______ _______ _____ _____    ______ ____
ROOT
ATOM      1  C   UNL     1       4.091   6.206  17.150  0.00  0.00    +0.000 A 
ATOM      2  C   UNL     1       5.314   6.480  16.595  0.00  0.00    +0.000 A 
ATOM      3  N   UNL     1       5.952   5.275  16.478  0.00  0.00    +0.000 N 
ATOM      4  N   UNL     1       5.206   4.236  16.917  0.00  0.00    +0.000 NA
ATOM      5  C   UNL     1       4.053   4.797  17.329  0.00  0.00    +0.000 A 
ENDROOT
BRANCH   1  17
ATOM      6  O   UNL     1       3.792   5.869  20.092  0.00  0.00    +0.000 OA
ATOM      7  C   UNL     1       2.936   6.715  19.899  0.00  0.00    +0.000 C 
ATOM      8  N   UNL     1       2.119   7.267  20.867  0.00  0.00    +0.000 N 
ATOM      9  C   UNL     1       1.299   8.253  20.334  0.00  0.00    +0.000 A 
ATOM     10  C   UNL     1       0.403   9.026  21.040  0.00  0.00    +0.000 A 
ATOM     11  C   UNL     1      -0.308   9.986  20.324  0.00  0.00    +0.000 A 
ATOM     12  C   UNL     1      -0.109  10.139  18.937  0.00  0.00    +0.000 A 
ATOM     13 CL   UNL     1      -1.003  11.345  18.095  0.00  0.00    +0.000 Cl
ATOM     14  C   UNL     1       0.804   9.337  18.237  0.00  0.00    +0.000 A 
ATOM     15  C   UNL     1       1.512   8.393  18.958  0.00  0.00    +0.000 A 
ATOM     16  C   UNL     1       2.556   7.420  18.623  0.00  0.00    +0.000 C 
ATOM     17  C   UNL     1       3.102   7.186  17.418  0.00  0.00    +0.000 C 
ATOM     18  H   UNL     1       2.172   6.994  21.830  0.00  0.00    +0.000 HD
ENDBRANCH   1  17
BRANCH   5  19
ATOM     19  C   UNL     1       2.938   3.986  17.801  0.00  0.00    +0.000 A 
ATOM     20  C   UNL     1       1.613   4.352  17.571  0.00  0.00    +0.000 A 
ATOM     21  C   UNL     1       0.584   3.585  18.115  0.00  0.00    +0.000 A 
ATOM     22  C   UNL     1       0.921   2.469  18.863  0.00  0.00    +0.000 A 
ATOM     23  N   UNL     1       2.185   2.058  19.087  0.00  0.00    +0.000 NA
ATOM     24  C   UNL     1       3.160   2.832  18.549  0.00  0.00    +0.000 A 
ENDBRANCH   5  19
BRANCH   3  25
ATOM     25  C   UNL     1       7.222   5.026  15.798  0.00  0.00    +0.000 C 
BRANCH  25  26
ATOM     26  C   UNL     1       7.063   4.702  14.331  0.00  0.00    +0.000 A 
ATOM     27  C   UNL     1       7.849   5.345  13.362  0.00  0.00    +0.000 A 
ATOM     28  C   UNL     1       7.706   5.038  12.007  0.00  0.00    +0.000 A 
ATOM     29  C   UNL     1       6.802   4.057  11.602  0.00  0.00    +0.000 A 
ATOM     30  C   UNL     1       6.036   3.388  12.554  0.00  0.00    +0.000 A 
ATOM     31  C   UNL     1       6.155   3.718  13.907  0.00  0.00    +0.000 A 
ENDBRANCH  25  26
ENDBRANCH   3  25
TORSDOF 4
ENDMDL
MODEL 4
REMARK VINA RESULT:      -8.1      4.794      9.362
REMARK  Name = 
REMARK  4 active torsions:
REMARK  status: ('A' for Active; 'I' for Inactive)
REMARK    1  A    between atoms: C_12  and  C_13
REMARK    2  A    between atoms: N_15  and  C_16
REMARK    3  A    between atoms: C_16  and  C_17
REMARK    4  A    between atoms: C_24  and  C_25
REMARK                            x       y       z     vdW  Elec       q    Type
REMARK                         _______ _______ _______ _____ _____    ______ ____
ROOT
ATOM      1  C   UNL     1       4.067   6.228  17.166  0.00  0.00    +0.000 A 
ATOM      2  C   UNL     1       5.284   6.488  16.590  0.00  0.00    +0.000 A 
ATOM      3  N   UNL     1       5.926   5.282  16.509  0.00  0.00    +0.000 N 
ATOM      4  N   UNL     1       5.189   4.256  16.990  0.00  0.00    +0.000 NA
ATOM      5  C   UNL     1       4.037   4.826  17.394  0.00  0.00    +0.000 A 
ENDROOT
BRANCH   1  17
ATOM      6  O   UNL     1       3.759   5.956  20.113  0.00  0.00    +0.000 OA
ATOM      7  C   UNL     1       2.902   6.796  19.899  0.00  0.00    +0.000 C 
ATOM      8  N   UNL     1       2.081   7.369  20.851  0.00  0.00    +0.000 N 
ATOM      9  C   UNL     1       1.263   8.342  20.294  0.00  0.00    +0.000 A 
ATOM     10  C   UNL     1       0.364   9.129  20.980  0.00  0.00    +0.000 A 
ATOM     11  C   UNL     1      -0.346  10.073  20.240  0.00  0.00    +0.000 A 
ATOM     12  C   UNL     1      -0.142  10.196  18.852  0.00  0.00    +0.000 A 
ATOM     13 CL   UNL     1      -1.033  11.383  17.980  0.00  0.00    +0.000 Cl
ATOM     14  C   UNL     1       0.774   9.379  18.173  0.00  0.00    +0.000 A 
ATOM     15  C   UNL     1       1.480   8.453  18.916  0.00  0.00    +0.000 A 
ATOM     16  C   UNL     1       2.527   7.473  18.607  0.00  0.00    +0.000 C 
ATOM     17  C   UNL     1       3.077   7.214  17.409  0.00  0.00    +0.000 C 
ATOM     18  H   UNL     1       2.131   7.116  21.820  0.00  0.00    +0.000 HD
ENDBRANCH   1  17
BRANCH   5  19
ATOM     19  C   UNL     1       2.930   4.028  17.904  0.00  0.00    +0.000 A 
ATOM     20  C   UNL     1       3.131   2.967  18.784  0.00  0.00    +0.000 A 
ATOM     21  C   UNL     1       2.047   2.185  19.177  0.00  0.00    +0.000 A 
ATOM     22  C   UNL     1       0.793   2.501  18.681  0.00  0.00    +0.000 A 
ATOM     23  N   UNL     1       0.544   3.536  17.853  0.00  0.00    +0.000 NA
ATOM     24  C   UNL     1       1.623   4.270  17.486  0.00  0.00    +0.000 A 
ENDBRANCH   5  19
BRANCH   3  25
ATOM     25  C   UNL     1       7.191   5.015  15.825  0.00  0.00    +0.000 C 
BRANCH  25  26
ATOM     26  C   UNL     1       7.020   4.652  14.369  0.00  0.00    +0.000 A 
ATOM     27  C   UNL     1       6.031   3.742  13.965  0.00  0.00    +0.000 A 
ATOM     28  C   UNL     1       5.869   3.414  12.617  0.00  0.00    +0.000 A 
ATOM     29  C   UNL     1       6.666   4.021  11.647  0.00  0.00    +0.000 A 
ATOM     30  C   UNL     1       7.632   4.950  12.029  0.00  0.00    +0.000 A 
ATOM     31  C   UNL     1       7.817   5.253  13.380  0.00  0.00    +0.000 A 
ENDBRANCH  25  26
ENDBRANCH   3  25
TORSDOF 4
ENDMDL
MODEL 5
REMARK VINA RESULT:      -8.0      3.610      6.909
REMARK  Name = 
REMARK  4 active torsions:
REMARK  status: ('A' for Active; 'I' for Inactive)
REMARK    1  A    between atoms: C_12  and  C_13
REMARK    2  A    between atoms: N_15  and  C_16
REMARK    3  A    between atoms: C_16  and  C_17
REMARK    4  A    between atoms: C_24  and  C_25
REMARK                            x       y       z     vdW  Elec       q    Type
REMARK                         _______ _______ _______ _____ _____    ______ ____
ROOT
ATOM      1  C   UNL     1       2.403   6.673  18.747  0.00  0.00    +0.000 A 
ATOM      2  C   UNL     1       2.214   8.019  18.926  0.00  0.00    +0.000 A 
ATOM      3  N   UNL     1       1.611   8.155  20.146  0.00  0.00    +0.000 N 
ATOM      4  N   UNL     1       1.409   6.974  20.772  0.00  0.00    +0.000 NA
ATOM      5  C   UNL     1       1.899   6.051  19.921  0.00  0.00    +0.000 A 
ENDROOT
BRANCH   1  17
ATOM      6  O   UNL     1       5.076   6.017  19.878  0.00  0.00    +0.000 OA
ATOM      7  C   UNL     1       5.260   5.678  18.721  0.00  0.00    +0.000 C 
ATOM      8  N   UNL     1       6.435   5.161  18.212  0.00  0.00    +0.000 N 
ATOM      9  C   UNL     1       6.295   4.811  16.875  0.00  0.00    +0.000 A 
ATOM     10  C   UNL     1       7.265   4.227  16.089  0.00  0.00    +0.000 A 
ATOM     11  C   UNL     1       6.917   3.925  14.774  0.00  0.00    +0.000 A 
ATOM     12  C   UNL     1       5.627   4.218  14.289  0.00  0.00    +0.000 A 
ATOM     13 CL   UNL     1       5.239   3.817  12.660  0.00  0.00    +0.000 Cl
ATOM     14  C   UNL     1       4.658   4.818  15.105  0.00  0.00    +0.000 A 
ATOM     15  C   UNL     1       5.008   5.106  16.411  0.00  0.00    +0.000 A 
ATOM     16  C   UNL     1       4.299   5.673  17.561  0.00  0.00    +0.000 C 
ATOM     17  C   UNL     1       3.027   6.103  17.608  0.00  0.00    +0.000 C 
ATOM     18  H   UNL     1       7.251   5.030  18.779  0.00  0.00    +0.000 HD
ENDBRANCH   1  17
BRANCH   5  19
ATOM     19  C   UNL     1       1.944   4.638  20.272  0.00  0.00    +0.000 A 
ATOM     20  C   UNL     1       1.453   3.651  19.419  0.00  0.00    +0.000 A 
ATOM     21  C   UNL     1       1.446   2.322  19.839  0.00  0.00    +0.000 A 
ATOM     22  C   UNL     1       1.941   2.027  21.098  0.00  0.00    +0.000 A 
ATOM     23  N   UNL     1       2.454   2.941  21.945  0.00  0.00    +0.000 NA
ATOM     24  C   UNL     1       2.439   4.224  21.507  0.00  0.00    +0.000 A 
ENDBRANCH   5  19
BRANCH   3  25
ATOM     25  C   UNL     1       1.348   9.409  20.852  0.00  0.00    +0.000 C 
BRANCH  25  26
ATOM     26  C   UNL     1       0.570  10.408  20.030  0.00  0.00    +0.000 A 
ATOM     27  C   UNL     1       1.138  11.638  19.664  0.00  0.00    +0.000 A 
ATOM     28  C   UNL     1       0.419  12.557  18.896  0.00  0.00    +0.000 A 
ATOM     29  C   UNL     1      -0.863  12.244  18.447  0.00  0.00    +0.000 A 
ATOM     30  C   UNL     1      -1.430  11.015  18.776  0.00  0.00    +0.000 A 
ATOM     31  C   UNL     1      -0.724  10.109  19.572  0.00  0.00    +0.000 A 
ENDBRANCH  25  26
ENDBRANCH   3  25
TORSDOF 4
ENDMDL
MODEL 6
REMARK VINA RESULT:      -8.0      3.097      4.027
REMARK  Name = 
REMARK  4 active torsions:
REMARK  status: ('A' for Active; 'I' for Inactive)
REMARK    1  A    between atoms: C_12  and  C_13
REMARK    2  A    between atoms: N_15  and  C_16
REMARK    3  A    between atoms: C_16  and  C_17
REMARK    4  A    between atoms: C_24  and  C_25
REMARK                            x       y       z     vdW  Elec       q    Type
REMARK                         _______ _______ _______ _____ _____    ______ ____
ROOT
ATOM      1  C   UNL     1       0.305  11.204  19.714  0.00  0.00    +0.000 A 
ATOM      2  C   UNL     1       0.661  11.911  20.833  0.00  0.00    +0.000 A 
ATOM      3  N   UNL     1      -0.422  12.686  21.147  0.00  0.00    +0.000 N 
ATOM      4  N   UNL     1      -1.461  12.513  20.301  0.00  0.00    +0.000 NA
ATOM      5  C   UNL     1      -1.027  11.596  19.414  0.00  0.00    +0.000 A 
ENDROOT
BRANCH   1  17
ATOM      6  O   UNL     1       0.081   8.924  21.613  0.00  0.00    +0.000 OA
ATOM      7  C   UNL     1       0.887   8.452  20.828  0.00  0.00    +0.000 C 
ATOM      8  N   UNL     1       1.463   7.200  20.922  0.00  0.00    +0.000 N 
ATOM      9  C   UNL     1       2.284   6.938  19.834  0.00  0.00    +0.000 A 
ATOM     10  C   UNL     1       2.967   5.765  19.603  0.00  0.00    +0.000 A 
ATOM     11  C   UNL     1       3.718   5.689  18.432  0.00  0.00    +0.000 A 
ATOM     12  C   UNL     1       3.767   6.778  17.540  0.00  0.00    +0.000 A 
ATOM     13 CL   UNL     1       4.700   6.634  16.100  0.00  0.00    +0.000 Cl
ATOM     14  C   UNL     1       3.068   7.966  17.798  0.00  0.00    +0.000 A 
ATOM     15  C   UNL     1       2.319   8.029  18.957  0.00  0.00    +0.000 A 
ATOM     16  C   UNL     1       1.437   9.037  19.554  0.00  0.00    +0.000 C 
ATOM     17  C   UNL     1       1.144  10.257  19.073  0.00  0.00    +0.000 C 
ATOM     18  H   UNL     1       1.255   6.572  21.676  0.00  0.00    +0.000 HD
ENDBRANCH   1  17
BRANCH   5  19
ATOM     19  C   UNL     1      -1.900  11.070  18.373  0.00  0.00    +0.000 A 
ATOM     20  C   UNL     1      -1.462  10.114  17.458  0.00  0.00    +0.000 A 
ATOM     21  C   UNL     1      -2.311   9.706  16.432  0.00  0.00    +0.000 A 
ATOM     22  C   UNL     1      -3.577  10.263  16.364  0.00  0.00    +0.000 A 
ATOM     23  N   UNL     1      -4.056  11.166  17.243  0.00  0.00    +0.000 NA
ATOM     24  C   UNL     1      -3.201  11.546  18.223  0.00  0.00    +0.000 A 
ENDBRANCH   5  19
BRANCH   3  25
ATOM     25  C   UNL     1      -0.589  13.500  22.351  0.00  0.00    +0.000 C 
BRANCH  25  26
ATOM     26  C   UNL     1      -1.988  13.452  22.917  0.00  0.00    +0.000 A 
ATOM     27  C   UNL     1      -2.505  12.266  23.462  0.00  0.00    +0.000 A 
ATOM     28  C   UNL     1      -3.796  12.226  23.992  0.00  0.00    +0.000 A 
ATOM     29  C   UNL     1      -4.578  13.380  24.022  0.00  0.00    +0.000 A 
ATOM     30  C   UNL     1      -4.069  14.572  23.513  0.00  0.00    +0.000 A 
ATOM     31  C   UNL     1      -2.790  14.606  22.952  0.00  0.00    +0.000 A 
ENDBRANCH  25  26
ENDBRANCH   3  25
TORSDOF 4
ENDMDL
MODEL 7
REMARK VINA RESULT:      -8.0      2.991      7.633
REMARK  Name = 
REMARK  4 active torsions:
REMARK  status: ('A' for Active; 'I' for Inactive)
REMARK    1  A    between atoms: C_12  and  C_13
REMARK    2  A    between atoms: N_15  and  C_16
REMARK    3  A    between atoms: C_16  and  C_17
REMARK    4  A    between atoms: C_24  and  C_25
REMARK                            x       y       z     vdW  Elec       q    Type
REMARK                         _______ _______ _______ _____ _____    ______ ____
ROOT
ATOM      1  C   UNL     1       0.179  11.401  20.030  0.00  0.00    +0.000 A 
ATOM      2  C   UNL     1       1.009  10.697  20.864  0.00  0.00    +0.000 A 
ATOM      3  N   UNL     1       0.582   9.398  20.811  0.00  0.00    +0.000 N 
ATOM      4  N   UNL     1      -0.471   9.221  19.982  0.00  0.00    +0.000 NA
ATOM      5  C   UNL     1      -0.726  10.449  19.489  0.00  0.00    +0.000 A 
ENDROOT
BRANCH   1  17
ATOM      6  O   UNL     1       2.506  11.409  18.175  0.00  0.00    +0.000 OA
ATOM      7  C   UNL     1       2.323  12.611  18.272  0.00  0.00    +0.000 C 
ATOM      8  N   UNL     1       3.070  13.591  17.648  0.00  0.00    +0.000 N 
ATOM      9  C   UNL     1       2.561  14.856  17.907  0.00  0.00    +0.000 A 
ATOM     10  C   UNL     1       3.048  16.041  17.399  0.00  0.00    +0.000 A 
ATOM     11  C   UNL     1       2.376  17.208  17.757  0.00  0.00    +0.000 A 
ATOM     12  C   UNL     1       1.254  17.156  18.608  0.00  0.00    +0.000 A 
ATOM     13 CL   UNL     1       0.449  18.622  19.015  0.00  0.00    +0.000 Cl
ATOM     14  C   UNL     1       0.780  15.939  19.119  0.00  0.00    +0.000 A 
ATOM     15  C   UNL     1       1.447  14.786  18.751  0.00  0.00    +0.000 A 
ATOM     16  C   UNL     1       1.252  13.358  19.021  0.00  0.00    +0.000 C 
ATOM     17  C   UNL     1       0.298  12.792  19.779  0.00  0.00    +0.000 C 
ATOM     18  H   UNL     1       3.849  13.372  17.056  0.00  0.00    +0.000 HD
ENDBRANCH   1  17
BRANCH   5  19
ATOM     19  C   UNL     1      -1.753  10.666  18.479  0.00  0.00    +0.000 A 
ATOM     20  C   UNL     1      -1.676  10.087  17.214  0.00  0.00    +0.000 A 
ATOM     21  C   UNL     1      -2.642  10.394  16.258  0.00  0.00    +0.000 A 
ATOM     22  C   UNL     1      -3.661  11.265  16.607  0.00  0.00    +0.000 A 
ATOM     23  N   UNL     1      -3.795  11.825  17.826  0.00  0.00    +0.000 NA
ATOM     24  C   UNL     1      -2.834  11.510  18.729  0.00  0.00    +0.000 A 
ENDBRANCH   5  19
BRANCH   3  25
ATOM     25  C   UNL     1       1.246   8.239  21.406  0.00  0.00    +0.000 C 
BRANCH  25  26
ATOM     26  C   UNL     1       1.717   7.230  20.387  0.00  0.00    +0.000 A 
ATOM     27  C   UNL     1       2.285   7.645  19.172  0.00  0.00    +0.000 A 
ATOM     28  C   UNL     1       2.728   6.710  18.234  0.00  0.00    +0.000 A 
ATOM     29  C   UNL     1       2.648   5.346  18.511  0.00  0.00    +0.000 A 
ATOM     30  C   UNL     1       2.115   4.918  19.725  0.00  0.00    +0.000 A 
ATOM     31  C   UNL     1       1.641   5.852  20.650  0.00  0.00    +0.000 A 
ENDBRANCH  25  26
ENDBRANCH   3  25
TORSDOF 4
ENDMDL
MODEL 8
REMARK VINA RESULT:      -7.8      2.957      7.788
REMARK  Name = 
REMARK  4 active torsions:
REMARK  status: ('A' for Active; 'I' for Inactive)
REMARK    1  A    between atoms: C_12  and  C_13
REMARK    2  A    between atoms: N_15  and  C_16
REMARK    3  A    between atoms: C_16  and  C_17
REMARK    4  A    between atoms: C_24  and  C_25
REMARK                            x       y       z     vdW  Elec       q    Type
REMARK                         _______ _______ _______ _____ _____    ______ ____
ROOT
ATOM      1  C   UNL     1      -0.007  11.780  19.422  0.00  0.00    +0.000 A 
ATOM      2  C   UNL     1       0.897  11.208  20.278  0.00  0.00    +0.000 A 
ATOM      3  N   UNL     1       0.485   9.914  20.449  0.00  0.00    +0.000 N 
ATOM      4  N   UNL     1      -0.629   9.616  19.744  0.00  0.00    +0.000 NA
ATOM      5  C   UNL     1      -0.940  10.758  19.101  0.00  0.00    +0.000 A 
ENDROOT
BRANCH   1  17
ATOM      6  O   UNL     1      -1.753  13.129  21.419  0.00  0.00    +0.000 OA
ATOM      7  C   UNL     1      -1.493  14.082  20.704  0.00  0.00    +0.000 C 
ATOM      8  N   UNL     1      -1.957  15.371  20.882  0.00  0.00    +0.000 N 
ATOM      9  C   UNL     1      -1.421  16.237  19.938  0.00  0.00    +0.000 A 
ATOM     10  C   UNL     1      -1.646  17.594  19.869  0.00  0.00    +0.000 A 
ATOM     11  C   UNL     1      -0.988  18.295  18.860  0.00  0.00    +0.000 A 
ATOM     12  C   UNL     1      -0.139  17.623  17.958  0.00  0.00    +0.000 A 
ATOM     13 CL   UNL     1       0.661  18.532  16.734  0.00  0.00    +0.000 Cl
ATOM     14  C   UNL     1       0.071  16.240  18.044  0.00  0.00    +0.000 A 
ATOM     15  C   UNL     1      -0.579  15.554  19.053  0.00  0.00    +0.000 A 
ATOM     16  C   UNL     1      -0.593  14.158  19.499  0.00  0.00    +0.000 C 
ATOM     17  C   UNL     1       0.072  13.120  18.963  0.00  0.00    +0.000 C 
ATOM     18  H   UNL     1      -2.569  15.619  21.637  0.00  0.00    +0.000 HD
ENDBRANCH   1  17
BRANCH   5  19
ATOM     19  C   UNL     1      -2.048  10.824  18.158  0.00  0.00    +0.000 A 
ATOM     20  C   UNL     1      -1.979  10.232  16.898  0.00  0.00    +0.000 A 
ATOM     21  C   UNL     1      -3.035  10.395  16.004  0.00  0.00    +0.000 A 
ATOM     22  C   UNL     1      -4.131  11.139  16.408  0.00  0.00    +0.000 A 
ATOM     23  N   UNL     1      -4.258  11.704  17.626  0.00  0.00    +0.000 NA
ATOM     24  C   UNL     1      -3.209  11.531  18.467  0.00  0.00    +0.000 A 
ENDBRANCH   5  19
BRANCH   3  25
ATOM     25  C   UNL     1       1.211   8.855  21.151  0.00  0.00    +0.000 C 
BRANCH  25  26
ATOM     26  C   UNL     1       1.726   7.773  20.232  0.00  0.00    +0.000 A 
ATOM     27  C   UNL     1       1.731   6.428  20.635  0.00  0.00    +0.000 A 
ATOM     28  C   UNL     1       2.200   5.428  19.781  0.00  0.00    +0.000 A 
ATOM     29  C   UNL     1       2.634   5.750  18.496  0.00  0.00    +0.000 A 
ATOM     30  C   UNL     1       2.607   7.076  18.069  0.00  0.00    +0.000 A 
ATOM     31  C   UNL     1       2.169   8.082  18.935  0.00  0.00    +0.000 A 
ENDBRANCH  25  26
ENDBRANCH   3  25
TORSDOF 4
ENDMDL
MODEL 9
REMARK VINA RESULT:      -7.8      0.573      1.261
REMARK  Name = 
REMARK  4 active torsions:
REMARK  status: ('A' for Active; 'I' for Inactive)
REMARK    1  A    between atoms: C_12  and  C_13
REMARK    2  A    between atoms: N_15  and  C_16
REMARK    3  A    between atoms: C_16  and  C_17
REMARK    4  A    between atoms: C_24  and  C_25
REMARK                            x       y       z     vdW  Elec       q    Type
REMARK                         _______ _______ _______ _____ _____    ______ ____
ROOT
ATOM      1  C   UNL     1       0.855  11.837  18.602  0.00  0.00    +0.000 A 
ATOM      2  C   UNL     1       1.593  12.916  19.014  0.00  0.00    +0.000 A 
ATOM      3  N   UNL     1       0.720  13.967  19.075  0.00  0.00    +0.000 N 
ATOM      4  N   UNL     1      -0.543  13.627  18.735  0.00  0.00    +0.000 NA
ATOM      5  C   UNL     1      -0.475  12.313  18.447  0.00  0.00    +0.000 A 
ENDROOT
BRANCH   1  17
ATOM      6  O   UNL     1       0.026  10.592  21.175  0.00  0.00    +0.000 OA
ATOM      7  C   UNL     1       0.654   9.663  20.696  0.00  0.00    +0.000 C 
ATOM      8  N   UNL     1       0.854   8.435  21.296  0.00  0.00    +0.000 N 
ATOM      9  C   UNL     1       1.551   7.572  20.460  0.00  0.00    +0.000 A 
ATOM     10  C   UNL     1       1.872   6.262  20.740  0.00  0.00    +0.000 A 
ATOM     11  C   UNL     1       2.552   5.551  19.753  0.00  0.00    +0.000 A 
ATOM     12  C   UNL     1       2.892   6.167  18.533  0.00  0.00    +0.000 A 
ATOM     13 CL   UNL     1       3.723   5.246  17.339  0.00  0.00    +0.000 Cl
ATOM     14  C   UNL     1       2.560   7.504  18.271  0.00  0.00    +0.000 A 
ATOM     15  C   UNL     1       1.878   8.199  19.252  0.00  0.00    +0.000 A 
ATOM     16  C   UNL     1       1.326   9.553  19.353  0.00  0.00    +0.000 C 
ATOM     17  C   UNL     1       1.382  10.531  18.433  0.00  0.00    +0.000 C 
ATOM     18  H   UNL     1       0.490   8.218  22.204  0.00  0.00    +0.000 HD
ENDBRANCH   1  17
BRANCH   5  19
ATOM     19  C   UNL     1      -1.666  11.543  18.112  0.00  0.00    +0.000 A 
ATOM     20  C   UNL     1      -2.914  11.845  18.653  0.00  0.00    +0.000 A 
ATOM     21  C   UNL     1      -4.004  11.027  18.363  0.00  0.00    +0.000 A 
ATOM     22  C   UNL     1      -3.807   9.938  17.532  0.00  0.00    +0.000 A 
ATOM     23  N   UNL     1      -2.627   9.623  16.960  0.00  0.00    +0.000 NA
ATOM     24  C   UNL     1      -1.587  10.436  17.269  0.00  0.00    +0.000 A 
ENDBRANCH   5  19
BRANCH   3  25
ATOM     25  C   UNL     1       0.998  15.299  19.613  0.00  0.00    +0.000 C 
BRANCH  25  26
ATOM     26  C   UNL     1       0.838  16.402  18.595  0.00  0.00    +0.000 A 
ATOM     27  C   UNL     1      -0.412  17.002  18.373  0.00  0.00    +0.000 A 
ATOM     28  C   UNL     1      -0.556  18.028  17.437  0.00  0.00    +0.000 A 
ATOM     29  C   UNL     1       0.553  18.497  16.735  0.00  0.00    +0.000 A 
ATOM     30  C   UNL     1       1.806  17.933  16.965  0.00  0.00    +0.000 A 
ATOM     31  C   UNL     1       1.945  16.885  17.877  0.00  0.00    +0.000 A 
ENDBRANCH  25  26
ENDBRANCH   3  25
TORSDOF 4
ENDMDL
