MODEL 1
REMARK VINA RESULT:      -7.4      0.000      0.000
REMARK  Name = 
REMARK  9 active torsions:
REMARK  status: ('A' for Active; 'I' for Inactive)
REMARK    1  A    between atoms: C_2  and  O_3
REMARK    2  A    between atoms: C_2  and  C_4
REMARK    3  A    between atoms: C_4  and  C_5
REMARK    4  A    between atoms: C_5  and  C_6
REMARK    5  A    between atoms: C_6  and  C_7
REMARK    6  A    between atoms: C_7  and  C_8
REMARK    7  A    between atoms: C_14  and  C_15
REMARK    8  A    between atoms: C_15  and  N_16
REMARK    9  A    between atoms: C_21  and  O_22
REMARK                            x       y       z     vdW  Elec       q    Type
REMARK                         _______ _______ _______ _____ _____    ______ ____
ROOT
ATOM      1  C   UNL     1       0.199  10.418  19.725  0.00  0.00    +0.000 A 
ATOM      2  C   UNL     1      -0.402  10.262  20.912  0.00  0.00    +0.000 A 
ATOM      3  C   UNL     1      -0.116   9.146  21.822  0.00  0.00    +0.000 A 
ATOM      4  O   UNL     1      -0.710   9.039  22.888  0.00  0.00    +0.000 OA
ATOM      5  O   UNL     1       0.826   8.224  21.398  0.00  0.00    +0.000 OA
ATOM      6  C   UNL     1       1.445   8.297  20.123  0.00  0.00    +0.000 A 
ATOM      7  C   UNL     1       2.227   7.189  19.712  0.00  0.00    +0.000 A 
ATOM      8  C   UNL     1       2.687   7.233  18.393  0.00  0.00    +0.000 A 
ATOM      9  C   UNL     1       2.558   8.375  17.603  0.00  0.00    +0.000 A 
ATOM     10  C   UNL     1       1.834   9.469  18.065  0.00  0.00    +0.000 A 
ATOM     11  C   UNL     1       1.194   9.415  19.304  0.00  0.00    +0.000 A 
ENDROOT
BRANCH   8  12
ATOM     12  O   UNL     1       3.191   6.144  17.743  0.00  0.00    +0.000 OA
ATOM     13  H   UNL     1       2.452   5.737  17.259  0.00  0.00    +0.000 HD
ENDBRANCH   8  12
BRANCH   1  14
ATOM     14  C   UNL     1      -0.215  11.545  18.801  0.00  0.00    +0.000 C 
BRANCH  14  15
ATOM     15  C   UNL     1      -1.622  11.306  18.234  0.00  0.00    +0.000 C 
BRANCH  15  16
ATOM     16  C   UNL     1      -1.684  10.040  17.379  0.00  0.00    +0.000 C 
BRANCH  16  17
ATOM     17  C   UNL     1      -3.037   9.914  16.670  0.00  0.00    +0.000 C 
BRANCH  17  19
ATOM     18  O   UNL     1      -2.575  10.025  14.291  0.00  0.00    +0.000 OA
ATOM     19  C   UNL     1      -3.018  10.543  15.306  0.00  0.00    +0.000 C 
BRANCH  19  20
ATOM     20  O   UNL     1      -3.561  11.787  15.301  0.00  0.00    +0.000 OA
ATOM     21  H   UNL     1      -4.484  11.813  15.607  0.00  0.00    +0.000 HD
ENDBRANCH  19  20
ENDBRANCH  17  19
ENDBRANCH  16  17
ENDBRANCH  15  16
ENDBRANCH  14  15
ENDBRANCH   1  14
BRANCH   7  22
ATOM     22  C   UNL     1       2.423   5.986  20.621  0.00  0.00    +0.000 C 
BRANCH  22  23
ATOM     23  N   UNL     1       2.237   4.640  20.090  0.00  0.00    +0.000 NA
ATOM     24  C   UNL     1       0.953   3.984  20.265  0.00  0.00    +0.000 C 
ATOM     25  C   UNL     1       1.245   2.801  21.169  0.00  0.00    +0.000 C 
ATOM     26  C   UNL     1       2.688   2.430  20.872  0.00  0.00    +0.000 C 
ATOM     27  C   UNL     1       3.294   3.650  20.190  0.00  0.00    +0.000 C 
ENDBRANCH  22  23
ENDBRANCH   7  22
TORSDOF 9
ENDMDL
MODEL 2
REMARK VINA RESULT:      -7.2      5.348      7.966
REMARK  Name = 
REMARK  9 active torsions:
REMARK  status: ('A' for Active; 'I' for Inactive)
REMARK    1  A    between atoms: C_2  and  O_3
REMARK    2  A    between atoms: C_2  and  C_4
REMARK    3  A    between atoms: C_4  and  C_5
REMARK    4  A    between atoms: C_5  and  C_6
REMARK    5  A    between atoms: C_6  and  C_7
REMARK    6  A    between atoms: C_7  and  C_8
REMARK    7  A    between atoms: C_14  and  C_15
REMARK    8  A    between atoms: C_15  and  N_16
REMARK    9  A    between atoms: C_21  and  O_22
REMARK                            x       y       z     vdW  Elec       q    Type
REMARK                         _______ _______ _______ _____ _____    ______ ____
ROOT
ATOM      1  C   UNL     1       7.493   7.064  18.135  0.00  0.00    +0.000 A 
ATOM      2  C   UNL     1       8.217   6.620  19.172  0.00  0.00    +0.000 A 
ATOM      3  C   UNL     1       7.895   5.399  19.920  0.00  0.00    +0.000 A 
ATOM      4  O   UNL     1       8.579   5.049  20.873  0.00  0.00    +0.000 OA
ATOM      5  O   UNL     1       6.775   4.696  19.508  0.00  0.00    +0.000 OA
ATOM      6  C   UNL     1       5.929   5.151  18.463  0.00  0.00    +0.000 A 
ATOM      7  C   UNL     1       4.702   4.469  18.271  0.00  0.00    +0.000 A 
ATOM      8  C   UNL     1       3.832   5.046  17.342  0.00  0.00    +0.000 A 
ATOM      9  C   UNL     1       4.224   6.098  16.515  0.00  0.00    +0.000 A 
ATOM     10  C   UNL     1       5.464   6.704  16.692  0.00  0.00    +0.000 A 
ATOM     11  C   UNL     1       6.304   6.292  17.727  0.00  0.00    +0.000 A 
ENDROOT
BRANCH   8  12
ATOM     12  O   UNL     1       2.514   4.706  17.245  0.00  0.00    +0.000 OA
ATOM     13  H   UNL     1       2.011   5.386  17.725  0.00  0.00    +0.000 HD
ENDBRANCH   8  12
BRANCH   1  14
ATOM     14  C   UNL     1       7.836   8.381  17.471  0.00  0.00    +0.000 C 
BRANCH  14  15
ATOM     15  C   UNL     1       8.626   9.290  18.424  0.00  0.00    +0.000 C 
BRANCH  15  16
ATOM     16  C   UNL     1       8.675  10.734  17.925  0.00  0.00    +0.000 C 
BRANCH  16  17
ATOM     17  C   UNL     1      10.099  11.298  17.990  0.00  0.00    +0.000 C 
BRANCH  17  19
ATOM     18  O   UNL     1      11.010  13.535  18.211  0.00  0.00    +0.000 OA
ATOM     19  C   UNL     1      10.121  12.791  17.825  0.00  0.00    +0.000 C 
BRANCH  19  20
ATOM     20  O   UNL     1       9.022  13.257  17.179  0.00  0.00    +0.000 OA
ATOM     21  H   UNL     1       9.226  13.831  16.421  0.00  0.00    +0.000 HD
ENDBRANCH  19  20
ENDBRANCH  17  19
ENDBRANCH  16  17
ENDBRANCH  15  16
ENDBRANCH  14  15
ENDBRANCH   1  14
BRANCH   7  22
ATOM     22  C   UNL     1       4.326   3.272  19.130  0.00  0.00    +0.000 C 
BRANCH  22  23
ATOM     23  N   UNL     1       3.323   3.420  20.179  0.00  0.00    +0.000 NA
ATOM     24  C   UNL     1       2.159   2.550  20.169  0.00  0.00    +0.000 C 
ATOM     25  C   UNL     1       0.985   3.480  19.924  0.00  0.00    +0.000 C 
ATOM     26  C   UNL     1       1.413   4.812  20.517  0.00  0.00    +0.000 C 
ATOM     27  C   UNL     1       2.929   4.735  20.650  0.00  0.00    +0.000 C 
ENDBRANCH  22  23
ENDBRANCH   7  22
TORSDOF 9
ENDMDL
MODEL 3
REMARK VINA RESULT:      -7.1      4.652      7.650
REMARK  Name = 
REMARK  9 active torsions:
REMARK  status: ('A' for Active; 'I' for Inactive)
REMARK    1  A    between atoms: C_2  and  O_3
REMARK    2  A    between atoms: C_2  and  C_4
REMARK    3  A    between atoms: C_4  and  C_5
REMARK    4  A    between atoms: C_5  and  C_6
REMARK    5  A    between atoms: C_6  and  C_7
REMARK    6  A    between atoms: C_7  and  C_8
REMARK    7  A    between atoms: C_14  and  C_15
REMARK    8  A    between atoms: C_15  and  N_16
REMARK    9  A    between atoms: C_21  and  O_22
REMARK                            x       y       z     vdW  Elec       q    Type
REMARK                         _______ _______ _______ _____ _____    ______ ____
ROOT
ATOM      1  C   UNL     1       6.688   7.076  17.531  0.00  0.00    +0.000 A 
ATOM      2  C   UNL     1       7.683   6.179  17.590  0.00  0.00    +0.000 A 
ATOM      3  C   UNL     1       7.465   4.728  17.588  0.00  0.00    +0.000 A 
ATOM      4  O   UNL     1       8.410   3.952  17.665  0.00  0.00    +0.000 OA
ATOM      5  O   UNL     1       6.150   4.298  17.524  0.00  0.00    +0.000 OA
ATOM      6  C   UNL     1       5.052   5.196  17.529  0.00  0.00    +0.000 A 
ATOM      7  C   UNL     1       3.755   4.643  17.677  0.00  0.00    +0.000 A 
ATOM      8  C   UNL     1       2.721   5.569  17.835  0.00  0.00    +0.000 A 
ATOM      9  C   UNL     1       2.919   6.938  17.657  0.00  0.00    +0.000 A 
ATOM     10  C   UNL     1       4.200   7.439  17.452  0.00  0.00    +0.000 A 
ATOM     11  C   UNL     1       5.301   6.581  17.467  0.00  0.00    +0.000 A 
ENDROOT
BRANCH   8  12
ATOM     12  O   UNL     1       1.476   5.226  18.278  0.00  0.00    +0.000 OA
ATOM     13  H   UNL     1       1.601   4.650  19.052  0.00  0.00    +0.000 HD
ENDBRANCH   8  12
BRANCH   1  14
ATOM     14  C   UNL     1       6.987   8.557  17.629  0.00  0.00    +0.000 C 
BRANCH  14  15
ATOM     15  C   UNL     1       8.447   8.800  18.040  0.00  0.00    +0.000 C 
BRANCH  15  16
ATOM     16  C   UNL     1       8.624  10.142  18.750  0.00  0.00    +0.000 C 
BRANCH  16  17
ATOM     17  C   UNL     1       9.527  11.083  17.944  0.00  0.00    +0.000 C 
BRANCH  17  19
ATOM     18  O   UNL     1       9.367  13.443  18.483  0.00  0.00    +0.000 OA
ATOM     19  C   UNL     1       8.961  12.472  17.861  0.00  0.00    +0.000 C 
BRANCH  19  20
ATOM     20  O   UNL     1       7.917  12.556  16.997  0.00  0.00    +0.000 OA
ATOM     21  H   UNL     1       7.967  11.924  16.259  0.00  0.00    +0.000 HD
ENDBRANCH  19  20
ENDBRANCH  17  19
ENDBRANCH  16  17
ENDBRANCH  15  16
ENDBRANCH  14  15
ENDBRANCH   1  14
BRANCH   7  22
ATOM     22  C   UNL     1       3.551   3.141  17.789  0.00  0.00    +0.000 C 
BRANCH  22  23
ATOM     23  N   UNL     1       3.222   2.549  19.081  0.00  0.00    +0.000 NA
ATOM     24  C   UNL     1       1.915   1.943  19.268  0.00  0.00    +0.000 C 
ATOM     25  C   UNL     1       1.234   2.811  20.311  0.00  0.00    +0.000 C 
ATOM     26  C   UNL     1       2.368   3.368  21.154  0.00  0.00    +0.000 C 
ATOM     27  C   UNL     1       3.629   3.192  20.317  0.00  0.00    +0.000 C 
ENDBRANCH  22  23
ENDBRANCH   7  22
TORSDOF 9
ENDMDL
MODEL 4
REMARK VINA RESULT:      -7.1      3.161      5.198
REMARK  Name = 
REMARK  9 active torsions:
REMARK  status: ('A' for Active; 'I' for Inactive)
REMARK    1  A    between atoms: C_2  and  O_3
REMARK    2  A    between atoms: C_2  and  C_4
REMARK    3  A    between atoms: C_4  and  C_5
REMARK    4  A    between atoms: C_5  and  C_6
REMARK    5  A    between atoms: C_6  and  C_7
REMARK    6  A    between atoms: C_7  and  C_8
REMARK    7  A    between atoms: C_14  and  C_15
REMARK    8  A    between atoms: C_15  and  N_16
REMARK    9  A    between atoms: C_21  and  O_22
REMARK                            x       y       z     vdW  Elec       q    Type
REMARK                         _______ _______ _______ _____ _____    ______ ____
ROOT
ATOM      1  C   UNL     1       1.637   7.644  20.134  0.00  0.00    +0.000 A 
ATOM      2  C   UNL     1       1.668   8.710  19.322  0.00  0.00    +0.000 A 
ATOM      3  C   UNL     1       2.298   8.699  17.996  0.00  0.00    +0.000 A 
ATOM      4  O   UNL     1       2.316   9.709  17.303  0.00  0.00    +0.000 OA
ATOM      5  O   UNL     1       2.884   7.510  17.597  0.00  0.00    +0.000 OA
ATOM      6  C   UNL     1       2.945   6.368  18.438  0.00  0.00    +0.000 A 
ATOM      7  C   UNL     1       3.751   5.284  18.011  0.00  0.00    +0.000 A 
ATOM      8  C   UNL     1       3.909   4.250  18.938  0.00  0.00    +0.000 A 
ATOM      9  C   UNL     1       3.164   4.192  20.116  0.00  0.00    +0.000 A 
ATOM     10  C   UNL     1       2.335   5.250  20.473  0.00  0.00    +0.000 A 
ATOM     11  C   UNL     1       2.275   6.395  19.677  0.00  0.00    +0.000 A 
ENDROOT
BRANCH   8  12
ATOM     12  O   UNL     1       4.867   3.286  18.822  0.00  0.00    +0.000 OA
ATOM     13  H   UNL     1       4.519   2.488  19.256  0.00  0.00    +0.000 HD
ENDBRANCH   8  12
BRANCH   1  14
ATOM     14  C   UNL     1       1.049   7.758  21.525  0.00  0.00    +0.000 C 
BRANCH  14  15
ATOM     15  C   UNL     1      -0.148   8.719  21.540  0.00  0.00    +0.000 C 
BRANCH  15  16
ATOM     16  C   UNL     1      -0.011   9.784  22.628  0.00  0.00    +0.000 C 
BRANCH  16  17
ATOM     17  C   UNL     1      -0.615  11.120  22.178  0.00  0.00    +0.000 C 
BRANCH  17  19
ATOM     18  O   UNL     1      -0.386  11.809  19.864  0.00  0.00    +0.000 OA
ATOM     19  C   UNL     1       0.095  11.684  20.980  0.00  0.00    +0.000 C 
BRANCH  19  20
ATOM     20  O   UNL     1       1.368  12.061  21.262  0.00  0.00    +0.000 OA
ATOM     21  H   UNL     1       2.044  11.473  20.885  0.00  0.00    +0.000 HD
ENDBRANCH  19  20
ENDBRANCH  17  19
ENDBRANCH  16  17
ENDBRANCH  15  16
ENDBRANCH  14  15
ENDBRANCH   1  14
BRANCH   7  22
ATOM     22  C   UNL     1       4.491   5.331  16.684  0.00  0.00    +0.000 C 
BRANCH  22  23
ATOM     23  N   UNL     1       5.903   5.700  16.655  0.00  0.00    +0.000 NA
ATOM     24  C   UNL     1       6.898   4.666  16.425  0.00  0.00    +0.000 C 
ATOM     25  C   UNL     1       7.691   4.601  17.717  0.00  0.00    +0.000 C 
ATOM     26  C   UNL     1       7.611   6.004  18.294  0.00  0.00    +0.000 C 
ATOM     27  C   UNL     1       6.435   6.672  17.592  0.00  0.00    +0.000 C 
ENDBRANCH  22  23
ENDBRANCH   7  22
TORSDOF 9
ENDMDL
MODEL 5
REMARK VINA RESULT:      -7.1      4.706      8.061
REMARK  Name = 
REMARK  9 active torsions:
REMARK  status: ('A' for Active; 'I' for Inactive)
REMARK    1  A    between atoms: C_2  and  O_3
REMARK    2  A    between atoms: C_2  and  C_4
REMARK    3  A    between atoms: C_4  and  C_5
REMARK    4  A    between atoms: C_5  and  C_6
REMARK    5  A    between atoms: C_6  and  C_7
REMARK    6  A    between atoms: C_7  and  C_8
REMARK    7  A    between atoms: C_14  and  C_15
REMARK    8  A    between atoms: C_15  and  N_16
REMARK    9  A    between atoms: C_21  and  O_22
REMARK                            x       y       z     vdW  Elec       q    Type
REMARK                         _______ _______ _______ _____ _____    ______ ____
ROOT
ATOM      1  C   UNL     1       6.474   7.043  17.436  0.00  0.00    +0.000 A 
ATOM      2  C   UNL     1       7.485   6.165  17.383  0.00  0.00    +0.000 A 
ATOM      3  C   UNL     1       7.292   4.711  17.320  0.00  0.00    +0.000 A 
ATOM      4  O   UNL     1       8.252   3.951  17.295  0.00  0.00    +0.000 OA
ATOM      5  O   UNL     1       5.983   4.258  17.320  0.00  0.00    +0.000 OA
ATOM      6  C   UNL     1       4.872   5.133  17.444  0.00  0.00    +0.000 A 
ATOM      7  C   UNL     1       3.598   4.547  17.648  0.00  0.00    +0.000 A 
ATOM      8  C   UNL     1       2.561   5.443  17.922  0.00  0.00    +0.000 A 
ATOM      9  C   UNL     1       2.724   6.823  17.803  0.00  0.00    +0.000 A 
ATOM     10  C   UNL     1       3.981   7.359  17.540  0.00  0.00    +0.000 A 
ATOM     11  C   UNL     1       5.093   6.524  17.439  0.00  0.00    +0.000 A 
ENDROOT
BRANCH   8  12
ATOM     12  O   UNL     1       1.355   5.053  18.428  0.00  0.00    +0.000 OA
ATOM     13  H   UNL     1       1.522   4.709  19.323  0.00  0.00    +0.000 HD
ENDBRANCH   8  12
BRANCH   1  14
ATOM     14  C   UNL     1       6.754   8.523  17.591  0.00  0.00    +0.000 C 
BRANCH  14  15
ATOM     15  C   UNL     1       8.263   8.806  17.553  0.00  0.00    +0.000 C 
BRANCH  15  16
ATOM     16  C   UNL     1       8.781   9.320  18.896  0.00  0.00    +0.000 C 
BRANCH  16  17
ATOM     17  C   UNL     1       9.370  10.729  18.763  0.00  0.00    +0.000 C 
BRANCH  17  19
ATOM     18  O   UNL     1      11.283  11.616  19.962  0.00  0.00    +0.000 OA
ATOM     19  C   UNL     1      10.164  11.124  19.975  0.00  0.00    +0.000 C 
BRANCH  19  20
ATOM     20  O   UNL     1       9.498  10.879  21.133  0.00  0.00    +0.000 OA
ATOM     21  H   UNL     1       9.254  11.682  21.623  0.00  0.00    +0.000 HD
ENDBRANCH  19  20
ENDBRANCH  17  19
ENDBRANCH  16  17
ENDBRANCH  15  16
ENDBRANCH  14  15
ENDBRANCH   1  14
BRANCH   7  22
ATOM     22  C   UNL     1       3.427   3.037  17.695  0.00  0.00    +0.000 C 
BRANCH  22  23
ATOM     23  N   UNL     1       3.125   2.381  18.963  0.00  0.00    +0.000 NA
ATOM     24  C   UNL     1       1.771   1.920  19.214  0.00  0.00    +0.000 C 
ATOM     25  C   UNL     1       1.282   2.770  20.372  0.00  0.00    +0.000 C 
ATOM     26  C   UNL     1       2.536   3.118  21.156  0.00  0.00    +0.000 C 
ATOM     27  C   UNL     1       3.700   2.867  20.204  0.00  0.00    +0.000 C 
ENDBRANCH  22  23
ENDBRANCH   7  22
TORSDOF 9
ENDMDL
MODEL 6
REMARK VINA RESULT:      -7.1      5.091      8.660
REMARK  Name = 
REMARK  9 active torsions:
REMARK  status: ('A' for Active; 'I' for Inactive)
REMARK    1  A    between atoms: C_2  and  O_3
REMARK    2  A    between atoms: C_2  and  C_4
REMARK    3  A    between atoms: C_4  and  C_5
REMARK    4  A    between atoms: C_5  and  C_6
REMARK    5  A    between atoms: C_6  and  C_7
REMARK    6  A    between atoms: C_7  and  C_8
REMARK    7  A    between atoms: C_14  and  C_15
REMARK    8  A    between atoms: C_15  and  N_16
REMARK    9  A    between atoms: C_21  and  O_22
REMARK                            x       y       z     vdW  Elec       q    Type
REMARK                         _______ _______ _______ _____ _____    ______ ____
ROOT
ATOM      1  C   UNL     1       6.088   4.652  15.975  0.00  0.00    +0.000 A 
ATOM      2  C   UNL     1       6.826   5.766  16.081  0.00  0.00    +0.000 A 
ATOM      3  C   UNL     1       6.544   6.834  17.048  0.00  0.00    +0.000 A 
ATOM      4  O   UNL     1       7.239   7.842  17.088  0.00  0.00    +0.000 OA
ATOM      5  O   UNL     1       5.450   6.649  17.876  0.00  0.00    +0.000 OA
ATOM      6  C   UNL     1       4.590   5.525  17.766  0.00  0.00    +0.000 A 
ATOM      7  C   UNL     1       3.388   5.546  18.515  0.00  0.00    +0.000 A 
ATOM      8  C   UNL     1       2.500   4.497  18.257  0.00  0.00    +0.000 A 
ATOM      9  C   UNL     1       2.858   3.401  17.472  0.00  0.00    +0.000 A 
ATOM     10  C   UNL     1       4.075   3.389  16.799  0.00  0.00    +0.000 A 
ATOM     11  C   UNL     1       4.928   4.491  16.871  0.00  0.00    +0.000 A 
ENDROOT
BRANCH   8  12
ATOM     12  O   UNL     1       1.195   4.513  18.655  0.00  0.00    +0.000 OA
ATOM     13  H   UNL     1       0.668   4.785  17.883  0.00  0.00    +0.000 HD
ENDBRANCH   8  12
BRANCH   1  14
ATOM     14  C   UNL     1       6.387   3.637  14.891  0.00  0.00    +0.000 C 
BRANCH  14  15
ATOM     15  C   UNL     1       5.539   3.902  13.638  0.00  0.00    +0.000 C 
BRANCH  15  16
ATOM     16  C   UNL     1       6.263   3.480  12.360  0.00  0.00    +0.000 C 
BRANCH  16  17
ATOM     17  C   UNL     1       5.476   2.404  11.604  0.00  0.00    +0.000 C 
BRANCH  17  19
ATOM     18  O   UNL     1       5.941   0.075  11.111  0.00  0.00    +0.000 OA
ATOM     19  C   UNL     1       6.334   1.225  11.246  0.00  0.00    +0.000 C 
BRANCH  19  20
ATOM     20  O   UNL     1       7.638   1.565  11.077  0.00  0.00    +0.000 OA
ATOM     21  H   UNL     1       8.209   0.819  10.827  0.00  0.00    +0.000 HD
ENDBRANCH  19  20
ENDBRANCH  17  19
ENDBRANCH  16  17
ENDBRANCH  15  16
ENDBRANCH  14  15
ENDBRANCH   1  14
BRANCH   7  22
ATOM     22  C   UNL     1       3.053   6.713  19.429  0.00  0.00    +0.000 C 
BRANCH  22  23
ATOM     23  N   UNL     1       1.901   7.559  19.131  0.00  0.00    +0.000 NA
ATOM     24  C   UNL     1       1.786   8.155  17.812  0.00  0.00    +0.000 C 
ATOM     25  C   UNL     1       1.901   9.649  18.052  0.00  0.00    +0.000 C 
ATOM     26  C   UNL     1       1.357   9.860  19.455  0.00  0.00    +0.000 C 
ATOM     27  C   UNL     1       1.389   8.490  20.120  0.00  0.00    +0.000 C 
ENDBRANCH  22  23
ENDBRANCH   7  22
TORSDOF 9
ENDMDL
MODEL 7
REMARK VINA RESULT:      -7.1      4.436      7.599
REMARK  Name = 
REMARK  9 active torsions:
REMARK  status: ('A' for Active; 'I' for Inactive)
REMARK    1  A    between atoms: C_2  and  O_3
REMARK    2  A    between atoms: C_2  and  C_4
REMARK    3  A    between atoms: C_4  and  C_5
REMARK    4  A    between atoms: C_5  and  C_6
REMARK    5  A    between atoms: C_6  and  C_7
REMARK    6  A    between atoms: C_7  and  C_8
REMARK    7  A    between atoms: C_14  and  C_15
REMARK    8  A    between atoms: C_15  and  N_16
REMARK    9  A    between atoms: C_21  and  O_22
REMARK                            x       y       z     vdW  Elec       q    Type
REMARK                         _______ _______ _______ _____ _____    ______ ____
ROOT
ATOM      1  C   UNL     1       1.779   4.528  19.130  0.00  0.00    +0.000 A 
ATOM      2  C   UNL     1       1.680   5.683  19.803  0.00  0.00    +0.000 A 
ATOM      3  C   UNL     1       2.458   6.882  19.471  0.00  0.00    +0.000 A 
ATOM      4  O   UNL     1       2.344   7.906  20.133  0.00  0.00    +0.000 OA
ATOM      5  O   UNL     1       3.333   6.778  18.402  0.00  0.00    +0.000 OA
ATOM      6  C   UNL     1       3.533   5.565  17.694  0.00  0.00    +0.000 A 
ATOM      7  C   UNL     1       4.602   5.519  16.765  0.00  0.00    +0.000 A 
ATOM      8  C   UNL     1       4.863   4.263  16.209  0.00  0.00    +0.000 A 
ATOM      9  C   UNL     1       4.007   3.178  16.398  0.00  0.00    +0.000 A 
ATOM     10  C   UNL     1       2.930   3.280  17.273  0.00  0.00    +0.000 A 
ATOM     11  C   UNL     1       2.724   4.453  18.000  0.00  0.00    +0.000 A 
ENDROOT
BRANCH   8  12
ATOM     12  O   UNL     1       6.014   3.971  15.537  0.00  0.00    +0.000 OA
ATOM     13  H   UNL     1       6.684   3.754  16.208  0.00  0.00    +0.000 HD
ENDBRANCH   8  12
BRANCH   1  14
ATOM     14  C   UNL     1       1.011   3.306  19.589  0.00  0.00    +0.000 C 
BRANCH  14  15
ATOM     15  C   UNL     1       1.088   3.147  21.114  0.00  0.00    +0.000 C 
BRANCH  15  16
ATOM     16  C   UNL     1       2.462   2.653  21.567  0.00  0.00    +0.000 C 
BRANCH  16  17
ATOM     17  C   UNL     1       3.196   1.932  20.430  0.00  0.00    +0.000 C 
BRANCH  17  19
ATOM     18  O   UNL     1       5.251   3.013  19.725  0.00  0.00    +0.000 OA
ATOM     19  C   UNL     1       4.672   2.213  20.446  0.00  0.00    +0.000 C 
BRANCH  19  20
ATOM     20  O   UNL     1       5.331   1.471  21.373  0.00  0.00    +0.000 OA
ATOM     21  H   UNL     1       6.274   1.343  21.174  0.00  0.00    +0.000 HD
ENDBRANCH  19  20
ENDBRANCH  17  19
ENDBRANCH  16  17
ENDBRANCH  15  16
ENDBRANCH  14  15
ENDBRANCH   1  14
BRANCH   7  22
ATOM     22  C   UNL     1       5.475   6.738  16.512  0.00  0.00    +0.000 C 
BRANCH  22  23
ATOM     23  N   UNL     1       6.891   6.699  16.861  0.00  0.00    +0.000 NA
ATOM     24  C   UNL     1       7.401   5.569  17.618  0.00  0.00    +0.000 C 
ATOM     25  C   UNL     1       7.837   6.161  18.946  0.00  0.00    +0.000 C 
ATOM     26  C   UNL     1       8.230   7.593  18.624  0.00  0.00    +0.000 C 
ATOM     27  C   UNL     1       7.586   7.903  17.278  0.00  0.00    +0.000 C 
ENDBRANCH  22  23
ENDBRANCH   7  22
TORSDOF 9
ENDMDL
MODEL 8
REMARK VINA RESULT:      -7.0      3.402      5.569
REMARK  Name = 
REMARK  9 active torsions:
REMARK  status: ('A' for Active; 'I' for Inactive)
REMARK    1  A    between atoms: C_2  and  O_3
REMARK    2  A    between atoms: C_2  and  C_4
REMARK    3  A    between atoms: C_4  and  C_5
REMARK    4  A    between atoms: C_5  and  C_6
REMARK    5  A    between atoms: C_6  and  C_7
REMARK    6  A    between atoms: C_7  and  C_8
REMARK    7  A    between atoms: C_14  and  C_15
REMARK    8  A    between atoms: C_15  and  N_16
REMARK    9  A    between atoms: C_21  and  O_22
REMARK                            x       y       z     vdW  Elec       q    Type
REMARK                         _______ _______ _______ _____ _____    ______ ____
ROOT
ATOM      1  C   UNL     1       1.723   7.414  20.091  0.00  0.00    +0.000 A 
ATOM      2  C   UNL     1       1.739   8.469  19.264  0.00  0.00    +0.000 A 
ATOM      3  C   UNL     1       2.388   8.454  17.947  0.00  0.00    +0.000 A 
ATOM      4  O   UNL     1       2.391   9.453  17.239  0.00  0.00    +0.000 OA
ATOM      5  O   UNL     1       3.008   7.273  17.575  0.00  0.00    +0.000 OA
ATOM      6  C   UNL     1       3.085   6.146  18.434  0.00  0.00    +0.000 A 
ATOM      7  C   UNL     1       3.924   5.076  18.035  0.00  0.00    +0.000 A 
ATOM      8  C   UNL     1       4.094   4.060  18.980  0.00  0.00    +0.000 A 
ATOM      9  C   UNL     1       3.334   4.002  20.148  0.00  0.00    +0.000 A 
ATOM     10  C   UNL     1       2.474   5.045  20.477  0.00  0.00    +0.000 A 
ATOM     11  C   UNL     1       2.397   6.175  19.662  0.00  0.00    +0.000 A 
ENDROOT
BRANCH   8  12
ATOM     12  O   UNL     1       5.077   3.119  18.892  0.00  0.00    +0.000 OA
ATOM     13  H   UNL     1       5.220   2.775  19.791  0.00  0.00    +0.000 HD
ENDBRANCH   8  12
BRANCH   1  14
ATOM     14  C   UNL     1       1.112   7.535  21.472  0.00  0.00    +0.000 C 
BRANCH  14  15
ATOM     15  C   UNL     1       0.983   9.007  21.892  0.00  0.00    +0.000 C 
BRANCH  15  16
ATOM     16  C   UNL     1      -0.477   9.450  21.977  0.00  0.00    +0.000 C 
BRANCH  16  17
ATOM     17  C   UNL     1      -0.744  10.240  23.264  0.00  0.00    +0.000 C 
BRANCH  17  19
ATOM     18  O   UNL     1      -2.493  11.917  23.152  0.00  0.00    +0.000 OA
ATOM     19  C   UNL     1      -1.326  11.595  22.982  0.00  0.00    +0.000 C 
BRANCH  19  20
ATOM     20  O   UNL     1      -0.401  12.467  22.504  0.00  0.00    +0.000 OA
ATOM     21  H   UNL     1      -0.414  12.562  21.537  0.00  0.00    +0.000 HD
ENDBRANCH  19  20
ENDBRANCH  17  19
ENDBRANCH  16  17
ENDBRANCH  15  16
ENDBRANCH  14  15
ENDBRANCH   1  14
BRANCH   7  22
ATOM     22  C   UNL     1       4.682   5.121  16.718  0.00  0.00    +0.000 C 
BRANCH  22  23
ATOM     23  N   UNL     1       6.074   5.560  16.699  0.00  0.00    +0.000 NA
ATOM     24  C   UNL     1       7.128   4.563  16.654  0.00  0.00    +0.000 C 
ATOM     25  C   UNL     1       7.859   4.716  17.975  0.00  0.00    +0.000 C 
ATOM     26  C   UNL     1       7.682   6.177  18.351  0.00  0.00    +0.000 C 
ATOM     27  C   UNL     1       6.511   6.678  17.516  0.00  0.00    +0.000 C 
ENDBRANCH  22  23
ENDBRANCH   7  22
TORSDOF 9
ENDMDL
MODEL 9
REMARK VINA RESULT:      -7.0      5.524      8.068
REMARK  Name = 
REMARK  9 active torsions:
REMARK  status: ('A' for Active; 'I' for Inactive)
REMARK    1  A    between atoms: C_2  and  O_3
REMARK    2  A    between atoms: C_2  and  C_4
REMARK    3  A    between atoms: C_4  and  C_5
REMARK    4  A    between atoms: C_5  and  C_6
REMARK    5  A    between atoms: C_6  and  C_7
REMARK    6  A    between atoms: C_7  and  C_8
REMARK    7  A    between atoms: C_14  and  C_15
REMARK    8  A    between atoms: C_15  and  N_16
REMARK    9  A    between atoms: C_21  and  O_22
REMARK                            x       y       z     vdW  Elec       q    Type
REMARK                         _______ _______ _______ _____ _____    ______ ____
ROOT
ATOM      1  C   UNL     1       7.429   6.706  17.931  0.00  0.00    +0.000 A 
ATOM      2  C   UNL     1       8.094   6.433  19.063  0.00  0.00    +0.000 A 
ATOM      3  C   UNL     1       7.744   5.325  19.959  0.00  0.00    +0.000 A 
ATOM      4  O   UNL     1       8.373   5.133  20.993  0.00  0.00    +0.000 OA
ATOM      5  O   UNL     1       6.664   4.543  19.588  0.00  0.00    +0.000 OA
ATOM      6  C   UNL     1       5.878   4.822  18.439  0.00  0.00    +0.000 A 
ATOM      7  C   UNL     1       4.676   4.089  18.275  0.00  0.00    +0.000 A 
ATOM      8  C   UNL     1       3.857   4.504  17.221  0.00  0.00    +0.000 A 
ATOM      9  C   UNL     1       4.285   5.435  16.275  0.00  0.00    +0.000 A 
ATOM     10  C   UNL     1       5.500   6.091  16.437  0.00  0.00    +0.000 A 
ATOM     11  C   UNL     1       6.281   5.853  17.569  0.00  0.00    +0.000 A 
ENDROOT
BRANCH   8  12
ATOM     12  O   UNL     1       2.554   4.121  17.096  0.00  0.00    +0.000 OA
ATOM     13  H   UNL     1       2.037   4.928  16.931  0.00  0.00    +0.000 HD
ENDBRANCH   8  12
BRANCH   1  14
ATOM     14  C   UNL     1       7.792   7.922  17.105  0.00  0.00    +0.000 C 
BRANCH  14  15
ATOM     15  C   UNL     1       7.622   9.213  17.918  0.00  0.00    +0.000 C 
BRANCH  15  16
ATOM     16  C   UNL     1       8.917  10.021  17.982  0.00  0.00    +0.000 C 
BRANCH  16  17
ATOM     17  C   UNL     1       9.343  10.277  19.432  0.00  0.00    +0.000 C 
BRANCH  17  19
ATOM     18  O   UNL     1      11.438  11.484  19.623  0.00  0.00    +0.000 OA
ATOM     19  C   UNL     1      10.218  11.491  19.557  0.00  0.00    +0.000 C 
BRANCH  19  20
ATOM     20  O   UNL     1       9.502  12.645  19.586  0.00  0.00    +0.000 OA
ATOM     21  H   UNL     1       9.126  12.895  18.725  0.00  0.00    +0.000 HD
ENDBRANCH  19  20
ENDBRANCH  17  19
ENDBRANCH  16  17
ENDBRANCH  15  16
ENDBRANCH  14  15
ENDBRANCH   1  14
BRANCH   7  22
ATOM     22  C   UNL     1       4.267   3.019  19.275  0.00  0.00    +0.000 C 
BRANCH  22  23
ATOM     23  N   UNL     1       3.251   3.317  20.279  0.00  0.00    +0.000 NA
ATOM     24  C   UNL     1       2.077   2.467  20.371  0.00  0.00    +0.000 C 
ATOM     25  C   UNL     1       0.918   3.367  19.985  0.00  0.00    +0.000 C 
ATOM     26  C   UNL     1       1.355   4.762  20.398  0.00  0.00    +0.000 C 
ATOM     27  C   UNL     1       2.868   4.688  20.563  0.00  0.00    +0.000 C 
ENDBRANCH  22  23
ENDBRANCH   7  22
TORSDOF 9
ENDMDL
