MODEL 1
REMARK VINA RESULT:      -9.3      0.000      0.000
REMARK  Name = 
REMARK  6 active torsions:
REMARK  status: ('A' for Active; 'I' for Inactive)
REMARK    1  A    between atoms: C_1  and  C_2
REMARK    2  A    between atoms: C_7  and  S_8
REMARK    3  A    between atoms: S_8  and  C_9
REMARK    4  A    between atoms: C_10  and  O_11
REMARK    5  A    between atoms: C_13  and  C_14
REMARK    6  A    between atoms: C_13  and  C_20
REMARK                            x       y       z     vdW  Elec       q    Type
REMARK                         _______ _______ _______ _____ _____    ______ ____
ROOT
ATOM      1  C   UNL     1       6.179   5.499  18.236  0.00  0.00    +0.000 C 
ATOM      2  C   UNL     1       5.323   5.012  19.146  0.00  0.00    +0.000 C 
ATOM      3  O   UNL     1       4.304   5.840  19.629  0.00  0.00    +0.000 OA
ATOM      4  C   UNL     1       3.249   6.044  18.639  0.00  0.00    +0.000 C 
ATOM      5  C   UNL     1       3.941   6.181  17.248  0.00  0.00    +0.000 C 
ATOM      6  C   UNL     1       5.427   6.525  17.458  0.00  0.00    +0.000 C 
ATOM      7  O   UNL     1       5.973   7.509  16.970  0.00  0.00    +0.000 OA
ENDROOT
BRANCH   4   8
ATOM      8  C   UNL     1       2.473   7.377  18.839  0.00  0.00    +0.000 A 
ATOM      9  C   UNL     1       1.910   7.754  20.063  0.00  0.00    +0.000 A 
ATOM     10  C   UNL     1       1.233   8.974  20.187  0.00  0.00    +0.000 A 
ATOM     11  C   UNL     1       1.108   9.837  19.096  0.00  0.00    +0.000 A 
ATOM     12  C   UNL     1       1.654   9.480  17.870  0.00  0.00    +0.000 A 
ATOM     13  C   UNL     1       2.326   8.263  17.742  0.00  0.00    +0.000 A 
ENDBRANCH   4   8
BRANCH   4  14
ATOM     14  C   UNL     1       2.277   4.886  18.982  0.00  0.00    +0.000 A 
ATOM     15  C   UNL     1       1.996   4.675  20.359  0.00  0.00    +0.000 A 
ATOM     16  C   UNL     1       1.212   3.607  20.804  0.00  0.00    +0.000 A 
ATOM     17  C   UNL     1       0.663   2.742  19.877  0.00  0.00    +0.000 A 
ATOM     18  C   UNL     1       0.881   2.940  18.516  0.00  0.00    +0.000 A 
ATOM     19  C   UNL     1       1.690   4.011  18.066  0.00  0.00    +0.000 A 
ENDBRANCH   4  14
BRANCH   2  20
ATOM     20  O   UNL     1       5.329   3.692  19.538  0.00  0.00    +0.000 OA
ATOM     21  H   UNL     1       6.187   3.529  19.975  0.00  0.00    +0.000 HD
ENDBRANCH   2  20
BRANCH   1  22
ATOM     22  S   UNL     1       7.536   4.697  17.531  0.00  0.00    +0.000 S 
BRANCH  22  29
ATOM     23  C   UNL     1       5.068   2.983  16.351  0.00  0.00    +0.000 C 
ATOM     24  C   UNL     1       5.978   3.698  15.389  0.00  0.00    +0.000 A 
ATOM     25  C   UNL     1       5.650   3.593  14.010  0.00  0.00    +0.000 A 
ATOM     26  C   UNL     1       6.365   4.293  13.045  0.00  0.00    +0.000 A 
ATOM     27  C   UNL     1       7.398   5.131  13.441  0.00  0.00    +0.000 A 
ATOM     28  C   UNL     1       7.748   5.238  14.800  0.00  0.00    +0.000 A 
ATOM     29  C   UNL     1       7.073   4.502  15.787  0.00  0.00    +0.000 A 
ENDBRANCH  22  29
ENDBRANCH   1  22
TORSDOF 5
ENDMDL
MODEL 2
REMARK VINA RESULT:      -8.3      0.499      1.662
REMARK  Name = 
REMARK  6 active torsions:
REMARK  status: ('A' for Active; 'I' for Inactive)
REMARK    1  A    between atoms: C_1  and  C_2
REMARK    2  A    between atoms: C_7  and  S_8
REMARK    3  A    between atoms: S_8  and  C_9
REMARK    4  A    between atoms: C_10  and  O_11
REMARK    5  A    between atoms: C_13  and  C_14
REMARK    6  A    between atoms: C_13  and  C_20
REMARK                            x       y       z     vdW  Elec       q    Type
REMARK                         _______ _______ _______ _____ _____    ______ ____
ROOT
ATOM      1  C   UNL     1       6.206   5.536  17.778  0.00  0.00    +0.000 C 
ATOM      2  C   UNL     1       5.507   5.014  18.797  0.00  0.00    +0.000 C 
ATOM      3  O   UNL     1       4.521   5.793  19.411  0.00  0.00    +0.000 OA
ATOM      4  C   UNL     1       3.333   5.934  18.573  0.00  0.00    +0.000 C 
ATOM      5  C   UNL     1       3.822   6.094  17.101  0.00  0.00    +0.000 C 
ATOM      6  C   UNL     1       5.303   6.515  17.107  0.00  0.00    +0.000 C 
ATOM      7  O   UNL     1       5.727   7.522  16.548  0.00  0.00    +0.000 OA
ENDROOT
BRANCH   4   8
ATOM      8  C   UNL     1       2.523   7.228  18.873  0.00  0.00    +0.000 A 
ATOM      9  C   UNL     1       2.043   7.547  20.148  0.00  0.00    +0.000 A 
ATOM     10  C   UNL     1       1.330   8.733  20.362  0.00  0.00    +0.000 A 
ATOM     11  C   UNL     1       1.087   9.621  19.312  0.00  0.00    +0.000 A 
ATOM     12  C   UNL     1       1.551   9.322  18.037  0.00  0.00    +0.000 A 
ATOM     13  C   UNL     1       2.258   8.138  17.820  0.00  0.00    +0.000 A 
ENDBRANCH   4   8
BRANCH   4  14
ATOM     14  C   UNL     1       2.477   4.731  19.047  0.00  0.00    +0.000 A 
ATOM     15  C   UNL     1       1.995   3.854  18.039  0.00  0.00    +0.000 A 
ATOM     16  C   UNL     1       1.137   2.789  18.326  0.00  0.00    +0.000 A 
ATOM     17  C   UNL     1       0.766   2.558  19.637  0.00  0.00    +0.000 A 
ATOM     18  C   UNL     1       1.251   3.371  20.658  0.00  0.00    +0.000 A 
ATOM     19  C   UNL     1       2.105   4.460  20.365  0.00  0.00    +0.000 A 
ENDBRANCH   4  14
BRANCH   2  20
ATOM     20  O   UNL     1       5.634   3.700  19.187  0.00  0.00    +0.000 OA
ATOM     21  H   UNL     1       4.802   3.455  19.637  0.00  0.00    +0.000 HD
ENDBRANCH   2  20
BRANCH   1  22
ATOM     22  S   UNL     1       7.495   4.798  16.897  0.00  0.00    +0.000 S 
BRANCH  22  29
ATOM     23  C   UNL     1       8.588   5.708  13.998  0.00  0.00    +0.000 C 
ATOM     24  C   UNL     1       7.321   4.898  14.073  0.00  0.00    +0.000 A 
ATOM     25  C   UNL     1       6.713   4.557  12.834  0.00  0.00    +0.000 A 
ATOM     26  C   UNL     1       5.596   3.730  12.784  0.00  0.00    +0.000 A 
ATOM     27  C   UNL     1       5.086   3.207  13.964  0.00  0.00    +0.000 A 
ATOM     28  C   UNL     1       5.663   3.545  15.202  0.00  0.00    +0.000 A 
ATOM     29  C   UNL     1       6.761   4.418  15.281  0.00  0.00    +0.000 A 
ENDBRANCH  22  29
ENDBRANCH   1  22
TORSDOF 5
ENDMDL
MODEL 3
REMARK VINA RESULT:      -8.2      0.534      1.674
REMARK  Name = 
REMARK  6 active torsions:
REMARK  status: ('A' for Active; 'I' for Inactive)
REMARK    1  A    between atoms: C_1  and  C_2
REMARK    2  A    between atoms: C_7  and  S_8
REMARK    3  A    between atoms: S_8  and  C_9
REMARK    4  A    between atoms: C_10  and  O_11
REMARK    5  A    between atoms: C_13  and  C_14
REMARK    6  A    between atoms: C_13  and  C_20
REMARK                            x       y       z     vdW  Elec       q    Type
REMARK                         _______ _______ _______ _____ _____    ______ ____
ROOT
ATOM      1  C   UNL     1       6.206   5.515  17.729  0.00  0.00    +0.000 C 
ATOM      2  C   UNL     1       5.479   4.983  18.724  0.00  0.00    +0.000 C 
ATOM      3  O   UNL     1       4.498   5.766  19.340  0.00  0.00    +0.000 OA
ATOM      4  C   UNL     1       3.327   5.949  18.485  0.00  0.00    +0.000 C 
ATOM      5  C   UNL     1       3.844   6.133  17.026  0.00  0.00    +0.000 C 
ATOM      6  C   UNL     1       5.332   6.526  17.066  0.00  0.00    +0.000 C 
ATOM      7  O   UNL     1       5.785   7.537  16.537  0.00  0.00    +0.000 OA
ENDROOT
BRANCH   4   8
ATOM      8  C   UNL     1       2.536   7.251  18.802  0.00  0.00    +0.000 A 
ATOM      9  C   UNL     1       2.270   8.233  17.842  0.00  0.00    +0.000 A 
ATOM     10  C   UNL     1       1.541   9.379  18.182  0.00  0.00    +0.000 A 
ATOM     11  C   UNL     1       1.063   9.564  19.481  0.00  0.00    +0.000 A 
ATOM     12  C   UNL     1       1.320   8.604  20.452  0.00  0.00    +0.000 A 
ATOM     13  C   UNL     1       2.050   7.462  20.116  0.00  0.00    +0.000 A 
ENDBRANCH   4   8
BRANCH   4  14
ATOM     14  C   UNL     1       2.441   4.752  18.917  0.00  0.00    +0.000 A 
ATOM     15  C   UNL     1       2.336   4.507  20.313  0.00  0.00    +0.000 A 
ATOM     16  C   UNL     1       1.646   3.405  20.825  0.00  0.00    +0.000 A 
ATOM     17  C   UNL     1       1.017   2.539  19.952  0.00  0.00    +0.000 A 
ATOM     18  C   UNL     1       1.063   2.769  18.579  0.00  0.00    +0.000 A 
ATOM     19  C   UNL     1       1.776   3.874  18.059  0.00  0.00    +0.000 A 
ENDBRANCH   4  14
BRANCH   2  20
ATOM     20  O   UNL     1       5.575   3.658  19.085  0.00  0.00    +0.000 OA
ATOM     21  H   UNL     1       6.412   3.321  18.710  0.00  0.00    +0.000 HD
ENDBRANCH   2  20
BRANCH   1  22
ATOM     22  S   UNL     1       7.495   4.772  16.853  0.00  0.00    +0.000 S 
BRANCH  22  29
ATOM     23  C   UNL     1       8.617   5.690  13.968  0.00  0.00    +0.000 C 
ATOM     24  C   UNL     1       7.343   4.891  14.028  0.00  0.00    +0.000 A 
ATOM     25  C   UNL     1       6.742   4.562  12.783  0.00  0.00    +0.000 A 
ATOM     26  C   UNL     1       5.618   3.745  12.720  0.00  0.00    +0.000 A 
ATOM     27  C   UNL     1       5.095   3.220  13.893  0.00  0.00    +0.000 A 
ATOM     28  C   UNL     1       5.666   3.545  15.137  0.00  0.00    +0.000 A 
ATOM     29  C   UNL     1       6.770   4.408  15.229  0.00  0.00    +0.000 A 
ENDBRANCH  22  29
ENDBRANCH   1  22
TORSDOF 5
ENDMDL
MODEL 4
REMARK VINA RESULT:      -7.8      5.954     10.093
REMARK  Name = 
REMARK  6 active torsions:
REMARK  status: ('A' for Active; 'I' for Inactive)
REMARK    1  A    between atoms: C_1  and  C_2
REMARK    2  A    between atoms: C_7  and  S_8
REMARK    3  A    between atoms: S_8  and  C_9
REMARK    4  A    between atoms: C_10  and  O_11
REMARK    5  A    between atoms: C_13  and  C_14
REMARK    6  A    between atoms: C_13  and  C_20
REMARK                            x       y       z     vdW  Elec       q    Type
REMARK                         _______ _______ _______ _____ _____    ______ ____
ROOT
ATOM      1  C   UNL     1       0.893  14.100  19.651  0.00  0.00    +0.000 C 
ATOM      2  C   UNL     1       0.257  13.534  18.615  0.00  0.00    +0.000 C 
ATOM      3  O   UNL     1       0.569  12.217  18.264  0.00  0.00    +0.000 OA
ATOM      4  C   UNL     1       0.025  11.253  19.218  0.00  0.00    +0.000 C 
ATOM      5  C   UNL     1       0.184  11.870  20.641  0.00  0.00    +0.000 C 
ATOM      6  C   UNL     1       1.238  12.991  20.587  0.00  0.00    +0.000 C 
ATOM      7  O   UNL     1       2.236  13.021  21.301  0.00  0.00    +0.000 OA
ENDROOT
BRANCH   4   8
ATOM      8  C   UNL     1       0.825   9.920  19.263  0.00  0.00    +0.000 A 
ATOM      9  C   UNL     1       1.572   9.443  18.180  0.00  0.00    +0.000 A 
ATOM     10  C   UNL     1       2.284   8.240  18.283  0.00  0.00    +0.000 A 
ATOM     11  C   UNL     1       2.266   7.498  19.465  0.00  0.00    +0.000 A 
ATOM     12  C   UNL     1       1.528   7.950  20.552  0.00  0.00    +0.000 A 
ATOM     13  C   UNL     1       0.814   9.146  20.450  0.00  0.00    +0.000 A 
ENDBRANCH   4   8
BRANCH   4  14
ATOM     14  C   UNL     1      -1.357  10.942  18.587  0.00  0.00    +0.000 A 
ATOM     15  C   UNL     1      -1.364  10.076  17.460  0.00  0.00    +0.000 A 
ATOM     16  C   UNL     1      -2.531   9.795  16.745  0.00  0.00    +0.000 A 
ATOM     17  C   UNL     1      -3.726  10.348  17.161  0.00  0.00    +0.000 A 
ATOM     18  C   UNL     1      -3.766  11.169  18.286  0.00  0.00    +0.000 A 
ATOM     19  C   UNL     1      -2.582  11.469  18.999  0.00  0.00    +0.000 A 
ENDBRANCH   4  14
BRANCH   2  20
ATOM     20  O   UNL     1      -0.780  14.154  17.955  0.00  0.00    +0.000 OA
ATOM     21  H   UNL     1      -1.334  13.448  17.568  0.00  0.00    +0.000 HD
ENDBRANCH   2  20
BRANCH   1  22
ATOM     22  S   UNL     1       0.718  15.713  20.243  0.00  0.00    +0.000 S 
BRANCH  22  29
ATOM     23  C   UNL     1      -1.632  17.568  19.037  0.00  0.00    +0.000 C 
ATOM     24  C   UNL     1      -0.320  17.494  18.303  0.00  0.00    +0.000 A 
ATOM     25  C   UNL     1      -0.202  18.293  17.133  0.00  0.00    +0.000 A 
ATOM     26  C   UNL     1       0.998  18.375  16.436  0.00  0.00    +0.000 A 
ATOM     27  C   UNL     1       2.106  17.685  16.909  0.00  0.00    +0.000 A 
ATOM     28  C   UNL     1       2.006  16.877  18.056  0.00  0.00    +0.000 A 
ATOM     29  C   UNL     1       0.792  16.739  18.748  0.00  0.00    +0.000 A 
ENDBRANCH  22  29
ENDBRANCH   1  22
TORSDOF 5
ENDMDL
MODEL 5
REMARK VINA RESULT:      -7.7      5.933     10.023
REMARK  Name = 
REMARK  6 active torsions:
REMARK  status: ('A' for Active; 'I' for Inactive)
REMARK    1  A    between atoms: C_1  and  C_2
REMARK    2  A    between atoms: C_7  and  S_8
REMARK    3  A    between atoms: S_8  and  C_9
REMARK    4  A    between atoms: C_10  and  O_11
REMARK    5  A    between atoms: C_13  and  C_14
REMARK    6  A    between atoms: C_13  and  C_20
REMARK                            x       y       z     vdW  Elec       q    Type
REMARK                         _______ _______ _______ _____ _____    ______ ____
ROOT
ATOM      1  C   UNL     1       1.013  14.215  19.634  0.00  0.00    +0.000 C 
ATOM      2  C   UNL     1       0.303  13.662  18.639  0.00  0.00    +0.000 C 
ATOM      3  O   UNL     1       0.570  12.340  18.269  0.00  0.00    +0.000 OA
ATOM      4  C   UNL     1       0.070  11.384  19.255  0.00  0.00    +0.000 C 
ATOM      5  C   UNL     1       0.328  11.997  20.665  0.00  0.00    +0.000 C 
ATOM      6  C   UNL     1       1.396  13.099  20.546  0.00  0.00    +0.000 C 
ATOM      7  O   UNL     1       2.438  13.111  21.195  0.00  0.00    +0.000 OA
ENDROOT
BRANCH   4   8
ATOM      8  C   UNL     1       0.848  10.037  19.250  0.00  0.00    +0.000 A 
ATOM      9  C   UNL     1       1.572   9.581  18.143  0.00  0.00    +0.000 A 
ATOM     10  C   UNL     1       2.265   8.364  18.201  0.00  0.00    +0.000 A 
ATOM     11  C   UNL     1       2.250   7.587  19.361  0.00  0.00    +0.000 A 
ATOM     12  C   UNL     1       1.533   8.019  20.470  0.00  0.00    +0.000 A 
ATOM     13  C   UNL     1       0.838   9.228  20.413  0.00  0.00    +0.000 A 
ENDBRANCH   4   8
BRANCH   4  14
ATOM     14  C   UNL     1      -1.354  11.098  18.712  0.00  0.00    +0.000 A 
ATOM     15  C   UNL     1      -1.457  10.150  17.660  0.00  0.00    +0.000 A 
ATOM     16  C   UNL     1      -2.670   9.875  17.021  0.00  0.00    +0.000 A 
ATOM     17  C   UNL     1      -3.816  10.521  17.444  0.00  0.00    +0.000 A 
ATOM     18  C   UNL     1      -3.762  11.427  18.501  0.00  0.00    +0.000 A 
ATOM     19  C   UNL     1      -2.531  11.719  19.135  0.00  0.00    +0.000 A 
ENDBRANCH   4  14
BRANCH   2  20
ATOM     20  O   UNL     1      -0.763  14.300  18.046  0.00  0.00    +0.000 OA
ATOM     21  H   UNL     1      -0.418  14.746  17.247  0.00  0.00    +0.000 HD
ENDBRANCH   2  20
BRANCH   1  22
ATOM     22  S   UNL     1       0.904  15.830  20.235  0.00  0.00    +0.000 S 
BRANCH  22  29
ATOM     23  C   UNL     1       3.333  16.272  18.154  0.00  0.00    +0.000 C 
ATOM     24  C   UNL     1       2.033  16.993  17.914  0.00  0.00    +0.000 A 
ATOM     25  C   UNL     1       1.962  17.797  16.744  0.00  0.00    +0.000 A 
ATOM     26  C   UNL     1       0.778  18.427  16.375  0.00  0.00    +0.000 A 
ATOM     27  C   UNL     1      -0.359  18.241  17.149  0.00  0.00    +0.000 A 
ATOM     28  C   UNL     1      -0.306  17.461  18.319  0.00  0.00    +0.000 A 
ATOM     29  C   UNL     1       0.891  16.856  18.738  0.00  0.00    +0.000 A 
ENDBRANCH  22  29
ENDBRANCH   1  22
TORSDOF 5
ENDMDL
MODEL 6
REMARK VINA RESULT:      -7.7      5.932      9.957
REMARK  Name = 
REMARK  6 active torsions:
REMARK  status: ('A' for Active; 'I' for Inactive)
REMARK    1  A    between atoms: C_1  and  C_2
REMARK    2  A    between atoms: C_7  and  S_8
REMARK    3  A    between atoms: S_8  and  C_9
REMARK    4  A    between atoms: C_10  and  O_11
REMARK    5  A    between atoms: C_13  and  C_14
REMARK    6  A    between atoms: C_13  and  C_20
REMARK                            x       y       z     vdW  Elec       q    Type
REMARK                         _______ _______ _______ _____ _____    ______ ____
ROOT
ATOM      1  C   UNL     1       0.929  14.197  19.697  0.00  0.00    +0.000 C 
ATOM      2  C   UNL     1       0.301  13.632  18.656  0.00  0.00    +0.000 C 
ATOM      3  O   UNL     1       0.602  12.308  18.320  0.00  0.00    +0.000 OA
ATOM      4  C   UNL     1       0.032  11.358  19.272  0.00  0.00    +0.000 C 
ATOM      5  C   UNL     1       0.177  11.984  20.693  0.00  0.00    +0.000 C 
ATOM      6  C   UNL     1       1.246  13.092  20.646  0.00  0.00    +0.000 C 
ATOM      7  O   UNL     1       2.234  13.115  21.374  0.00  0.00    +0.000 OA
ENDROOT
BRANCH   4   8
ATOM      8  C   UNL     1       0.815  10.015  19.339  0.00  0.00    +0.000 A 
ATOM      9  C   UNL     1       0.841   9.206  20.480  0.00  0.00    +0.000 A 
ATOM     10  C   UNL     1       1.553   7.999  20.478  0.00  0.00    +0.000 A 
ATOM     11  C   UNL     1       2.246   7.580  19.341  0.00  0.00    +0.000 A 
ATOM     12  C   UNL     1       2.237   8.370  18.198  0.00  0.00    +0.000 A 
ATOM     13  C   UNL     1       1.532   9.575  18.199  0.00  0.00    +0.000 A 
ENDBRANCH   4   8
BRANCH   4  14
ATOM     14  C   UNL     1      -1.344  11.060  18.623  0.00  0.00    +0.000 A 
ATOM     15  C   UNL     1      -2.462  11.763  19.146  0.00  0.00    +0.000 A 
ATOM     16  C   UNL     1      -3.767  11.514  18.713  0.00  0.00    +0.000 A 
ATOM     17  C   UNL     1      -3.981  10.577  17.720  0.00  0.00    +0.000 A 
ATOM     18  C   UNL     1      -2.905   9.897  17.153  0.00  0.00    +0.000 A 
ATOM     19  C   UNL     1      -1.586  10.136  17.605  0.00  0.00    +0.000 A 
ENDBRANCH   4  14
BRANCH   2  20
ATOM     20  O   UNL     1      -0.719  14.259  17.975  0.00  0.00    +0.000 OA
ATOM     21  H   UNL     1      -1.443  13.609  17.885  0.00  0.00    +0.000 HD
ENDBRANCH   2  20
BRANCH   1  22
ATOM     22  S   UNL     1       0.765  15.817  20.274  0.00  0.00    +0.000 S 
BRANCH  22  29
ATOM     23  C   UNL     1       3.315  16.234  18.338  0.00  0.00    +0.000 C 
ATOM     24  C   UNL     1       2.034  16.955  18.014  0.00  0.00    +0.000 A 
ATOM     25  C   UNL     1       2.035  17.749  16.834  0.00  0.00    +0.000 A 
ATOM     26  C   UNL     1       0.877  18.377  16.389  0.00  0.00    +0.000 A 
ATOM     27  C   UNL     1      -0.304  18.201  17.095  0.00  0.00    +0.000 A 
ATOM     28  C   UNL     1      -0.323  17.432  18.273  0.00  0.00    +0.000 A 
ATOM     29  C   UNL     1       0.844  16.829  18.769  0.00  0.00    +0.000 A 
ENDBRANCH  22  29
ENDBRANCH   1  22
TORSDOF 5
ENDMDL
MODEL 7
REMARK VINA RESULT:      -7.4      1.178      4.016
REMARK  Name = 
REMARK  6 active torsions:
REMARK  status: ('A' for Active; 'I' for Inactive)
REMARK    1  A    between atoms: C_1  and  C_2
REMARK    2  A    between atoms: C_7  and  S_8
REMARK    3  A    between atoms: S_8  and  C_9
REMARK    4  A    between atoms: C_10  and  O_11
REMARK    5  A    between atoms: C_13  and  C_14
REMARK    6  A    between atoms: C_13  and  C_20
REMARK                            x       y       z     vdW  Elec       q    Type
REMARK                         _______ _______ _______ _____ _____    ______ ____
ROOT
ATOM      1  C   UNL     1       5.594   5.194  16.803  0.00  0.00    +0.000 C 
ATOM      2  C   UNL     1       4.422   5.834  16.677  0.00  0.00    +0.000 C 
ATOM      3  O   UNL     1       3.312   5.360  17.383  0.00  0.00    +0.000 OA
ATOM      4  C   UNL     1       3.403   5.657  18.810  0.00  0.00    +0.000 C 
ATOM      5  C   UNL     1       4.891   5.458  19.230  0.00  0.00    +0.000 C 
ATOM      6  C   UNL     1       5.601   4.597  18.170  0.00  0.00    +0.000 C 
ATOM      7  O   UNL     1       6.190   3.550  18.425  0.00  0.00    +0.000 OA
ENDROOT
BRANCH   4   8
ATOM      8  C   UNL     1       2.596   4.663  19.694  0.00  0.00    +0.000 A 
ATOM      9  C   UNL     1       2.941   4.369  21.018  0.00  0.00    +0.000 A 
ATOM     10  C   UNL     1       2.169   3.475  21.771  0.00  0.00    +0.000 A 
ATOM     11  C   UNL     1       1.041   2.864  21.219  0.00  0.00    +0.000 A 
ATOM     12  C   UNL     1       0.683   3.138  19.905  0.00  0.00    +0.000 A 
ATOM     13  C   UNL     1       1.453   4.025  19.151  0.00  0.00    +0.000 A 
ENDBRANCH   4   8
BRANCH   4  14
ATOM     14  C   UNL     1       2.686   7.030  18.885  0.00  0.00    +0.000 A 
ATOM     15  C   UNL     1       2.122   7.388  20.139  0.00  0.00    +0.000 A 
ATOM     16  C   UNL     1       1.369   8.553  20.312  0.00  0.00    +0.000 A 
ATOM     17  C   UNL     1       1.191   9.405  19.239  0.00  0.00    +0.000 A 
ATOM     18  C   UNL     1       1.763   9.109  18.004  0.00  0.00    +0.000 A 
ATOM     19  C   UNL     1       2.509   7.920  17.825  0.00  0.00    +0.000 A 
ENDBRANCH   4  14
BRANCH   2  20
ATOM     20  O   UNL     1       4.292   7.011  15.976  0.00  0.00    +0.000 OA
ATOM     21  H   UNL     1       3.697   6.830  15.222  0.00  0.00    +0.000 HD
ENDBRANCH   2  20
BRANCH   1  22
ATOM     22  S   UNL     1       7.083   5.554  16.006  0.00  0.00    +0.000 S 
BRANCH  22  29
ATOM     23  C   UNL     1       8.961   6.050  13.427  0.00  0.00    +0.000 C 
ATOM     24  C   UNL     1       7.754   5.162  13.284  0.00  0.00    +0.000 A 
ATOM     25  C   UNL     1       7.553   4.567  12.009  0.00  0.00    +0.000 A 
ATOM     26  C   UNL     1       6.527   3.653  11.794  0.00  0.00    +0.000 A 
ATOM     27  C   UNL     1       5.704   3.297  12.854  0.00  0.00    +0.000 A 
ATOM     28  C   UNL     1       5.877   3.885  14.120  0.00  0.00    +0.000 A 
ATOM     29  C   UNL     1       6.875   4.847  14.347  0.00  0.00    +0.000 A 
ENDBRANCH  22  29
ENDBRANCH   1  22
TORSDOF 5
ENDMDL
MODEL 8
REMARK VINA RESULT:      -7.3      6.362     11.192
REMARK  Name = 
REMARK  6 active torsions:
REMARK  status: ('A' for Active; 'I' for Inactive)
REMARK    1  A    between atoms: C_1  and  C_2
REMARK    2  A    between atoms: C_7  and  S_8
REMARK    3  A    between atoms: S_8  and  C_9
REMARK    4  A    between atoms: C_10  and  O_11
REMARK    5  A    between atoms: C_13  and  C_14
REMARK    6  A    between atoms: C_13  and  C_20
REMARK                            x       y       z     vdW  Elec       q    Type
REMARK                         _______ _______ _______ _____ _____    ______ ____
ROOT
ATOM      1  C   UNL     1      -3.421  11.529  18.942  0.00  0.00    +0.000 C 
ATOM      2  C   UNL     1      -2.526  12.139  19.733  0.00  0.00    +0.000 C 
ATOM      3  O   UNL     1      -1.411  11.419  20.176  0.00  0.00    +0.000 OA
ATOM      4  C   UNL     1      -0.434  11.212  19.109  0.00  0.00    +0.000 C 
ATOM      5  C   UNL     1      -1.232  10.925  17.801  0.00  0.00    +0.000 C 
ATOM      6  C   UNL     1      -2.665  10.500  18.170  0.00  0.00    +0.000 C 
ATOM      7  O   UNL     1      -3.179   9.447  17.803  0.00  0.00    +0.000 OA
ENDROOT
BRANCH   4   8
ATOM      8  C   UNL     1       0.452   9.953  19.328  0.00  0.00    +0.000 A 
ATOM      9  C   UNL     1       1.290   9.430  18.337  0.00  0.00    +0.000 A 
ATOM     10  C   UNL     1       2.076   8.300  18.596  0.00  0.00    +0.000 A 
ATOM     11  C   UNL     1       2.042   7.676  19.844  0.00  0.00    +0.000 A 
ATOM     12  C   UNL     1       1.214   8.175  20.842  0.00  0.00    +0.000 A 
ATOM     13  C   UNL     1       0.426   9.299  20.585  0.00  0.00    +0.000 A 
ENDBRANCH   4   8
BRANCH   4  14
ATOM     14  C   UNL     1       0.477  12.455  19.281  0.00  0.00    +0.000 A 
ATOM     15  C   UNL     1       1.180  12.565  20.511  0.00  0.00    +0.000 A 
ATOM     16  C   UNL     1       1.958  13.683  20.826  0.00  0.00    +0.000 A 
ATOM     17  C   UNL     1       2.077  14.704  19.903  0.00  0.00    +0.000 A 
ATOM     18  C   UNL     1       1.435  14.613  18.669  0.00  0.00    +0.000 A 
ATOM     19  C   UNL     1       0.633  13.490  18.357  0.00  0.00    +0.000 A 
ENDBRANCH   4  14
BRANCH   2  20
ATOM     20  O   UNL     1      -2.594  13.481  20.032  0.00  0.00    +0.000 OA
ATOM     21  H   UNL     1      -1.826  13.907  19.604  0.00  0.00    +0.000 HD
ENDBRANCH   2  20
BRANCH   1  22
ATOM     22  S   UNL     1      -4.888  12.183  18.310  0.00  0.00    +0.000 S 
BRANCH  22  29
ATOM     23  C   UNL     1      -6.867   9.729  19.007  0.00  0.00    +0.000 C 
ATOM     24  C   UNL     1      -6.891  10.950  19.887  0.00  0.00    +0.000 A 
ATOM     25  C   UNL     1      -7.772  10.911  21.001  0.00  0.00    +0.000 A 
ATOM     26  C   UNL     1      -7.801  11.943  21.933  0.00  0.00    +0.000 A 
ATOM     27  C   UNL     1      -6.932  13.015  21.783  0.00  0.00    +0.000 A 
ATOM     28  C   UNL     1      -6.063  13.081  20.679  0.00  0.00    +0.000 A 
ATOM     29  C   UNL     1      -6.051  12.074  19.699  0.00  0.00    +0.000 A 
ENDBRANCH  22  29
ENDBRANCH   1  22
TORSDOF 5
ENDMDL
MODEL 9
REMARK VINA RESULT:      -7.3      6.183     11.017
REMARK  Name = 
REMARK  6 active torsions:
REMARK  status: ('A' for Active; 'I' for Inactive)
REMARK    1  A    between atoms: C_1  and  C_2
REMARK    2  A    between atoms: C_7  and  S_8
REMARK    3  A    between atoms: S_8  and  C_9
REMARK    4  A    between atoms: C_10  and  O_11
REMARK    5  A    between atoms: C_13  and  C_14
REMARK    6  A    between atoms: C_13  and  C_20
REMARK                            x       y       z     vdW  Elec       q    Type
REMARK                         _______ _______ _______ _____ _____    ______ ____
ROOT
ATOM      1  C   UNL     1      -3.133  11.520  18.968  0.00  0.00    +0.000 C 
ATOM      2  C   UNL     1      -2.236  12.079  19.794  0.00  0.00    +0.000 C 
ATOM      3  O   UNL     1      -1.157  11.310  20.242  0.00  0.00    +0.000 OA
ATOM      4  C   UNL     1      -0.164  11.095  19.192  0.00  0.00    +0.000 C 
ATOM      5  C   UNL     1      -0.942  10.869  17.860  0.00  0.00    +0.000 C 
ATOM      6  C   UNL     1      -2.396  10.485  18.187  0.00  0.00    +0.000 C 
ATOM      7  O   UNL     1      -2.938   9.460  17.782  0.00  0.00    +0.000 OA
ENDROOT
BRANCH   4   8
ATOM      8  C   UNL     1       0.673   9.800  19.398  0.00  0.00    +0.000 A 
ATOM      9  C   UNL     1       0.703   9.098  20.607  0.00  0.00    +0.000 A 
ATOM     10  C   UNL     1       1.466   7.929  20.731  0.00  0.00    +0.000 A 
ATOM     11  C   UNL     1       2.206   7.441  19.652  0.00  0.00    +0.000 A 
ATOM     12  C   UNL     1       2.194   8.125  18.443  0.00  0.00    +0.000 A 
ATOM     13  C   UNL     1       1.439   9.293  18.319  0.00  0.00    +0.000 A 
ENDBRANCH   4   8
BRANCH   4  14
ATOM     14  C   UNL     1       0.786  12.301  19.416  0.00  0.00    +0.000 A 
ATOM     15  C   UNL     1       1.212  13.000  18.255  0.00  0.00    +0.000 A 
ATOM     16  C   UNL     1       2.141  14.043  18.314  0.00  0.00    +0.000 A 
ATOM     17  C   UNL     1       2.641  14.432  19.541  0.00  0.00    +0.000 A 
ATOM     18  C   UNL     1       2.215  13.797  20.706  0.00  0.00    +0.000 A 
ATOM     19  C   UNL     1       1.289  12.730  20.645  0.00  0.00    +0.000 A 
ENDBRANCH   4  14
BRANCH   2  20
ATOM     20  O   UNL     1      -2.265  13.415  20.125  0.00  0.00    +0.000 OA
ATOM     21  H   UNL     1      -2.928  13.838  19.545  0.00  0.00    +0.000 HD
ENDBRANCH   2  20
BRANCH   1  22
ATOM     22  S   UNL     1      -4.563  12.241  18.321  0.00  0.00    +0.000 S 
BRANCH  22  29
ATOM     23  C   UNL     1      -6.782   9.950  18.820  0.00  0.00    +0.000 C 
ATOM     24  C   UNL     1      -6.703  11.104  19.784  0.00  0.00    +0.000 A 
ATOM     25  C   UNL     1      -7.604  11.073  20.882  0.00  0.00    +0.000 A 
ATOM     26  C   UNL     1      -7.550  12.037  21.884  0.00  0.00    +0.000 A 
ATOM     27  C   UNL     1      -6.579  13.027  21.821  0.00  0.00    +0.000 A 
ATOM     28  C   UNL     1      -5.688  13.083  20.734  0.00  0.00    +0.000 A 
ATOM     29  C   UNL     1      -5.756  12.151  19.686  0.00  0.00    +0.000 A 
ENDBRANCH  22  29
ENDBRANCH   1  22
TORSDOF 5
ENDMDL
