MODEL 1
REMARK VINA RESULT:      -8.0      0.000      0.000
REMARK  Name = 
REMARK  7 active torsions:
REMARK  status: ('A' for Active; 'I' for Inactive)
REMARK    1  A    between atoms: C_1  and  C_2
REMARK    2  A    between atoms: C_5  and  N_6
REMARK    3  A    between atoms: N_6  and  C_7
REMARK    4  A    between atoms: C_9  and  S_10
REMARK    5  A    between atoms: S_10  and  O_13
REMARK    6  A    between atoms: C_14  and  N_15
REMARK    7  A    between atoms: C_28  and  C_29
REMARK                            x       y       z     vdW  Elec       q    Type
REMARK                         _______ _______ _______ _____ _____    ______ ____
ROOT
ATOM      1  C   UNL     1      -0.950  11.515  19.735  0.00  0.00    +0.000 A 
ATOM      2  C   UNL     1      -1.512  11.046  18.538  0.00  0.00    +0.000 A 
ATOM      3  C   UNL     1      -2.812  11.377  18.157  0.00  0.00    +0.000 A 
ATOM      4  C   UNL     1      -3.603  12.219  18.948  0.00  0.00    +0.000 A 
ATOM      5  C   UNL     1      -3.058  12.657  20.191  0.00  0.00    +0.000 A 
ATOM      6  C   UNL     1      -1.749  12.304  20.585  0.00  0.00    +0.000 A 
ATOM      7  C   UNL     1      -1.221  12.754  21.903  0.00  0.00    +0.000 C 
ATOM      8  O   UNL     1      -0.128  12.386  22.315  0.00  0.00    +0.000 OA
ATOM      9  C   UNL     1      -2.046  13.618  22.766  0.00  0.00    +0.000 A 
ATOM     10  C   UNL     1      -1.542  14.061  23.999  0.00  0.00    +0.000 A 
ATOM     11  C   UNL     1      -2.326  14.860  24.833  0.00  0.00    +0.000 A 
ATOM     12  C   UNL     1      -3.616  15.216  24.443  0.00  0.00    +0.000 A 
ATOM     13  C   UNL     1      -4.116  14.779  23.218  0.00  0.00    +0.000 A 
ATOM     14  C   UNL     1      -3.328  13.981  22.374  0.00  0.00    +0.000 A 
ATOM     15  C   UNL     1      -3.863  13.546  21.077  0.00  0.00    +0.000 C 
ATOM     16  O   UNL     1      -4.967  13.956  20.726  0.00  0.00    +0.000 OA
ENDROOT
BRANCH   3  17
ATOM     17  S   UNL     1      -3.365  10.751  16.583  0.00  0.00    +0.000 S 
ATOM     18  O   UNL     1      -3.041   9.335  16.536  0.00  0.00    +0.000 OA
ATOM     19  O   UNL     1      -4.698  11.222  16.347  0.00  0.00    +0.000 OA
BRANCH  17  20
ATOM     20  O   UNL     1      -2.377  11.460  15.518  0.00  0.00    +0.000 OA
ATOM     21  H   UNL     1      -1.453  11.257  15.777  0.00  0.00    +0.000 HD
ENDBRANCH  17  20
ENDBRANCH   3  17
BRANCH   4  22
ATOM     22  N   UNL     1      -4.971  12.405  18.645  0.00  0.00    +0.000 N 
ATOM     23  H   UNL     1      -5.410  13.215  19.089  0.00  0.00    +0.000 HD
ATOM     24  H   UNL     1      -5.526  11.552  18.820  0.00  0.00    +0.000 HD
ENDBRANCH   4  22
BRANCH   1  25
ATOM     25  N   UNL     1       0.395  11.198  20.000  0.00  0.00    +0.000 N 
ATOM     26  H   UNL     1       0.814  11.788  20.715  0.00  0.00    +0.000 HD
BRANCH  25  31
ATOM     27  C   UNL     1       2.830   6.335  18.200  0.00  0.00    +0.000 C 
ATOM     28  C   UNL     1       2.247   7.621  18.704  0.00  0.00    +0.000 A 
ATOM     29  C   UNL     1       2.175   8.731  17.872  0.00  0.00    +0.000 A 
ATOM     30  C   UNL     1       1.630   9.921  18.349  0.00  0.00    +0.000 A 
ATOM     31  C   UNL     1       1.098  10.026  19.649  0.00  0.00    +0.000 A 
ATOM     32  C   UNL     1       1.186   8.917  20.504  0.00  0.00    +0.000 A 
ATOM     33  C   UNL     1       0.656   8.912  21.912  0.00  0.00    +0.000 C 
ATOM     34  C   UNL     1       1.770   7.725  20.020  0.00  0.00    +0.000 A 
ENDBRANCH  25  31
ENDBRANCH   1  25
TORSDOF 5
ENDMDL
MODEL 2
REMARK VINA RESULT:      -7.7      0.984      1.180
REMARK  Name = 
REMARK  7 active torsions:
REMARK  status: ('A' for Active; 'I' for Inactive)
REMARK    1  A    between atoms: C_1  and  C_2
REMARK    2  A    between atoms: C_5  and  N_6
REMARK    3  A    between atoms: N_6  and  C_7
REMARK    4  A    between atoms: C_9  and  S_10
REMARK    5  A    between atoms: S_10  and  O_13
REMARK    6  A    between atoms: C_14  and  N_15
REMARK    7  A    between atoms: C_28  and  C_29
REMARK                            x       y       z     vdW  Elec       q    Type
REMARK                         _______ _______ _______ _____ _____    ______ ____
ROOT
ATOM      1  C   UNL     1      -1.292  12.157  20.254  0.00  0.00    +0.000 A 
ATOM      2  C   UNL     1      -2.034  11.608  19.198  0.00  0.00    +0.000 A 
ATOM      3  C   UNL     1      -3.400  11.848  19.056  0.00  0.00    +0.000 A 
ATOM      4  C   UNL     1      -4.084  12.677  19.954  0.00  0.00    +0.000 A 
ATOM      5  C   UNL     1      -3.347  13.196  21.060  0.00  0.00    +0.000 A 
ATOM      6  C   UNL     1      -1.968  12.935  21.213  0.00  0.00    +0.000 A 
ATOM      7  C   UNL     1      -1.236  13.469  22.395  0.00  0.00    +0.000 C 
ATOM      8  O   UNL     1      -0.066  13.181  22.607  0.00  0.00    +0.000 OA
ATOM      9  C   UNL     1      -1.941  14.320  23.370  0.00  0.00    +0.000 A 
ATOM     10  C   UNL     1      -1.248  14.842  24.473  0.00  0.00    +0.000 A 
ATOM     11  C   UNL     1      -1.914  15.631  25.414  0.00  0.00    +0.000 A 
ATOM     12  C   UNL     1      -3.274  15.896  25.260  0.00  0.00    +0.000 A 
ATOM     13  C   UNL     1      -3.962  15.380  24.164  0.00  0.00    +0.000 A 
ATOM     14  C   UNL     1      -3.294  14.593  23.213  0.00  0.00    +0.000 A 
ATOM     15  C   UNL     1      -4.030  14.074  22.052  0.00  0.00    +0.000 C 
ATOM     16  O   UNL     1      -5.204  14.407  21.901  0.00  0.00    +0.000 OA
ENDROOT
BRANCH   3  17
ATOM     17  S   UNL     1      -4.193  11.126  17.632  0.00  0.00    +0.000 S 
ATOM     18  O   UNL     1      -3.151  10.564  16.789  0.00  0.00    +0.000 OA
ATOM     19  O   UNL     1      -5.302  10.336  18.080  0.00  0.00    +0.000 OA
BRANCH  17  20
ATOM     20  O   UNL     1      -4.768  12.403  16.824  0.00  0.00    +0.000 OA
ATOM     21  H   UNL     1      -4.876  12.145  15.883  0.00  0.00    +0.000 HD
ENDBRANCH  17  20
ENDBRANCH   3  17
BRANCH   4  22
ATOM     22  N   UNL     1      -5.493  12.772  19.906  0.00  0.00    +0.000 N 
ATOM     23  H   UNL     1      -5.902  13.498  20.500  0.00  0.00    +0.000 HD
ATOM     24  H   UNL     1      -5.949  11.862  20.081  0.00  0.00    +0.000 HD
ENDBRANCH   4  22
BRANCH   1  25
ATOM     25  N   UNL     1       0.096  11.928  20.274  0.00  0.00    +0.000 N 
ATOM     26  H   UNL     1       0.604  12.583  20.863  0.00  0.00    +0.000 HD
BRANCH  25  31
ATOM     27  C   UNL     1       2.507   7.164  18.198  0.00  0.00    +0.000 C 
ATOM     28  C   UNL     1       1.931   8.422  18.775  0.00  0.00    +0.000 A 
ATOM     29  C   UNL     1       1.863   9.578  18.008  0.00  0.00    +0.000 A 
ATOM     30  C   UNL     1       1.324  10.741  18.551  0.00  0.00    +0.000 A 
ATOM     31  C   UNL     1       0.794  10.775  19.856  0.00  0.00    +0.000 A 
ATOM     32  C   UNL     1       0.878   9.618  20.647  0.00  0.00    +0.000 A 
ATOM     33  C   UNL     1       0.349   9.536  22.053  0.00  0.00    +0.000 C 
ATOM     34  C   UNL     1       1.455   8.454  20.095  0.00  0.00    +0.000 A 
ENDBRANCH  25  31
ENDBRANCH   1  25
TORSDOF 5
ENDMDL
MODEL 3
REMARK VINA RESULT:      -7.7      3.454      7.294
REMARK  Name = 
REMARK  7 active torsions:
REMARK  status: ('A' for Active; 'I' for Inactive)
REMARK    1  A    between atoms: C_1  and  C_2
REMARK    2  A    between atoms: C_5  and  N_6
REMARK    3  A    between atoms: N_6  and  C_7
REMARK    4  A    between atoms: C_9  and  S_10
REMARK    5  A    between atoms: S_10  and  O_13
REMARK    6  A    between atoms: C_14  and  N_15
REMARK    7  A    between atoms: C_28  and  C_29
REMARK                            x       y       z     vdW  Elec       q    Type
REMARK                         _______ _______ _______ _____ _____    ______ ____
ROOT
ATOM      1  C   UNL     1       0.409  11.860  19.482  0.00  0.00    +0.000 A 
ATOM      2  C   UNL     1      -0.386  12.437  20.484  0.00  0.00    +0.000 A 
ATOM      3  C   UNL     1      -0.721  11.745  21.647  0.00  0.00    +0.000 A 
ATOM      4  C   UNL     1      -0.250  10.446  21.874  0.00  0.00    +0.000 A 
ATOM      5  C   UNL     1       0.514   9.834  20.837  0.00  0.00    +0.000 A 
ATOM      6  C   UNL     1       0.835  10.529  19.651  0.00  0.00    +0.000 A 
ATOM      7  C   UNL     1       1.611   9.850  18.576  0.00  0.00    +0.000 C 
ATOM      8  O   UNL     1       1.823  10.392  17.499  0.00  0.00    +0.000 OA
ATOM      9  C   UNL     1       2.093   8.473  18.780  0.00  0.00    +0.000 A 
ATOM     10  C   UNL     1       2.843   7.838  17.777  0.00  0.00    +0.000 A 
ATOM     11  C   UNL     1       3.284   6.525  17.953  0.00  0.00    +0.000 A 
ATOM     12  C   UNL     1       2.974   5.839  19.126  0.00  0.00    +0.000 A 
ATOM     13  C   UNL     1       2.232   6.469  20.123  0.00  0.00    +0.000 A 
ATOM     14  C   UNL     1       1.794   7.791  19.953  0.00  0.00    +0.000 A 
ATOM     15  C   UNL     1       1.030   8.447  21.023  0.00  0.00    +0.000 C 
ATOM     16  O   UNL     1       0.857   7.844  22.079  0.00  0.00    +0.000 OA
ENDROOT
BRANCH   3  17
ATOM     17  S   UNL     1      -1.691  12.631  22.851  0.00  0.00    +0.000 S 
ATOM     18  O   UNL     1      -2.628  11.688  23.438  0.00  0.00    +0.000 OA
ATOM     19  O   UNL     1      -0.806  13.413  23.665  0.00  0.00    +0.000 OA
BRANCH  17  20
ATOM     20  O   UNL     1      -2.586  13.638  21.958  0.00  0.00    +0.000 OA
ATOM     21  H   UNL     1      -2.231  14.546  22.073  0.00  0.00    +0.000 HD
ENDBRANCH  17  20
ENDBRANCH   3  17
BRANCH   4  22
ATOM     22  N   UNL     1      -0.736   9.691  22.965  0.00  0.00    +0.000 N 
ATOM     23  H   UNL     1      -1.210   8.819  22.717  0.00  0.00    +0.000 HD
ATOM     24  H   UNL     1      -1.327  10.257  23.595  0.00  0.00    +0.000 HD
ENDBRANCH   4  22
BRANCH   1  25
ATOM     25  N   UNL     1       0.764  12.660  18.380  0.00  0.00    +0.000 N 
ATOM     26  H   UNL     1       0.108  12.593  17.606  0.00  0.00    +0.000 HD
BRANCH  25  31
ATOM     27  C   UNL     1       4.735  16.776  18.708  0.00  0.00    +0.000 C 
ATOM     28  C   UNL     1       3.682  15.719  18.562  0.00  0.00    +0.000 A 
ATOM     29  C   UNL     1       4.042  14.401  18.313  0.00  0.00    +0.000 A 
ATOM     30  C   UNL     1       3.057  13.425  18.181  0.00  0.00    +0.000 A 
ATOM     31  C   UNL     1       1.690  13.724  18.340  0.00  0.00    +0.000 A 
ATOM     32  C   UNL     1       1.314  15.057  18.569  0.00  0.00    +0.000 A 
ATOM     33  C   UNL     1      -0.113  15.496  18.751  0.00  0.00    +0.000 C 
ATOM     34  C   UNL     1       2.321  16.043  18.669  0.00  0.00    +0.000 A 
ENDBRANCH  25  31
ENDBRANCH   1  25
TORSDOF 5
ENDMDL
MODEL 4
REMARK VINA RESULT:      -7.6      3.126      4.447
REMARK  Name = 
REMARK  7 active torsions:
REMARK  status: ('A' for Active; 'I' for Inactive)
REMARK    1  A    between atoms: C_1  and  C_2
REMARK    2  A    between atoms: C_5  and  N_6
REMARK    3  A    between atoms: N_6  and  C_7
REMARK    4  A    between atoms: C_9  and  S_10
REMARK    5  A    between atoms: S_10  and  O_13
REMARK    6  A    between atoms: C_14  and  N_15
REMARK    7  A    between atoms: C_28  and  C_29
REMARK                            x       y       z     vdW  Elec       q    Type
REMARK                         _______ _______ _______ _____ _____    ______ ____
ROOT
ATOM      1  C   UNL     1       0.621  12.255  19.991  0.00  0.00    +0.000 A 
ATOM      2  C   UNL     1       1.736  12.891  19.424  0.00  0.00    +0.000 A 
ATOM      3  C   UNL     1       2.224  14.099  19.921  0.00  0.00    +0.000 A 
ATOM      4  C   UNL     1       1.632  14.715  21.030  0.00  0.00    +0.000 A 
ATOM      5  C   UNL     1       0.467  14.101  21.578  0.00  0.00    +0.000 A 
ATOM      6  C   UNL     1      -0.038  12.888  21.061  0.00  0.00    +0.000 A 
ATOM      7  C   UNL     1      -1.273  12.289  21.639  0.00  0.00    +0.000 C 
ATOM      8  O   UNL     1      -1.790  11.292  21.152  0.00  0.00    +0.000 OA
ATOM      9  C   UNL     1      -1.931  12.934  22.789  0.00  0.00    +0.000 A 
ATOM     10  C   UNL     1      -3.083  12.360  23.349  0.00  0.00    +0.000 A 
ATOM     11  C   UNL     1      -3.726  12.977  24.424  0.00  0.00    +0.000 A 
ATOM     12  C   UNL     1      -3.225  14.171  24.940  0.00  0.00    +0.000 A 
ATOM     13  C   UNL     1      -2.080  14.740  24.387  0.00  0.00    +0.000 A 
ATOM     14  C   UNL     1      -1.428  14.119  23.311  0.00  0.00    +0.000 A 
ATOM     15  C   UNL     1      -0.210  14.722  22.753  0.00  0.00    +0.000 C 
ATOM     16  O   UNL     1       0.254  15.723  23.294  0.00  0.00    +0.000 OA
ENDROOT
BRANCH   3  17
ATOM     17  S   UNL     1       3.680  14.756  19.131  0.00  0.00    +0.000 S 
ATOM     18  O   UNL     1       3.301  15.996  18.475  0.00  0.00    +0.000 OA
ATOM     19  O   UNL     1       4.768  14.703  20.062  0.00  0.00    +0.000 OA
BRANCH  17  20
ATOM     20  O   UNL     1       3.978  13.705  17.938  0.00  0.00    +0.000 OA
ATOM     21  H   UNL     1       3.264  13.791  17.270  0.00  0.00    +0.000 HD
ENDBRANCH  17  20
ENDBRANCH   3  17
BRANCH   4  22
ATOM     22  N   UNL     1       2.019  16.019  21.414  0.00  0.00    +0.000 N 
ATOM     23  H   UNL     1       1.383  16.490  22.062  0.00  0.00    +0.000 HD
ATOM     24  H   UNL     1       2.217  16.620  20.598  0.00  0.00    +0.000 HD
ENDBRANCH   4  22
BRANCH   1  25
ATOM     25  N   UNL     1       0.248  10.999  19.478  0.00  0.00    +0.000 N 
ATOM     26  H   UNL     1      -0.644  11.012  18.989  0.00  0.00    +0.000 HD
BRANCH  25  31
ATOM     27  C   UNL     1       3.133   6.176  18.365  0.00  0.00    +0.000 C 
ATOM     28  C   UNL     1       2.430   7.461  18.687  0.00  0.00    +0.000 A 
ATOM     29  C   UNL     1       2.253   8.427  17.704  0.00  0.00    +0.000 A 
ATOM     30  C   UNL     1       1.598   9.617  18.011  0.00  0.00    +0.000 A 
ATOM     31  C   UNL     1       1.059   9.860  19.290  0.00  0.00    +0.000 A 
ATOM     32  C   UNL     1       1.253   8.899  20.295  0.00  0.00    +0.000 A 
ATOM     33  C   UNL     1       0.727   9.050  21.697  0.00  0.00    +0.000 C 
ATOM     34  C   UNL     1       1.947   7.710  19.980  0.00  0.00    +0.000 A 
ENDBRANCH  25  31
ENDBRANCH   1  25
TORSDOF 5
ENDMDL
MODEL 5
REMARK VINA RESULT:      -7.6      0.572      1.352
REMARK  Name = 
REMARK  7 active torsions:
REMARK  status: ('A' for Active; 'I' for Inactive)
REMARK    1  A    between atoms: C_1  and  C_2
REMARK    2  A    between atoms: C_5  and  N_6
REMARK    3  A    between atoms: N_6  and  C_7
REMARK    4  A    between atoms: C_9  and  S_10
REMARK    5  A    between atoms: S_10  and  O_13
REMARK    6  A    between atoms: C_14  and  N_15
REMARK    7  A    between atoms: C_28  and  C_29
REMARK                            x       y       z     vdW  Elec       q    Type
REMARK                         _______ _______ _______ _____ _____    ______ ____
ROOT
ATOM      1  C   UNL     1      -1.008  11.289  19.889  0.00  0.00    +0.000 A 
ATOM      2  C   UNL     1      -1.597  10.837  18.699  0.00  0.00    +0.000 A 
ATOM      3  C   UNL     1      -2.840  11.300  18.271  0.00  0.00    +0.000 A 
ATOM      4  C   UNL     1      -3.543  12.263  19.005  0.00  0.00    +0.000 A 
ATOM      5  C   UNL     1      -2.975  12.689  20.242  0.00  0.00    +0.000 A 
ATOM      6  C   UNL     1      -1.725  12.204  20.685  0.00  0.00    +0.000 A 
ATOM      7  C   UNL     1      -1.175  12.647  21.995  0.00  0.00    +0.000 C 
ATOM      8  O   UNL     1      -0.142  12.173  22.450  0.00  0.00    +0.000 OA
ATOM      9  C   UNL     1      -1.910  13.639  22.800  0.00  0.00    +0.000 A 
ATOM     10  C   UNL     1      -1.383  14.075  24.026  0.00  0.00    +0.000 A 
ATOM     11  C   UNL     1      -2.084  14.997  24.805  0.00  0.00    +0.000 A 
ATOM     12  C   UNL     1      -3.315  15.483  24.367  0.00  0.00    +0.000 A 
ATOM     13  C   UNL     1      -3.838  15.053  23.149  0.00  0.00    +0.000 A 
ATOM     14  C   UNL     1      -3.133  14.132  22.361  0.00  0.00    +0.000 A 
ATOM     15  C   UNL     1      -3.688  13.705  21.069  0.00  0.00    +0.000 C 
ATOM     16  O   UNL     1      -4.729  14.225  20.674  0.00  0.00    +0.000 OA
ENDROOT
BRANCH   3  17
ATOM     17  S   UNL     1      -3.431  10.673  16.711  0.00  0.00    +0.000 S 
ATOM     18  O   UNL     1      -3.070   9.267  16.638  0.00  0.00    +0.000 OA
ATOM     19  O   UNL     1      -4.784  11.109  16.527  0.00  0.00    +0.000 OA
BRANCH  17  20
ATOM     20  O   UNL     1      -2.501  11.419  15.619  0.00  0.00    +0.000 OA
ATOM     21  H   UNL     1      -1.644  10.943  15.572  0.00  0.00    +0.000 HD
ENDBRANCH  17  20
ENDBRANCH   3  17
BRANCH   4  22
ATOM     22  N   UNL     1      -4.873  12.594  18.660  0.00  0.00    +0.000 N 
ATOM     23  H   UNL     1      -5.550  11.834  18.754  0.00  0.00    +0.000 HD
ATOM     24  H   UNL     1      -4.934  13.021  17.722  0.00  0.00    +0.000 HD
ENDBRANCH   4  22
BRANCH   1  25
ATOM     25  N   UNL     1       0.284  10.829  20.202  0.00  0.00    +0.000 N 
ATOM     26  H   UNL     1       0.799  11.459  20.813  0.00  0.00    +0.000 HD
BRANCH  25  31
ATOM     27  C   UNL     1       2.761   5.668  19.988  0.00  0.00    +0.000 C 
ATOM     28  C   UNL     1       2.068   6.998  20.002  0.00  0.00    +0.000 A 
ATOM     29  C   UNL     1       1.265   7.358  21.077  0.00  0.00    +0.000 A 
ATOM     30  C   UNL     1       0.627   8.595  21.082  0.00  0.00    +0.000 A 
ATOM     31  C   UNL     1       0.807   9.529  20.043  0.00  0.00    +0.000 A 
ATOM     32  C   UNL     1       1.598   9.165  18.942  0.00  0.00    +0.000 A 
ATOM     33  C   UNL     1       1.859  10.075  17.773  0.00  0.00    +0.000 C 
ATOM     34  C   UNL     1       2.214   7.894  18.933  0.00  0.00    +0.000 A 
ENDBRANCH  25  31
ENDBRANCH   1  25
TORSDOF 5
ENDMDL
MODEL 6
REMARK VINA RESULT:      -7.4      3.312      4.370
REMARK  Name = 
REMARK  7 active torsions:
REMARK  status: ('A' for Active; 'I' for Inactive)
REMARK    1  A    between atoms: C_1  and  C_2
REMARK    2  A    between atoms: C_5  and  N_6
REMARK    3  A    between atoms: N_6  and  C_7
REMARK    4  A    between atoms: C_9  and  S_10
REMARK    5  A    between atoms: S_10  and  O_13
REMARK    6  A    between atoms: C_14  and  N_15
REMARK    7  A    between atoms: C_28  and  C_29
REMARK                            x       y       z     vdW  Elec       q    Type
REMARK                         _______ _______ _______ _____ _____    ______ ____
ROOT
ATOM      1  C   UNL     1       0.306  12.372  18.779  0.00  0.00    +0.000 A 
ATOM      2  C   UNL     1       1.534  12.977  18.473  0.00  0.00    +0.000 A 
ATOM      3  C   UNL     1       1.830  14.281  18.866  0.00  0.00    +0.000 A 
ATOM      4  C   UNL     1       0.915  15.034  19.612  0.00  0.00    +0.000 A 
ATOM      5  C   UNL     1      -0.355  14.446  19.882  0.00  0.00    +0.000 A 
ATOM      6  C   UNL     1      -0.661  13.132  19.465  0.00  0.00    +0.000 A 
ATOM      7  C   UNL     1      -2.008  12.558  19.738  0.00  0.00    +0.000 C 
ATOM      8  O   UNL     1      -2.336  11.460  19.306  0.00  0.00    +0.000 OA
ATOM      9  C   UNL     1      -2.998  13.343  20.497  0.00  0.00    +0.000 A 
ATOM     10  C   UNL     1      -4.260  12.795  20.774  0.00  0.00    +0.000 A 
ATOM     11  C   UNL     1      -5.213  13.541  21.472  0.00  0.00    +0.000 A 
ATOM     12  C   UNL     1      -4.911  14.836  21.891  0.00  0.00    +0.000 A 
ATOM     13  C   UNL     1      -3.656  15.378  21.619  0.00  0.00    +0.000 A 
ATOM     14  C   UNL     1      -2.695  14.629  20.923  0.00  0.00    +0.000 A 
ATOM     15  C   UNL     1      -1.370  15.209  20.662  0.00  0.00    +0.000 C 
ATOM     16  O   UNL     1      -1.109  16.316  21.128  0.00  0.00    +0.000 OA
ENDROOT
BRANCH   3  17
ATOM     17  S   UNL     1       3.453  14.891  18.451  0.00  0.00    +0.000 S 
ATOM     18  O   UNL     1       3.288  15.918  17.437  0.00  0.00    +0.000 OA
ATOM     19  O   UNL     1       4.169  15.146  19.666  0.00  0.00    +0.000 OA
BRANCH  17  20
ATOM     20  O   UNL     1       4.152  13.643  17.699  0.00  0.00    +0.000 OA
ATOM     21  H   UNL     1       4.955  13.973  17.242  0.00  0.00    +0.000 HD
ENDBRANCH  17  20
ENDBRANCH   3  17
BRANCH   4  22
ATOM     22  N   UNL     1       1.149  16.407  19.853  0.00  0.00    +0.000 N 
ATOM     23  H   UNL     1       1.777  16.866  19.189  0.00  0.00    +0.000 HD
ATOM     24  H   UNL     1       1.456  16.583  20.823  0.00  0.00    +0.000 HD
ENDBRANCH   4  22
BRANCH   1  25
ATOM     25  N   UNL     1       0.125  11.025  18.413  0.00  0.00    +0.000 N 
ATOM     26  H   UNL     1      -0.522  10.903  17.637  0.00  0.00    +0.000 HD
BRANCH  25  31
ATOM     27  C   UNL     1       3.041   6.207  19.461  0.00  0.00    +0.000 C 
ATOM     28  C   UNL     1       2.324   7.502  19.218  0.00  0.00    +0.000 A 
ATOM     29  C   UNL     1       2.380   8.110  17.971  0.00  0.00    +0.000 A 
ATOM     30  C   UNL     1       1.709   9.311  17.754  0.00  0.00    +0.000 A 
ATOM     31  C   UNL     1       0.925   9.916  18.756  0.00  0.00    +0.000 A 
ATOM     32  C   UNL     1       0.880   9.319  20.026  0.00  0.00    +0.000 A 
ATOM     33  C   UNL     1       0.080   9.874  21.174  0.00  0.00    +0.000 C 
ATOM     34  C   UNL     1       1.590   8.118  20.244  0.00  0.00    +0.000 A 
ENDBRANCH  25  31
ENDBRANCH   1  25
TORSDOF 5
ENDMDL
MODEL 7
REMARK VINA RESULT:      -7.3      2.634      4.694
REMARK  Name = 
REMARK  7 active torsions:
REMARK  status: ('A' for Active; 'I' for Inactive)
REMARK    1  A    between atoms: C_1  and  C_2
REMARK    2  A    between atoms: C_5  and  N_6
REMARK    3  A    between atoms: N_6  and  C_7
REMARK    4  A    between atoms: C_9  and  S_10
REMARK    5  A    between atoms: S_10  and  O_13
REMARK    6  A    between atoms: C_14  and  N_15
REMARK    7  A    between atoms: C_28  and  C_29
REMARK                            x       y       z     vdW  Elec       q    Type
REMARK                         _______ _______ _______ _____ _____    ______ ____
ROOT
ATOM      1  C   UNL     1      -0.177  11.711  18.974  0.00  0.00    +0.000 A 
ATOM      2  C   UNL     1       0.795  12.518  19.586  0.00  0.00    +0.000 A 
ATOM      3  C   UNL     1       0.449  13.580  20.420  0.00  0.00    +0.000 A 
ATOM      4  C   UNL     1      -0.892  13.868  20.704  0.00  0.00    +0.000 A 
ATOM      5  C   UNL     1      -1.885  13.086  20.044  0.00  0.00    +0.000 A 
ATOM      6  C   UNL     1      -1.534  12.023  19.183  0.00  0.00    +0.000 A 
ATOM      7  C   UNL     1      -2.596  11.245  18.488  0.00  0.00    +0.000 C 
ATOM      8  O   UNL     1      -2.323  10.383  17.663  0.00  0.00    +0.000 OA
ATOM      9  C   UNL     1      -4.014  11.548  18.748  0.00  0.00    +0.000 A 
ATOM     10  C   UNL     1      -5.018  10.802  18.110  0.00  0.00    +0.000 A 
ATOM     11  C   UNL     1      -6.364  11.098  18.332  0.00  0.00    +0.000 A 
ATOM     12  C   UNL     1      -6.714  12.142  19.187  0.00  0.00    +0.000 A 
ATOM     13  C   UNL     1      -5.718  12.881  19.823  0.00  0.00    +0.000 A 
ATOM     14  C   UNL     1      -4.365  12.582  19.607  0.00  0.00    +0.000 A 
ATOM     15  C   UNL     1      -3.328  13.358  20.301  0.00  0.00    +0.000 C 
ATOM     16  O   UNL     1      -3.676  14.208  21.118  0.00  0.00    +0.000 OA
ENDROOT
BRANCH   3  17
ATOM     17  S   UNL     1       1.795  14.477  21.168  0.00  0.00    +0.000 S 
ATOM     18  O   UNL     1       2.915  13.560  21.297  0.00  0.00    +0.000 OA
ATOM     19  O   UNL     1       1.932  15.737  20.498  0.00  0.00    +0.000 OA
BRANCH  17  20
ATOM     20  O   UNL     1       1.282  14.754  22.676  0.00  0.00    +0.000 OA
ATOM     21  H   UNL     1       1.972  15.272  23.143  0.00  0.00    +0.000 HD
ENDBRANCH  17  20
ENDBRANCH   3  17
BRANCH   4  22
ATOM     22  N   UNL     1      -1.237  15.047  21.403  0.00  0.00    +0.000 N 
ATOM     23  H   UNL     1      -1.454  15.855  20.815  0.00  0.00    +0.000 HD
ATOM     24  H   UNL     1      -0.531  15.295  22.114  0.00  0.00    +0.000 HD
ENDBRANCH   4  22
BRANCH   1  25
ATOM     25  N   UNL     1       0.263  10.612  18.213  0.00  0.00    +0.000 N 
ATOM     26  H   UNL     1       0.144  10.742  17.212  0.00  0.00    +0.000 HD
BRANCH  25  31
ATOM     27  C   UNL     1       3.375   5.972  19.479  0.00  0.00    +0.000 C 
ATOM     28  C   UNL     1       2.600   7.221  19.186  0.00  0.00    +0.000 A 
ATOM     29  C   UNL     1       2.766   7.881  17.975  0.00  0.00    +0.000 A 
ATOM     30  C   UNL     1       2.041   9.040  17.711  0.00  0.00    +0.000 A 
ATOM     31  C   UNL     1       1.094   9.548  18.622  0.00  0.00    +0.000 A 
ATOM     32  C   UNL     1       0.936   8.901  19.858  0.00  0.00    +0.000 A 
ATOM     33  C   UNL     1      -0.040   9.353  20.910  0.00  0.00    +0.000 C 
ATOM     34  C   UNL     1       1.700   7.745  20.128  0.00  0.00    +0.000 A 
ENDBRANCH  25  31
ENDBRANCH   1  25
TORSDOF 5
ENDMDL
MODEL 8
REMARK VINA RESULT:      -7.3      3.443      7.532
REMARK  Name = 
REMARK  7 active torsions:
REMARK  status: ('A' for Active; 'I' for Inactive)
REMARK    1  A    between atoms: C_1  and  C_2
REMARK    2  A    between atoms: C_5  and  N_6
REMARK    3  A    between atoms: N_6  and  C_7
REMARK    4  A    between atoms: C_9  and  S_10
REMARK    5  A    between atoms: S_10  and  O_13
REMARK    6  A    between atoms: C_14  and  N_15
REMARK    7  A    between atoms: C_28  and  C_29
REMARK                            x       y       z     vdW  Elec       q    Type
REMARK                         _______ _______ _______ _____ _____    ______ ____
ROOT
ATOM      1  C   UNL     1       0.429  11.902  19.565  0.00  0.00    +0.000 A 
ATOM      2  C   UNL     1      -0.396  12.417  20.577  0.00  0.00    +0.000 A 
ATOM      3  C   UNL     1      -0.749  11.661  21.693  0.00  0.00    +0.000 A 
ATOM      4  C   UNL     1      -0.269  10.357  21.863  0.00  0.00    +0.000 A 
ATOM      5  C   UNL     1       0.527   9.808  20.814  0.00  0.00    +0.000 A 
ATOM      6  C   UNL     1       0.867  10.568  19.674  0.00  0.00    +0.000 A 
ATOM      7  C   UNL     1       1.676   9.955  18.584  0.00  0.00    +0.000 C 
ATOM      8  O   UNL     1       1.906  10.555  17.542  0.00  0.00    +0.000 OA
ATOM      9  C   UNL     1       2.170   8.574  18.727  0.00  0.00    +0.000 A 
ATOM     10  C   UNL     1       2.950   8.002  17.710  0.00  0.00    +0.000 A 
ATOM     11  C   UNL     1       3.402   6.686  17.826  0.00  0.00    +0.000 A 
ATOM     12  C   UNL     1       3.073   5.936  18.954  0.00  0.00    +0.000 A 
ATOM     13  C   UNL     1       2.302   6.505  19.965  0.00  0.00    +0.000 A 
ATOM     14  C   UNL     1       1.851   7.828  19.854  0.00  0.00    +0.000 A 
ATOM     15  C   UNL     1       1.055   8.419  20.939  0.00  0.00    +0.000 C 
ATOM     16  O   UNL     1       0.865   7.759  21.958  0.00  0.00    +0.000 OA
ENDROOT
BRANCH   3  17
ATOM     17  S   UNL     1      -1.758  12.472  22.919  0.00  0.00    +0.000 S 
ATOM     18  O   UNL     1      -2.642  11.470  23.491  0.00  0.00    +0.000 OA
ATOM     19  O   UNL     1      -0.910  13.281  23.744  0.00  0.00    +0.000 OA
BRANCH  17  20
ATOM     20  O   UNL     1      -2.709  13.448  22.050  0.00  0.00    +0.000 OA
ATOM     21  H   UNL     1      -2.563  13.249  21.100  0.00  0.00    +0.000 HD
ENDBRANCH  17  20
ENDBRANCH   3  17
BRANCH   4  22
ATOM     22  N   UNL     1      -0.771   9.540  22.901  0.00  0.00    +0.000 N 
ATOM     23  H   UNL     1      -0.277   8.654  23.037  0.00  0.00    +0.000 HD
ATOM     24  H   UNL     1      -1.786   9.379  22.810  0.00  0.00    +0.000 HD
ENDBRANCH   4  22
BRANCH   1  25
ATOM     25  N   UNL     1       0.800  12.762  18.515  0.00  0.00    +0.000 N 
ATOM     26  H   UNL     1       0.751  12.324  17.599  0.00  0.00    +0.000 HD
BRANCH  25  31
ATOM     27  C   UNL     1       1.026  18.472  18.110  0.00  0.00    +0.000 C 
ATOM     28  C   UNL     1       0.986  16.983  18.279  0.00  0.00    +0.000 A 
ATOM     29  C   UNL     1      -0.231  16.328  18.422  0.00  0.00    +0.000 A 
ATOM     30  C   UNL     1      -0.259  14.944  18.575  0.00  0.00    +0.000 A 
ATOM     31  C   UNL     1       0.916  14.168  18.543  0.00  0.00    +0.000 A 
ATOM     32  C   UNL     1       2.152  14.824  18.421  0.00  0.00    +0.000 A 
ATOM     33  C   UNL     1       3.471  14.102  18.378  0.00  0.00    +0.000 C 
ATOM     34  C   UNL     1       2.170  16.230  18.298  0.00  0.00    +0.000 A 
ENDBRANCH  25  31
ENDBRANCH   1  25
TORSDOF 5
ENDMDL
MODEL 9
REMARK VINA RESULT:      -7.2      3.703      7.124
REMARK  Name = 
REMARK  7 active torsions:
REMARK  status: ('A' for Active; 'I' for Inactive)
REMARK    1  A    between atoms: C_1  and  C_2
REMARK    2  A    between atoms: C_5  and  N_6
REMARK    3  A    between atoms: N_6  and  C_7
REMARK    4  A    between atoms: C_9  and  S_10
REMARK    5  A    between atoms: S_10  and  O_13
REMARK    6  A    between atoms: C_14  and  N_15
REMARK    7  A    between atoms: C_28  and  C_29
REMARK                            x       y       z     vdW  Elec       q    Type
REMARK                         _______ _______ _______ _____ _____    ______ ____
ROOT
ATOM      1  C   UNL     1       0.353  12.612  19.687  0.00  0.00    +0.000 A 
ATOM      2  C   UNL     1      -0.400  13.334  20.624  0.00  0.00    +0.000 A 
ATOM      3  C   UNL     1      -0.845  12.755  21.812  0.00  0.00    +0.000 A 
ATOM      4  C   UNL     1      -0.532  11.428  22.130  0.00  0.00    +0.000 A 
ATOM      5  C   UNL     1       0.189  10.672  21.158  0.00  0.00    +0.000 A 
ATOM      6  C   UNL     1       0.622  11.254  19.946  0.00  0.00    +0.000 A 
ATOM      7  C   UNL     1       1.347  10.429  18.941  0.00  0.00    +0.000 C 
ATOM      8  O   UNL     1       1.650  10.877  17.843  0.00  0.00    +0.000 OA
ATOM      9  C   UNL     1       1.664   9.021  19.240  0.00  0.00    +0.000 A 
ATOM     10  C   UNL     1       2.366   8.248  18.303  0.00  0.00    +0.000 A 
ATOM     11  C   UNL     1       2.650   6.907  18.568  0.00  0.00    +0.000 A 
ATOM     12  C   UNL     1       2.230   6.332  19.767  0.00  0.00    +0.000 A 
ATOM     13  C   UNL     1       1.536   7.100  20.699  0.00  0.00    +0.000 A 
ATOM     14  C   UNL     1       1.254   8.450  20.438  0.00  0.00    +0.000 A 
ATOM     15  C   UNL     1       0.539   9.251  21.441  0.00  0.00    +0.000 C 
ATOM     16  O   UNL     1       0.268   8.736  22.523  0.00  0.00    +0.000 OA
ENDROOT
BRANCH   3  17
ATOM     17  S   UNL     1      -1.744  13.815  22.928  0.00  0.00    +0.000 S 
ATOM     18  O   UNL     1      -0.917  14.011  24.107  0.00  0.00    +0.000 OA
ATOM     19  O   UNL     1      -2.264  14.925  22.185  0.00  0.00    +0.000 OA
BRANCH  17  20
ATOM     20  O   UNL     1      -2.985  12.899  23.413  0.00  0.00    +0.000 OA
ATOM     21  H   UNL     1      -3.724  13.027  22.780  0.00  0.00    +0.000 HD
ENDBRANCH  17  20
ENDBRANCH   3  17
BRANCH   4  22
ATOM     22  N   UNL     1      -1.132  10.799  23.244  0.00  0.00    +0.000 N 
ATOM     23  H   UNL     1      -2.155  10.795  23.244  0.00  0.00    +0.000 HD
ATOM     24  H   UNL     1      -0.771  11.169  24.138  0.00  0.00    +0.000 HD
ENDBRANCH   4  22
BRANCH   1  25
ATOM     25  N   UNL     1       0.829  13.299  18.554  0.00  0.00    +0.000 N 
ATOM     26  H   UNL     1       0.186  13.271  17.767  0.00  0.00    +0.000 HD
BRANCH  25  31
ATOM     27  C   UNL     1       5.258  16.924  18.788  0.00  0.00    +0.000 C 
ATOM     28  C   UNL     1       4.091  15.992  18.664  0.00  0.00    +0.000 A 
ATOM     29  C   UNL     1       4.298  14.623  18.554  0.00  0.00    +0.000 A 
ATOM     30  C   UNL     1       3.207  13.763  18.441  0.00  0.00    +0.000 A 
ATOM     31  C   UNL     1       1.881  14.236  18.484  0.00  0.00    +0.000 A 
ATOM     32  C   UNL     1       1.663  15.620  18.573  0.00  0.00    +0.000 A 
ATOM     33  C   UNL     1       0.293  16.241  18.623  0.00  0.00    +0.000 C 
ATOM     34  C   UNL     1       2.777  16.484  18.654  0.00  0.00    +0.000 A 
ENDBRANCH  25  31
ENDBRANCH   1  25
TORSDOF 5
ENDMDL
