MODEL 1
REMARK VINA RESULT:      -7.3      0.000      0.000
REMARK  Name = 
REMARK  4 active torsions:
REMARK  status: ('A' for Active; 'I' for Inactive)
REMARK    1  A    between atoms: C_1  and  O_2
REMARK    2  A    between atoms: O_2  and  C_3
REMARK    3  A    between atoms: C_12  and  C_13
REMARK    4  A    between atoms: C_15  and  C_16
REMARK                            x       y       z     vdW  Elec       q    Type
REMARK                         _______ _______ _______ _____ _____    ______ ____
ROOT
ATOM      1  C   UNL     1      -6.067  12.467  19.775  0.00  0.00    +0.000 A 
ATOM      2  C   UNL     1      -6.593  11.579  18.835  0.00  0.00    +0.000 A 
ATOM      3  C   UNL     1      -5.742  10.845  18.002  0.00  0.00    +0.000 A 
ATOM      4  C   UNL     1      -4.354  10.985  18.107  0.00  0.00    +0.000 A 
ATOM      5  C   UNL     1      -3.832  11.886  19.047  0.00  0.00    +0.000 A 
ATOM      6  C   UNL     1      -4.682  12.630  19.874  0.00  0.00    +0.000 A 
ATOM      7  C   UNL     1      -2.368  12.024  19.160  0.00  0.00    +0.000 C 
ATOM      8  N   UNL     1      -1.743  12.592  20.143  0.00  0.00    +0.000 NA
ATOM      9  N   UNL     1      -0.400  12.437  19.888  0.00  0.00    +0.000 N 
ATOM     10  C   UNL     1       0.598  12.992  20.667  0.00  0.00    +0.000 C 
ATOM     11  C   UNL     1       0.174  13.730  21.911  0.00  0.00    +0.000 C 
ATOM     12  O   UNL     1       1.796  12.880  20.394  0.00  0.00    +0.000 OA
ATOM     13  C   UNL     1      -0.123  11.621  18.701  0.00  0.00    +0.000 C 
ATOM     14  C   UNL     1      -1.505  11.477  18.053  0.00  0.00    +0.000 C 
ATOM     15  C   UNL     1      -2.020  10.099  17.659  0.00  0.00    +0.000 C 
ATOM     16  C   UNL     1      -3.465  10.200  17.168  0.00  0.00    +0.000 C 
ENDROOT
BRANCH  13  17
ATOM     17  C   UNL     1       0.592  10.320  19.023  0.00  0.00    +0.000 A 
ATOM     18  C   UNL     1       0.462   9.683  20.271  0.00  0.00    +0.000 A 
ATOM     19  C   UNL     1       1.144   8.495  20.547  0.00  0.00    +0.000 A 
ATOM     20  C   UNL     1       1.962   7.922  19.575  0.00  0.00    +0.000 A 
ATOM     21  C   UNL     1       2.097   8.546  18.342  0.00  0.00    +0.000 A 
ATOM     22  F   UNL     1       2.891   8.002  17.411  0.00  0.00    +0.000 F 
ATOM     23  C   UNL     1       1.424   9.729  18.056  0.00  0.00    +0.000 A 
ENDBRANCH  13  17
BRANCH   1  25
ATOM     24  C   UNL     1      -7.138  12.677  21.872  0.00  0.00    +0.000 C 
ATOM     25  O   UNL     1      -6.815  13.252  20.609  0.00  0.00    +0.000 OA
ENDBRANCH   1  25
TORSDOF 2
ENDMDL
MODEL 2
REMARK VINA RESULT:      -7.3      3.785      6.876
REMARK  Name = 
REMARK  4 active torsions:
REMARK  status: ('A' for Active; 'I' for Inactive)
REMARK    1  A    between atoms: C_1  and  O_2
REMARK    2  A    between atoms: O_2  and  C_3
REMARK    3  A    between atoms: C_12  and  C_13
REMARK    4  A    between atoms: C_15  and  C_16
REMARK                            x       y       z     vdW  Elec       q    Type
REMARK                         _______ _______ _______ _____ _____    ______ ____
ROOT
ATOM      1  C   UNL     1       2.381   5.656  20.432  0.00  0.00    +0.000 A 
ATOM      2  C   UNL     1       3.151   5.551  19.273  0.00  0.00    +0.000 A 
ATOM      3  C   UNL     1       3.168   6.592  18.339  0.00  0.00    +0.000 A 
ATOM      4  C   UNL     1       2.422   7.755  18.559  0.00  0.00    +0.000 A 
ATOM      5  C   UNL     1       1.642   7.850  19.722  0.00  0.00    +0.000 A 
ATOM      6  C   UNL     1       1.615   6.804  20.653  0.00  0.00    +0.000 A 
ATOM      7  C   UNL     1       0.863   9.080  19.955  0.00  0.00    +0.000 C 
ATOM      8  N   UNL     1       0.328   9.426  21.084  0.00  0.00    +0.000 NA
ATOM      9  N   UNL     1      -0.235  10.664  20.881  0.00  0.00    +0.000 N 
ATOM     10  C   UNL     1      -0.985  11.331  21.832  0.00  0.00    +0.000 C 
ATOM     11  C   UNL     1      -1.106  10.690  23.190  0.00  0.00    +0.000 C 
ATOM     12  O   UNL     1      -1.522  12.420  21.613  0.00  0.00    +0.000 OA
ATOM     13  C   UNL     1       0.035  11.216  19.549  0.00  0.00    +0.000 C 
ATOM     14  C   UNL     1       0.649  10.027  18.802  0.00  0.00    +0.000 C 
ATOM     15  C   UNL     1       1.963  10.197  18.051  0.00  0.00    +0.000 C 
ATOM     16  C   UNL     1       2.438   8.846  17.512  0.00  0.00    +0.000 C 
ENDROOT
BRANCH  13  17
ATOM     17  C   UNL     1       0.879  12.479  19.584  0.00  0.00    +0.000 A 
ATOM     18  C   UNL     1       0.674  13.542  18.685  0.00  0.00    +0.000 A 
ATOM     19  C   UNL     1       1.475  14.685  18.730  0.00  0.00    +0.000 A 
ATOM     20  C   UNL     1       2.490  14.787  19.679  0.00  0.00    +0.000 A 
ATOM     21  C   UNL     1       2.699  13.740  20.568  0.00  0.00    +0.000 A 
ATOM     22  F   UNL     1       3.681  13.832  21.474  0.00  0.00    +0.000 F 
ATOM     23  C   UNL     1       1.909  12.596  20.533  0.00  0.00    +0.000 A 
ENDBRANCH  13  17
BRANCH   1  25
ATOM     24  C   UNL     1       1.508   3.539  21.016  0.00  0.00    +0.000 C 
ATOM     25  O   UNL     1       2.273   4.682  21.387  0.00  0.00    +0.000 OA
ENDBRANCH   1  25
TORSDOF 2
ENDMDL
MODEL 3
REMARK VINA RESULT:      -7.2      3.865      6.881
REMARK  Name = 
REMARK  4 active torsions:
REMARK  status: ('A' for Active; 'I' for Inactive)
REMARK    1  A    between atoms: C_1  and  O_2
REMARK    2  A    between atoms: O_2  and  C_3
REMARK    3  A    between atoms: C_12  and  C_13
REMARK    4  A    between atoms: C_15  and  C_16
REMARK                            x       y       z     vdW  Elec       q    Type
REMARK                         _______ _______ _______ _____ _____    ______ ____
ROOT
ATOM      1  C   UNL     1       2.347   5.672  20.346  0.00  0.00    +0.000 A 
ATOM      2  C   UNL     1       3.129   5.601  19.192  0.00  0.00    +0.000 A 
ATOM      3  C   UNL     1       3.159   6.671  18.292  0.00  0.00    +0.000 A 
ATOM      4  C   UNL     1       2.414   7.829  18.541  0.00  0.00    +0.000 A 
ATOM      5  C   UNL     1       1.622   7.890  19.699  0.00  0.00    +0.000 A 
ATOM      6  C   UNL     1       1.582   6.815  20.595  0.00  0.00    +0.000 A 
ATOM      7  C   UNL     1       0.845   9.115  19.962  0.00  0.00    +0.000 C 
ATOM      8  N   UNL     1       0.300   9.426  21.095  0.00  0.00    +0.000 NA
ATOM      9  N   UNL     1      -0.258  10.672  20.926  0.00  0.00    +0.000 N 
ATOM     10  C   UNL     1      -1.016  11.311  21.890  0.00  0.00    +0.000 C 
ATOM     11  C   UNL     1      -1.153  10.628  23.226  0.00  0.00    +0.000 C 
ATOM     12  O   UNL     1      -1.546  12.408  21.701  0.00  0.00    +0.000 OA
ATOM     13  C   UNL     1       0.028  11.265  19.616  0.00  0.00    +0.000 C 
ATOM     14  C   UNL     1       0.646  10.098  18.838  0.00  0.00    +0.000 C 
ATOM     15  C   UNL     1       1.969  10.288  18.107  0.00  0.00    +0.000 C 
ATOM     16  C   UNL     1       2.445   8.953  17.530  0.00  0.00    +0.000 C 
ENDROOT
BRANCH  13  17
ATOM     17  C   UNL     1       0.876  12.524  19.700  0.00  0.00    +0.000 A 
ATOM     18  C   UNL     1       1.978  12.626  20.569  0.00  0.00    +0.000 A 
ATOM     19  C   UNL     1       2.731  13.801  20.639  0.00  0.00    +0.000 A 
ATOM     20  C   UNL     1       2.398  14.889  19.836  0.00  0.00    +0.000 A 
ATOM     21  C   UNL     1       1.310  14.795  18.977  0.00  0.00    +0.000 A 
ATOM     22  F   UNL     1       0.983  15.844  18.212  0.00  0.00    +0.000 F 
ATOM     23  C   UNL     1       0.552  13.632  18.899  0.00  0.00    +0.000 A 
ENDBRANCH  13  17
BRANCH   1  25
ATOM     24  C   UNL     1       1.388   3.580  20.886  0.00  0.00    +0.000 C 
ATOM     25  O   UNL     1       2.225   4.668  21.267  0.00  0.00    +0.000 OA
ENDBRANCH   1  25
TORSDOF 2
ENDMDL
MODEL 4
REMARK VINA RESULT:      -7.2      0.956      1.357
REMARK  Name = 
REMARK  4 active torsions:
REMARK  status: ('A' for Active; 'I' for Inactive)
REMARK    1  A    between atoms: C_1  and  O_2
REMARK    2  A    between atoms: O_2  and  C_3
REMARK    3  A    between atoms: C_12  and  C_13
REMARK    4  A    between atoms: C_15  and  C_16
REMARK                            x       y       z     vdW  Elec       q    Type
REMARK                         _______ _______ _______ _____ _____    ______ ____
ROOT
ATOM      1  C   UNL     1      -6.048  12.457  19.802  0.00  0.00    +0.000 A 
ATOM      2  C   UNL     1      -6.579  11.565  18.869  0.00  0.00    +0.000 A 
ATOM      3  C   UNL     1      -5.733  10.842  18.022  0.00  0.00    +0.000 A 
ATOM      4  C   UNL     1      -4.345  10.997  18.105  0.00  0.00    +0.000 A 
ATOM      5  C   UNL     1      -3.818  11.903  19.039  0.00  0.00    +0.000 A 
ATOM      6  C   UNL     1      -4.664  12.636  19.880  0.00  0.00    +0.000 A 
ATOM      7  C   UNL     1      -2.355  12.057  19.129  0.00  0.00    +0.000 C 
ATOM      8  N   UNL     1      -1.721  12.630  20.103  0.00  0.00    +0.000 NA
ATOM      9  N   UNL     1      -0.380  12.490  19.827  0.00  0.00    +0.000 N 
ATOM     10  C   UNL     1       0.624  13.056  20.591  0.00  0.00    +0.000 C 
ATOM     11  C   UNL     1       0.211  13.787  21.843  0.00  0.00    +0.000 C 
ATOM     12  O   UNL     1       1.818  12.957  20.299  0.00  0.00    +0.000 OA
ATOM     13  C   UNL     1      -0.113  11.679  18.634  0.00  0.00    +0.000 C 
ATOM     14  C   UNL     1      -1.502  11.521  18.007  0.00  0.00    +0.000 C 
ATOM     15  C   UNL     1      -2.008  10.138  17.620  0.00  0.00    +0.000 C 
ATOM     16  C   UNL     1      -3.462  10.224  17.151  0.00  0.00    +0.000 C 
ENDROOT
BRANCH  13  17
ATOM     17  C   UNL     1       0.623  10.386  18.943  0.00  0.00    +0.000 A 
ATOM     18  C   UNL     1       1.457   9.756  18.001  0.00  0.00    +0.000 A 
ATOM     19  C   UNL     1       2.109   8.559  18.306  0.00  0.00    +0.000 A 
ATOM     20  C   UNL     1       1.942   7.976  19.560  0.00  0.00    +0.000 A 
ATOM     21  C   UNL     1       1.118   8.591  20.494  0.00  0.00    +0.000 A 
ATOM     22  F   UNL     1       0.948   8.026  21.696  0.00  0.00    +0.000 F 
ATOM     23  C   UNL     1       0.463   9.783  20.202  0.00  0.00    +0.000 A 
ENDBRANCH  13  17
BRANCH   1  25
ATOM     24  C   UNL     1      -6.503  13.082  22.036  0.00  0.00    +0.000 C 
ATOM     25  O   UNL     1      -6.791  13.233  20.649  0.00  0.00    +0.000 OA
ENDBRANCH   1  25
TORSDOF 2
ENDMDL
MODEL 5
REMARK VINA RESULT:      -6.7     10.426     12.175
REMARK  Name = 
REMARK  4 active torsions:
REMARK  status: ('A' for Active; 'I' for Inactive)
REMARK    1  A    between atoms: C_1  and  O_2
REMARK    2  A    between atoms: O_2  and  C_3
REMARK    3  A    between atoms: C_12  and  C_13
REMARK    4  A    between atoms: C_15  and  C_16
REMARK                            x       y       z     vdW  Elec       q    Type
REMARK                         _______ _______ _______ _____ _____    ______ ____
ROOT
ATOM      1  C   UNL     1       6.468  11.963  24.525  0.00  0.00    +0.000 A 
ATOM      2  C   UNL     1       6.615  13.118  25.294  0.00  0.00    +0.000 A 
ATOM      3  C   UNL     1       7.530  14.106  24.917  0.00  0.00    +0.000 A 
ATOM      4  C   UNL     1       8.303  13.953  23.761  0.00  0.00    +0.000 A 
ATOM      5  C   UNL     1       8.157  12.784  22.998  0.00  0.00    +0.000 A 
ATOM      6  C   UNL     1       7.250  11.789  23.380  0.00  0.00    +0.000 A 
ATOM      7  C   UNL     1       8.967  12.630  21.775  0.00  0.00    +0.000 C 
ATOM      8  N   UNL     1       8.753  11.760  20.840  0.00  0.00    +0.000 NA
ATOM      9  N   UNL     1       9.686  12.008  19.860  0.00  0.00    +0.000 N 
ATOM     10  C   UNL     1       9.840  11.225  18.731  0.00  0.00    +0.000 C 
ATOM     11  C   UNL     1       8.864  10.094  18.536  0.00  0.00    +0.000 C 
ATOM     12  O   UNL     1      10.715  11.438  17.887  0.00  0.00    +0.000 OA
ATOM     13  C   UNL     1      10.510  13.192  20.127  0.00  0.00    +0.000 C 
ATOM     14  C   UNL     1      10.152  13.540  21.576  0.00  0.00    +0.000 C 
ATOM     15  C   UNL     1       9.749  14.964  21.938  0.00  0.00    +0.000 C 
ATOM     16  C   UNL     1       9.306  15.026  23.401  0.00  0.00    +0.000 C 
ENDROOT
BRANCH  13  17
ATOM     17  C   UNL     1      10.307  14.304  19.112  0.00  0.00    +0.000 A 
ATOM     18  C   UNL     1       9.026  14.739  18.724  0.00  0.00    +0.000 A 
ATOM     19  C   UNL     1       8.867  15.753  17.777  0.00  0.00    +0.000 A 
ATOM     20  C   UNL     1       9.988  16.354  17.208  0.00  0.00    +0.000 A 
ATOM     21  C   UNL     1      11.255  15.928  17.584  0.00  0.00    +0.000 A 
ATOM     22  F   UNL     1      12.333  16.498  17.029  0.00  0.00    +0.000 F 
ATOM     23  C   UNL     1      11.426  14.919  18.525  0.00  0.00    +0.000 A 
ENDBRANCH  13  17
BRANCH   1  25
ATOM     24  C   UNL     1       5.154  10.890  26.172  0.00  0.00    +0.000 C 
ATOM     25  O   UNL     1       5.627  10.927  24.828  0.00  0.00    +0.000 OA
ENDBRANCH   1  25
TORSDOF 2
ENDMDL
MODEL 6
REMARK VINA RESULT:      -6.7      1.500      1.835
REMARK  Name = 
REMARK  4 active torsions:
REMARK  status: ('A' for Active; 'I' for Inactive)
REMARK    1  A    between atoms: C_1  and  O_2
REMARK    2  A    between atoms: O_2  and  C_3
REMARK    3  A    between atoms: C_12  and  C_13
REMARK    4  A    between atoms: C_15  and  C_16
REMARK                            x       y       z     vdW  Elec       q    Type
REMARK                         _______ _______ _______ _____ _____    ______ ____
ROOT
ATOM      1  C   UNL     1      -6.661  12.809  19.675  0.00  0.00    +0.000 A 
ATOM      2  C   UNL     1      -7.049  11.925  18.667  0.00  0.00    +0.000 A 
ATOM      3  C   UNL     1      -6.090  11.184  17.969  0.00  0.00    +0.000 A 
ATOM      4  C   UNL     1      -4.731  11.314  18.278  0.00  0.00    +0.000 A 
ATOM      5  C   UNL     1      -4.347  12.212  19.286  0.00  0.00    +0.000 A 
ATOM      6  C   UNL     1      -5.306  12.962  19.978  0.00  0.00    +0.000 A 
ATOM      7  C   UNL     1      -2.916  12.339  19.614  0.00  0.00    +0.000 C 
ATOM      8  N   UNL     1      -2.439  12.903  20.679  0.00  0.00    +0.000 NA
ATOM      9  N   UNL     1      -1.074  12.738  20.625  0.00  0.00    +0.000 N 
ATOM     10  C   UNL     1      -0.198  13.287  21.544  0.00  0.00    +0.000 C 
ATOM     11  C   UNL     1      -0.796  14.028  22.712  0.00  0.00    +0.000 C 
ATOM     12  O   UNL     1       1.026  13.166  21.451  0.00  0.00    +0.000 OA
ATOM     13  C   UNL     1      -0.630  11.920  19.492  0.00  0.00    +0.000 C 
ATOM     14  C   UNL     1      -1.902  11.786  18.646  0.00  0.00    +0.000 C 
ATOM     15  C   UNL     1      -2.363  10.411  18.180  0.00  0.00    +0.000 C 
ATOM     16  C   UNL     1      -3.719  10.522  17.480  0.00  0.00    +0.000 C 
ENDROOT
BRANCH  13  17
ATOM     17  C   UNL     1       0.021  10.614  19.915  0.00  0.00    +0.000 A 
ATOM     18  C   UNL     1       1.041  10.007  19.160  0.00  0.00    +0.000 A 
ATOM     19  C   UNL     1       1.611   8.797  19.564  0.00  0.00    +0.000 A 
ATOM     20  C   UNL     1       1.175   8.179  20.734  0.00  0.00    +0.000 A 
ATOM     21  C   UNL     1       0.166   8.772  21.483  0.00  0.00    +0.000 A 
ATOM     22  F   UNL     1      -0.262   8.173  22.602  0.00  0.00    +0.000 F 
ATOM     23  C   UNL     1      -0.410   9.975  21.091  0.00  0.00    +0.000 A 
ENDBRANCH  13  17
BRANCH   1  25
ATOM     24  C   UNL     1      -7.020  14.082  21.634  0.00  0.00    +0.000 C 
ATOM     25  O   UNL     1      -7.519  13.599  20.390  0.00  0.00    +0.000 OA
ENDBRANCH   1  25
TORSDOF 2
ENDMDL
MODEL 7
REMARK VINA RESULT:      -6.6      1.176      1.445
REMARK  Name = 
REMARK  4 active torsions:
REMARK  status: ('A' for Active; 'I' for Inactive)
REMARK    1  A    between atoms: C_1  and  O_2
REMARK    2  A    between atoms: O_2  and  C_3
REMARK    3  A    between atoms: C_12  and  C_13
REMARK    4  A    between atoms: C_15  and  C_16
REMARK                            x       y       z     vdW  Elec       q    Type
REMARK                         _______ _______ _______ _____ _____    ______ ____
ROOT
ATOM      1  C   UNL     1      -7.088  12.370  20.768  0.00  0.00    +0.000 A 
ATOM      2  C   UNL     1      -7.516  11.699  19.622  0.00  0.00    +0.000 A 
ATOM      3  C   UNL     1      -6.590  11.281  18.661  0.00  0.00    +0.000 A 
ATOM      4  C   UNL     1      -5.223  11.522  18.841  0.00  0.00    +0.000 A 
ATOM      5  C   UNL     1      -4.801  12.207  19.991  0.00  0.00    +0.000 A 
ATOM      6  C   UNL     1      -5.728  12.636  20.948  0.00  0.00    +0.000 A 
ATOM      7  C   UNL     1      -3.359  12.452  20.181  0.00  0.00    +0.000 C 
ATOM      8  N   UNL     1      -2.801  12.814  21.292  0.00  0.00    +0.000 NA
ATOM      9  N   UNL     1      -1.448  12.857  21.049  0.00  0.00    +0.000 N 
ATOM     10  C   UNL     1      -0.516  13.294  21.973  0.00  0.00    +0.000 C 
ATOM     11  C   UNL     1      -1.020  13.654  23.346  0.00  0.00    +0.000 C 
ATOM     12  O   UNL     1       0.689  13.369  21.718  0.00  0.00    +0.000 OA
ATOM     13  C   UNL     1      -1.082  12.393  19.707  0.00  0.00    +0.000 C 
ATOM     14  C   UNL     1      -2.438  12.284  19.000  0.00  0.00    +0.000 C 
ATOM     15  C   UNL     1      -2.809  11.004  18.261  0.00  0.00    +0.000 C 
ATOM     16  C   UNL     1      -4.254  11.085  17.765  0.00  0.00    +0.000 C 
ENDROOT
BRANCH  13  17
ATOM     17  C   UNL     1      -0.241  11.128  19.719  0.00  0.00    +0.000 A 
ATOM     18  C   UNL     1      -0.316  10.190  20.765  0.00  0.00    +0.000 A 
ATOM     19  C   UNL     1       0.480   9.042  20.760  0.00  0.00    +0.000 A 
ATOM     20  C   UNL     1       1.359   8.811  19.704  0.00  0.00    +0.000 A 
ATOM     21  C   UNL     1       1.440   9.734  18.669  0.00  0.00    +0.000 A 
ATOM     22  F   UNL     1       2.293   9.518  17.660  0.00  0.00    +0.000 F 
ATOM     23  C   UNL     1       0.653  10.881  18.664  0.00  0.00    +0.000 A 
ENDBRANCH  13  17
BRANCH   1  25
ATOM     24  C   UNL     1      -7.348  12.930  23.051  0.00  0.00    +0.000 C 
ATOM     25  O   UNL     1      -7.917  12.847  21.747  0.00  0.00    +0.000 OA
ENDBRANCH   1  25
TORSDOF 2
ENDMDL
MODEL 8
REMARK VINA RESULT:      -6.6     10.430     12.213
REMARK  Name = 
REMARK  4 active torsions:
REMARK  status: ('A' for Active; 'I' for Inactive)
REMARK    1  A    between atoms: C_1  and  O_2
REMARK    2  A    between atoms: O_2  and  C_3
REMARK    3  A    between atoms: C_12  and  C_13
REMARK    4  A    between atoms: C_15  and  C_16
REMARK                            x       y       z     vdW  Elec       q    Type
REMARK                         _______ _______ _______ _____ _____    ______ ____
ROOT
ATOM      1  C   UNL     1       6.714  12.008  24.531  0.00  0.00    +0.000 A 
ATOM      2  C   UNL     1       6.881  13.166  25.291  0.00  0.00    +0.000 A 
ATOM      3  C   UNL     1       7.787  14.152  24.888  0.00  0.00    +0.000 A 
ATOM      4  C   UNL     1       8.530  13.994  23.713  0.00  0.00    +0.000 A 
ATOM      5  C   UNL     1       8.366  12.823  22.958  0.00  0.00    +0.000 A 
ATOM      6  C   UNL     1       7.467  11.829  23.367  0.00  0.00    +0.000 A 
ATOM      7  C   UNL     1       9.144  12.664  21.717  0.00  0.00    +0.000 C 
ATOM      8  N   UNL     1       8.907  11.790  20.790  0.00  0.00    +0.000 NA
ATOM      9  N   UNL     1       9.815  12.034  19.786  0.00  0.00    +0.000 N 
ATOM     10  C   UNL     1       9.941  11.247  18.657  0.00  0.00    +0.000 C 
ATOM     11  C   UNL     1       8.960  10.115  18.490  0.00  0.00    +0.000 C 
ATOM     12  O   UNL     1      10.795  11.456  17.791  0.00  0.00    +0.000 OA
ATOM     13  C   UNL     1      10.647  13.218  20.029  0.00  0.00    +0.000 C 
ATOM     14  C   UNL     1      10.325  13.572  21.485  0.00  0.00    +0.000 C 
ATOM     15  C   UNL     1       9.932  14.997  21.852  0.00  0.00    +0.000 C 
ATOM     16  C   UNL     1       9.525  15.066  23.325  0.00  0.00    +0.000 C 
ENDROOT
BRANCH  13  17
ATOM     17  C   UNL     1      10.419  14.327  19.015  0.00  0.00    +0.000 A 
ATOM     18  C   UNL     1      11.484  14.981  18.368  0.00  0.00    +0.000 A 
ATOM     19  C   UNL     1      11.246  16.008  17.452  0.00  0.00    +0.000 A 
ATOM     20  C   UNL     1       9.939  16.393  17.163  0.00  0.00    +0.000 A 
ATOM     21  C   UNL     1       8.883  15.754  17.799  0.00  0.00    +0.000 A 
ATOM     22  F   UNL     1       7.627  16.131  17.530  0.00  0.00    +0.000 F 
ATOM     23  C   UNL     1       9.107  14.731  18.714  0.00  0.00    +0.000 A 
ENDBRANCH  13  17
BRANCH   1  25
ATOM     24  C   UNL     1       5.350  11.004  26.180  0.00  0.00    +0.000 C 
ATOM     25  O   UNL     1       5.880  10.974  24.858  0.00  0.00    +0.000 OA
ENDBRANCH   1  25
TORSDOF 2
ENDMDL
MODEL 9
REMARK VINA RESULT:      -6.5      3.994      7.685
REMARK  Name = 
REMARK  4 active torsions:
REMARK  status: ('A' for Active; 'I' for Inactive)
REMARK    1  A    between atoms: C_1  and  O_2
REMARK    2  A    between atoms: O_2  and  C_3
REMARK    3  A    between atoms: C_12  and  C_13
REMARK    4  A    between atoms: C_15  and  C_16
REMARK                            x       y       z     vdW  Elec       q    Type
REMARK                         _______ _______ _______ _____ _____    ______ ____
ROOT
ATOM      1  C   UNL     1       4.742  15.052  18.189  0.00  0.00    +0.000 A 
ATOM      2  C   UNL     1       4.569  16.344  18.688  0.00  0.00    +0.000 A 
ATOM      3  C   UNL     1       3.328  16.748  19.191  0.00  0.00    +0.000 A 
ATOM      4  C   UNL     1       2.248  15.859  19.210  0.00  0.00    +0.000 A 
ATOM      5  C   UNL     1       2.425  14.564  18.698  0.00  0.00    +0.000 A 
ATOM      6  C   UNL     1       3.664  14.163  18.183  0.00  0.00    +0.000 A 
ATOM      7  C   UNL     1       1.287  13.628  18.727  0.00  0.00    +0.000 C 
ATOM      8  N   UNL     1       1.367  12.346  18.553  0.00  0.00    +0.000 NA
ATOM      9  N   UNL     1       0.095  11.852  18.732  0.00  0.00    +0.000 N 
ATOM     10  C   UNL     1      -0.247  10.527  18.537  0.00  0.00    +0.000 C 
ATOM     11  C   UNL     1       0.864   9.569  18.196  0.00  0.00    +0.000 C 
ATOM     12  O   UNL     1      -1.404  10.114  18.659  0.00  0.00    +0.000 OA
ATOM     13  C   UNL     1      -0.872  12.872  19.153  0.00  0.00    +0.000 C 
ATOM     14  C   UNL     1      -0.095  14.180  18.968  0.00  0.00    +0.000 C 
ATOM     15  C   UNL     1      -0.031  15.193  20.104  0.00  0.00    +0.000 C 
ATOM     16  C   UNL     1       0.912  16.339  19.731  0.00  0.00    +0.000 C 
ENDROOT
BRANCH  13  17
ATOM     17  C   UNL     1      -1.430  12.628  20.545  0.00  0.00    +0.000 A 
ATOM     18  C   UNL     1      -0.625  12.173  21.606  0.00  0.00    +0.000 A 
ATOM     19  C   UNL     1      -1.168  11.942  22.872  0.00  0.00    +0.000 A 
ATOM     20  C   UNL     1      -2.523  12.169  23.099  0.00  0.00    +0.000 A 
ATOM     21  C   UNL     1      -3.325  12.616  22.056  0.00  0.00    +0.000 A 
ATOM     22  F   UNL     1      -4.630  12.825  22.271  0.00  0.00    +0.000 F 
ATOM     23  C   UNL     1      -2.796  12.849  20.791  0.00  0.00    +0.000 A 
ENDBRANCH  13  17
BRANCH   1  25
ATOM     24  C   UNL     1       7.088  15.279  18.010  0.00  0.00    +0.000 C 
ATOM     25  O   UNL     1       5.904  14.575  17.647  0.00  0.00    +0.000 OA
ENDBRANCH   1  25
TORSDOF 2
ENDMDL
