MODEL 1
REMARK VINA RESULT:      -7.3      0.000      0.000
REMARK  Name = 
REMARK  7 active torsions:
REMARK  status: ('A' for Active; 'I' for Inactive)
REMARK    1  A    between atoms: C_1  and  C_2
REMARK    2  A    between atoms: C_2  and  C_3
REMARK    3  A    between atoms: C_9  and  N_10
REMARK    4  A    between atoms: C_11  and  C_13
REMARK    5  A    between atoms: C_20  and  C_21
REMARK    6  A    between atoms: C_21  and  O_23
REMARK    7  A    between atoms: O_23  and  C_24
REMARK                            x       y       z     vdW  Elec       q    Type
REMARK                         _______ _______ _______ _____ _____    ______ ____
ROOT
ATOM      1  C   UNL     1       6.229   4.338  15.096  0.00  0.00    +0.000 C 
ATOM      2  C   UNL     1       5.753   3.186  16.008  0.00  0.00    +0.000 C 
ATOM      3  C   UNL     1       4.357   3.399  16.618  0.00  0.00    +0.000 C 
ATOM      4  C   UNL     1       4.137   4.812  17.090  0.00  0.00    +0.000 A 
ATOM      5  C   UNL     1       5.007   5.819  16.732  0.00  0.00    +0.000 A 
ATOM      6  S   UNL     1       4.586   7.311  17.403  0.00  0.00    +0.000 S 
ATOM      7  C   UNL     1       3.202   6.678  18.161  0.00  0.00    +0.000 A 
ATOM      8  C   UNL     1       3.033   5.320  17.897  0.00  0.00    +0.000 A 
ATOM      9  C   UNL     1       6.235   5.670  15.884  0.00  0.00    +0.000 C 
ENDROOT
BRANCH   7  10
ATOM     10  N   UNL     1       2.375   7.497  18.934  0.00  0.00    +0.000 N 
ATOM     11  C   UNL     1       1.808   8.702  18.552  0.00  0.00    +0.000 C 
ATOM     12  O   UNL     1       1.902   9.245  17.456  0.00  0.00    +0.000 OA
ATOM     13  H   UNL     1       2.218   7.170  19.885  0.00  0.00    +0.000 HD
BRANCH  11  14
ATOM     14  C   UNL     1       0.941   9.394  19.559  0.00  0.00    +0.000 A 
ATOM     15  C   UNL     1       1.374   9.301  20.899  0.00  0.00    +0.000 A 
ATOM     16  C   UNL     1       0.644   9.872  21.943  0.00  0.00    +0.000 A 
ATOM     17  C   UNL     1      -0.534  10.552  21.666  0.00  0.00    +0.000 A 
ATOM     18  C   UNL     1      -0.986  10.647  20.349  0.00  0.00    +0.000 A 
ATOM     19  C   UNL     1      -0.264  10.061  19.296  0.00  0.00    +0.000 A 
ATOM     20 BR   UNL     1      -1.081  10.158  17.585  0.00  0.00    +0.000 Br
ENDBRANCH  11  14
ENDBRANCH   7  10
BRANCH   1  22
ATOM     21  C   UNL     1       5.871   3.513  12.691  0.00  0.00    +0.000 C 
ATOM     22  C   UNL     1       5.424   4.475  13.786  0.00  0.00    +0.000 C 
ENDBRANCH   1  22
BRANCH   8  23
ATOM     23  C   UNL     1       1.876   4.563  18.392  0.00  0.00    +0.000 C 
ATOM     24  O   UNL     1       1.097   3.970  17.655  0.00  0.00    +0.000 OA
BRANCH  23  25
ATOM     25  O   UNL     1       1.773   4.571  19.753  0.00  0.00    +0.000 OA
ATOM     26  C   UNL     1       0.939   3.555  20.309  0.00  0.00    +0.000 C 
ENDBRANCH  23  25
ENDBRANCH   8  23
TORSDOF 5
ENDMDL
MODEL 2
REMARK VINA RESULT:      -6.9      1.146      1.463
REMARK  Name = 
REMARK  7 active torsions:
REMARK  status: ('A' for Active; 'I' for Inactive)
REMARK    1  A    between atoms: C_1  and  C_2
REMARK    2  A    between atoms: C_2  and  C_3
REMARK    3  A    between atoms: C_9  and  N_10
REMARK    4  A    between atoms: C_11  and  C_13
REMARK    5  A    between atoms: C_20  and  C_21
REMARK    6  A    between atoms: C_21  and  O_23
REMARK    7  A    between atoms: O_23  and  C_24
REMARK                            x       y       z     vdW  Elec       q    Type
REMARK                         _______ _______ _______ _____ _____    ______ ____
ROOT
ATOM      1  C   UNL     1       6.301   4.257  15.291  0.00  0.00    +0.000 C 
ATOM      2  C   UNL     1       5.762   3.160  16.237  0.00  0.00    +0.000 C 
ATOM      3  C   UNL     1       4.337   3.419  16.754  0.00  0.00    +0.000 C 
ATOM      4  C   UNL     1       4.107   4.857  17.135  0.00  0.00    +0.000 A 
ATOM      5  C   UNL     1       5.007   5.836  16.772  0.00  0.00    +0.000 A 
ATOM      6  S   UNL     1       4.567   7.366  17.336  0.00  0.00    +0.000 S 
ATOM      7  C   UNL     1       3.135   6.788  18.048  0.00  0.00    +0.000 A 
ATOM      8  C   UNL     1       2.966   5.418  17.850  0.00  0.00    +0.000 A 
ATOM      9  C   UNL     1       6.279   5.630  16.004  0.00  0.00    +0.000 C 
ENDROOT
BRANCH   7  10
ATOM     10  N   UNL     1       2.276   7.654  18.728  0.00  0.00    +0.000 N 
ATOM     11  C   UNL     1       1.819   8.886  18.287  0.00  0.00    +0.000 C 
ATOM     12  O   UNL     1       2.059   9.417  17.207  0.00  0.00    +0.000 OA
ATOM     13  H   UNL     1       2.000   7.342  19.657  0.00  0.00    +0.000 HD
BRANCH  11  14
ATOM     14  C   UNL     1       0.888   9.630  19.194  0.00  0.00    +0.000 A 
ATOM     15  C   UNL     1       0.280  10.774  18.634  0.00  0.00    +0.000 A 
ATOM     16  C   UNL     1      -0.585  11.578  19.378  0.00  0.00    +0.000 A 
ATOM     17  C   UNL     1      -0.862  11.253  20.699  0.00  0.00    +0.000 A 
ATOM     18  C   UNL     1      -0.262  10.132  21.276  0.00  0.00    +0.000 A 
ATOM     19  C   UNL     1       0.621   9.328  20.537  0.00  0.00    +0.000 A 
ATOM     20 BR   UNL     1       1.459   7.925  21.503  0.00  0.00    +0.000 Br
ENDBRANCH  11  14
ENDBRANCH   7  10
BRANCH   1  22
ATOM     21  C   UNL     1       6.365   3.720  12.781  0.00  0.00    +0.000 C 
ATOM     22  C   UNL     1       5.572   4.328  13.932  0.00  0.00    +0.000 C 
ENDBRANCH   1  22
BRANCH   8  23
ATOM     23  C   UNL     1       1.775   4.699  18.320  0.00  0.00    +0.000 C 
ATOM     24  O   UNL     1       1.031   4.073  17.573  0.00  0.00    +0.000 OA
BRANCH  23  25
ATOM     25  O   UNL     1       1.596   4.783  19.670  0.00  0.00    +0.000 OA
ATOM     26  C   UNL     1       0.966   3.653  20.275  0.00  0.00    +0.000 C 
ENDBRANCH  23  25
ENDBRANCH   8  23
TORSDOF 5
ENDMDL
MODEL 3
REMARK VINA RESULT:      -6.9      3.312      4.897
REMARK  Name = 
REMARK  7 active torsions:
REMARK  status: ('A' for Active; 'I' for Inactive)
REMARK    1  A    between atoms: C_1  and  C_2
REMARK    2  A    between atoms: C_2  and  C_3
REMARK    3  A    between atoms: C_9  and  N_10
REMARK    4  A    between atoms: C_11  and  C_13
REMARK    5  A    between atoms: C_20  and  C_21
REMARK    6  A    between atoms: C_21  and  O_23
REMARK    7  A    between atoms: O_23  and  C_24
REMARK                            x       y       z     vdW  Elec       q    Type
REMARK                         _______ _______ _______ _____ _____    ______ ____
ROOT
ATOM      1  C   UNL     1       2.981   5.070  18.421  0.00  0.00    +0.000 C 
ATOM      2  C   UNL     1       2.946   5.033  19.965  0.00  0.00    +0.000 C 
ATOM      3  C   UNL     1       1.904   5.973  20.594  0.00  0.00    +0.000 C 
ATOM      4  C   UNL     1       1.846   7.317  19.917  0.00  0.00    +0.000 A 
ATOM      5  C   UNL     1       2.468   7.523  18.704  0.00  0.00    +0.000 A 
ATOM      6  S   UNL     1       2.304   9.111  18.150  0.00  0.00    +0.000 S 
ATOM      7  C   UNL     1       1.358   9.571  19.486  0.00  0.00    +0.000 A 
ATOM      8  C   UNL     1       1.141   8.512  20.366  0.00  0.00    +0.000 A 
ATOM      9  C   UNL     1       3.260   6.511  17.930  0.00  0.00    +0.000 C 
ENDROOT
BRANCH   7  10
ATOM     10  N   UNL     1       0.884  10.879  19.607  0.00  0.00    +0.000 N 
ATOM     11  C   UNL     1      -0.302  11.383  19.097  0.00  0.00    +0.000 C 
ATOM     12  O   UNL     1      -1.161  10.762  18.480  0.00  0.00    +0.000 OA
ATOM     13  H   UNL     1       1.509  11.518  20.094  0.00  0.00    +0.000 HD
BRANCH  11  14
ATOM     14  C   UNL     1      -0.601  12.825  19.370  0.00  0.00    +0.000 A 
ATOM     15  C   UNL     1      -0.016  13.747  18.475  0.00  0.00    +0.000 A 
ATOM     16  C   UNL     1      -0.186  15.123  18.632  0.00  0.00    +0.000 A 
ATOM     17  C   UNL     1      -0.948  15.607  19.687  0.00  0.00    +0.000 A 
ATOM     18  C   UNL     1      -1.526  14.713  20.590  0.00  0.00    +0.000 A 
ATOM     19  C   UNL     1      -1.346  13.328  20.447  0.00  0.00    +0.000 A 
ATOM     20 BR   UNL     1      -2.077  12.256  21.832  0.00  0.00    +0.000 Br
ENDBRANCH  11  14
ENDBRANCH   7  10
BRANCH   1  22
ATOM     21  C   UNL     1       1.304   3.130  18.294  0.00  0.00    +0.000 C 
ATOM     22  C   UNL     1       1.716   4.493  17.750  0.00  0.00    +0.000 C 
ENDBRANCH   1  22
BRANCH   8  23
ATOM     23  C   UNL     1       0.303   8.647  21.565  0.00  0.00    +0.000 C 
ATOM     24  O   UNL     1      -0.736   8.018  21.732  0.00  0.00    +0.000 OA
BRANCH  23  25
ATOM     25  O   UNL     1       0.810   9.527  22.477  0.00  0.00    +0.000 OA
ATOM     26  C   UNL     1       0.028   9.701  23.658  0.00  0.00    +0.000 C 
ENDBRANCH  23  25
ENDBRANCH   8  23
TORSDOF 5
ENDMDL
MODEL 4
REMARK VINA RESULT:      -6.9      0.997      1.206
REMARK  Name = 
REMARK  7 active torsions:
REMARK  status: ('A' for Active; 'I' for Inactive)
REMARK    1  A    between atoms: C_1  and  C_2
REMARK    2  A    between atoms: C_2  and  C_3
REMARK    3  A    between atoms: C_9  and  N_10
REMARK    4  A    between atoms: C_11  and  C_13
REMARK    5  A    between atoms: C_20  and  C_21
REMARK    6  A    between atoms: C_21  and  O_23
REMARK    7  A    between atoms: O_23  and  C_24
REMARK                            x       y       z     vdW  Elec       q    Type
REMARK                         _______ _______ _______ _____ _____    ______ ____
ROOT
ATOM      1  C   UNL     1       5.994   4.282  15.262  0.00  0.00    +0.000 C 
ATOM      2  C   UNL     1       5.596   3.139  16.222  0.00  0.00    +0.000 C 
ATOM      3  C   UNL     1       4.258   3.361  16.947  0.00  0.00    +0.000 C 
ATOM      4  C   UNL     1       4.081   4.778  17.424  0.00  0.00    +0.000 A 
ATOM      5  C   UNL     1       4.919   5.780  16.984  0.00  0.00    +0.000 A 
ATOM      6  S   UNL     1       4.561   7.279  17.675  0.00  0.00    +0.000 S 
ATOM      7  C   UNL     1       3.245   6.656  18.554  0.00  0.00    +0.000 A 
ATOM      8  C   UNL     1       3.052   5.296  18.318  0.00  0.00    +0.000 A 
ATOM      9  C   UNL     1       6.070   5.620  16.035  0.00  0.00    +0.000 C 
ENDROOT
BRANCH   7  10
ATOM     10  N   UNL     1       2.489   7.483  19.388  0.00  0.00    +0.000 N 
ATOM     11  C   UNL     1       1.681   8.540  18.999  0.00  0.00    +0.000 C 
ATOM     12  O   UNL     1       1.458   8.912  17.852  0.00  0.00    +0.000 OA
ATOM     13  H   UNL     1       2.587   7.293  20.383  0.00  0.00    +0.000 HD
BRANCH  11  14
ATOM     14  C   UNL     1       0.954   9.275  20.084  0.00  0.00    +0.000 A 
ATOM     15  C   UNL     1       0.362   8.463  21.075  0.00  0.00    +0.000 A 
ATOM     16  C   UNL     1      -0.372   9.015  22.126  0.00  0.00    +0.000 A 
ATOM     17  C   UNL     1      -0.527  10.392  22.209  0.00  0.00    +0.000 A 
ATOM     18  C   UNL     1       0.041  11.212  21.232  0.00  0.00    +0.000 A 
ATOM     19  C   UNL     1       0.768  10.662  20.164  0.00  0.00    +0.000 A 
ATOM     20 BR   UNL     1       1.356  11.897  18.847  0.00  0.00    +0.000 Br
ENDBRANCH  11  14
ENDBRANCH   7  10
BRANCH   1  22
ATOM     21  C   UNL     1       5.586   3.640  12.810  0.00  0.00    +0.000 C 
ATOM     22  C   UNL     1       5.080   4.410  14.025  0.00  0.00    +0.000 C 
ENDBRANCH   1  22
BRANCH   8  23
ATOM     23  C   UNL     1       1.940   4.546  18.917  0.00  0.00    +0.000 C 
ATOM     24  O   UNL     1       1.594   4.679  20.085  0.00  0.00    +0.000 OA
BRANCH  23  25
ATOM     25  O   UNL     1       1.324   3.705  18.036  0.00  0.00    +0.000 OA
ATOM     26  C   UNL     1       0.956   2.431  18.562  0.00  0.00    +0.000 C 
ENDBRANCH  23  25
ENDBRANCH   8  23
TORSDOF 5
ENDMDL
MODEL 5
REMARK VINA RESULT:      -6.8      1.739      2.396
REMARK  Name = 
REMARK  7 active torsions:
REMARK  status: ('A' for Active; 'I' for Inactive)
REMARK    1  A    between atoms: C_1  and  C_2
REMARK    2  A    between atoms: C_2  and  C_3
REMARK    3  A    between atoms: C_9  and  N_10
REMARK    4  A    between atoms: C_11  and  C_13
REMARK    5  A    between atoms: C_20  and  C_21
REMARK    6  A    between atoms: C_21  and  O_23
REMARK    7  A    between atoms: O_23  and  C_24
REMARK                            x       y       z     vdW  Elec       q    Type
REMARK                         _______ _______ _______ _____ _____    ______ ____
ROOT
ATOM      1  C   UNL     1       6.782   4.950  16.968  0.00  0.00    +0.000 C 
ATOM      2  C   UNL     1       6.636   4.588  18.462  0.00  0.00    +0.000 C 
ATOM      3  C   UNL     1       5.190   4.627  18.982  0.00  0.00    +0.000 C 
ATOM      4  C   UNL     1       4.415   5.810  18.462  0.00  0.00    +0.000 A 
ATOM      5  C   UNL     1       4.904   6.571  17.423  0.00  0.00    +0.000 A 
ATOM      6  S   UNL     1       3.890   7.864  17.030  0.00  0.00    +0.000 S 
ATOM      7  C   UNL     1       2.739   7.430  18.204  0.00  0.00    +0.000 A 
ATOM      8  C   UNL     1       3.106   6.280  18.901  0.00  0.00    +0.000 A 
ATOM      9  C   UNL     1       6.205   6.362  16.706  0.00  0.00    +0.000 C 
ENDROOT
BRANCH   7  10
ATOM     10  N   UNL     1       1.578   8.188  18.379  0.00  0.00    +0.000 N 
ATOM     11  C   UNL     1       1.424   9.542  18.124  0.00  0.00    +0.000 C 
ATOM     12  O   UNL     1       2.268  10.305  17.667  0.00  0.00    +0.000 OA
ATOM     13  H   UNL     1       0.788   7.678  18.769  0.00  0.00    +0.000 HD
BRANCH  11  14
ATOM     14  C   UNL     1       0.071  10.131  18.379  0.00  0.00    +0.000 A 
ATOM     15  C   UNL     1      -0.940   9.742  17.474  0.00  0.00    +0.000 A 
ATOM     16  C   UNL     1      -2.240  10.241  17.575  0.00  0.00    +0.000 A 
ATOM     17  C   UNL     1      -2.556  11.138  18.586  0.00  0.00    +0.000 A 
ATOM     18  C   UNL     1      -1.568  11.544  19.485  0.00  0.00    +0.000 A 
ATOM     19  C   UNL     1      -0.255  11.058  19.379  0.00  0.00    +0.000 A 
ATOM     20 BR   UNL     1       1.000  11.811  20.588  0.00  0.00    +0.000 Br
ENDBRANCH  11  14
ENDBRANCH   7  10
BRANCH   1  22
ATOM     21  C   UNL     1       6.143   4.365  14.551  0.00  0.00    +0.000 C 
ATOM     22  C   UNL     1       6.163   3.913  16.007  0.00  0.00    +0.000 C 
ENDBRANCH   1  22
BRANCH   8  23
ATOM     23  C   UNL     1       2.244   5.674  19.924  0.00  0.00    +0.000 C 
ATOM     24  O   UNL     1       1.678   6.325  20.796  0.00  0.00    +0.000 OA
BRANCH  23  25
ATOM     25  O   UNL     1       2.124   4.322  19.791  0.00  0.00    +0.000 OA
ATOM     26  C   UNL     1       0.875   3.775  20.213  0.00  0.00    +0.000 C 
ENDBRANCH  23  25
ENDBRANCH   8  23
TORSDOF 5
ENDMDL
MODEL 6
REMARK VINA RESULT:      -6.8      3.212      4.726
REMARK  Name = 
REMARK  7 active torsions:
REMARK  status: ('A' for Active; 'I' for Inactive)
REMARK    1  A    between atoms: C_1  and  C_2
REMARK    2  A    between atoms: C_2  and  C_3
REMARK    3  A    between atoms: C_9  and  N_10
REMARK    4  A    between atoms: C_11  and  C_13
REMARK    5  A    between atoms: C_20  and  C_21
REMARK    6  A    between atoms: C_21  and  O_23
REMARK    7  A    between atoms: O_23  and  C_24
REMARK                            x       y       z     vdW  Elec       q    Type
REMARK                         _______ _______ _______ _____ _____    ______ ____
ROOT
ATOM      1  C   UNL     1       2.898   4.654  18.456  0.00  0.00    +0.000 C 
ATOM      2  C   UNL     1       2.858   4.625  20.000  0.00  0.00    +0.000 C 
ATOM      3  C   UNL     1       1.864   5.618  20.624  0.00  0.00    +0.000 C 
ATOM      4  C   UNL     1       1.875   6.961  19.942  0.00  0.00    +0.000 A 
ATOM      5  C   UNL     1       2.509   7.131  18.731  0.00  0.00    +0.000 A 
ATOM      6  S   UNL     1       2.426   8.723  18.171  0.00  0.00    +0.000 S 
ATOM      7  C   UNL     1       1.501   9.235  19.504  0.00  0.00    +0.000 A 
ATOM      8  C   UNL     1       1.230   8.191  20.387  0.00  0.00    +0.000 A 
ATOM      9  C   UNL     1       3.250   6.078  17.962  0.00  0.00    +0.000 C 
ENDROOT
BRANCH   7  10
ATOM     10  N   UNL     1       1.093  10.565  19.619  0.00  0.00    +0.000 N 
ATOM     11  C   UNL     1      -0.037  11.139  19.059  0.00  0.00    +0.000 C 
ATOM     12  O   UNL     1      -0.897  10.572  18.392  0.00  0.00    +0.000 OA
ATOM     13  H   UNL     1       1.728  11.164  20.144  0.00  0.00    +0.000 HD
BRANCH  11  14
ATOM     14  C   UNL     1      -0.271  12.593  19.337  0.00  0.00    +0.000 A 
ATOM     15  C   UNL     1      -1.517  12.905  19.922  0.00  0.00    +0.000 A 
ATOM     16  C   UNL     1      -1.879  14.223  20.205  0.00  0.00    +0.000 A 
ATOM     17  C   UNL     1      -0.999  15.257  19.912  0.00  0.00    +0.000 A 
ATOM     18  C   UNL     1       0.233  14.970  19.323  0.00  0.00    +0.000 A 
ATOM     19  C   UNL     1       0.597  13.647  19.021  0.00  0.00    +0.000 A 
ATOM     20 BR   UNL     1       2.242  13.437  18.098  0.00  0.00    +0.000 Br
ENDBRANCH  11  14
ENDBRANCH   7  10
BRANCH   1  22
ATOM     21  C   UNL     1       1.056   2.866  18.417  0.00  0.00    +0.000 C 
ATOM     22  C   UNL     1       1.607   4.139  17.785  0.00  0.00    +0.000 C 
ENDBRANCH   1  22
BRANCH   8  23
ATOM     23  C   UNL     1       0.397   8.372  21.583  0.00  0.00    +0.000 C 
ATOM     24  O   UNL     1      -0.713   7.868  21.711  0.00  0.00    +0.000 OA
BRANCH  23  25
ATOM     25  O   UNL     1       0.994   9.140  22.540  0.00  0.00    +0.000 OA
ATOM     26  C   UNL     1       0.119   9.662  23.539  0.00  0.00    +0.000 C 
ENDBRANCH  23  25
ENDBRANCH   8  23
TORSDOF 5
ENDMDL
MODEL 7
REMARK VINA RESULT:      -6.8      3.493      5.067
REMARK  Name = 
REMARK  7 active torsions:
REMARK  status: ('A' for Active; 'I' for Inactive)
REMARK    1  A    between atoms: C_1  and  C_2
REMARK    2  A    between atoms: C_2  and  C_3
REMARK    3  A    between atoms: C_9  and  N_10
REMARK    4  A    between atoms: C_11  and  C_13
REMARK    5  A    between atoms: C_20  and  C_21
REMARK    6  A    between atoms: C_21  and  O_23
REMARK    7  A    between atoms: O_23  and  C_24
REMARK                            x       y       z     vdW  Elec       q    Type
REMARK                         _______ _______ _______ _____ _____    ______ ____
ROOT
ATOM      1  C   UNL     1       3.110   5.454  18.330  0.00  0.00    +0.000 C 
ATOM      2  C   UNL     1       3.150   5.446  19.874  0.00  0.00    +0.000 C 
ATOM      3  C   UNL     1       2.045   6.284  20.538  0.00  0.00    +0.000 C 
ATOM      4  C   UNL     1       1.814   7.601  19.843  0.00  0.00    +0.000 A 
ATOM      5  C   UNL     1       2.355   7.846  18.600  0.00  0.00    +0.000 A 
ATOM      6  S   UNL     1       1.998   9.396  18.029  0.00  0.00    +0.000 S 
ATOM      7  C   UNL     1       1.072   9.782  19.402  0.00  0.00    +0.000 A 
ATOM      8  C   UNL     1       1.009   8.724  20.308  0.00  0.00    +0.000 A 
ATOM      9  C   UNL     1       3.212   6.906  17.804  0.00  0.00    +0.000 C 
ENDROOT
BRANCH   7  10
ATOM     10  N   UNL     1       0.468  11.036  19.525  0.00  0.00    +0.000 N 
ATOM     11  C   UNL     1       0.932  12.111  20.266  0.00  0.00    +0.000 C 
ATOM     12  O   UNL     1       1.972  12.165  20.914  0.00  0.00    +0.000 OA
ATOM     13  H   UNL     1      -0.422  11.132  19.041  0.00  0.00    +0.000 HD
BRANCH  11  14
ATOM     14  C   UNL     1       0.111  13.364  20.231  0.00  0.00    +0.000 A 
ATOM     15  C   UNL     1       0.392  14.243  19.163  0.00  0.00    +0.000 A 
ATOM     16  C   UNL     1      -0.276  15.462  19.028  0.00  0.00    +0.000 A 
ATOM     17  C   UNL     1      -1.241  15.825  19.958  0.00  0.00    +0.000 A 
ATOM     18  C   UNL     1      -1.525  14.975  21.028  0.00  0.00    +0.000 A 
ATOM     19  C   UNL     1      -0.846  13.755  21.178  0.00  0.00    +0.000 A 
ATOM     20 BR   UNL     1      -1.247  12.780  22.757  0.00  0.00    +0.000 Br
ENDBRANCH  11  14
ENDBRANCH   7  10
BRANCH   1  22
ATOM     21  C   UNL     1       1.738   3.289  18.191  0.00  0.00    +0.000 C 
ATOM     22  C   UNL     1       1.883   4.735  17.730  0.00  0.00    +0.000 C 
ENDBRANCH   1  22
BRANCH   8  23
ATOM     23  C   UNL     1       0.217   8.796  21.543  0.00  0.00    +0.000 C 
ATOM     24  O   UNL     1      -0.840   8.195  21.698  0.00  0.00    +0.000 OA
BRANCH  23  25
ATOM     25  O   UNL     1       0.789   9.581  22.501  0.00  0.00    +0.000 OA
ATOM     26  C   UNL     1       0.169   9.527  23.786  0.00  0.00    +0.000 C 
ENDBRANCH  23  25
ENDBRANCH   8  23
TORSDOF 5
ENDMDL
MODEL 8
REMARK VINA RESULT:      -6.7      3.206      4.808
REMARK  Name = 
REMARK  7 active torsions:
REMARK  status: ('A' for Active; 'I' for Inactive)
REMARK    1  A    between atoms: C_1  and  C_2
REMARK    2  A    between atoms: C_2  and  C_3
REMARK    3  A    between atoms: C_9  and  N_10
REMARK    4  A    between atoms: C_11  and  C_13
REMARK    5  A    between atoms: C_20  and  C_21
REMARK    6  A    between atoms: C_21  and  O_23
REMARK    7  A    between atoms: O_23  and  C_24
REMARK                            x       y       z     vdW  Elec       q    Type
REMARK                         _______ _______ _______ _____ _____    ______ ____
ROOT
ATOM      1  C   UNL     1       2.656   4.440  18.560  0.00  0.00    +0.000 C 
ATOM      2  C   UNL     1       2.934   4.599  20.072  0.00  0.00    +0.000 C 
ATOM      3  C   UNL     1       2.139   5.732  20.743  0.00  0.00    +0.000 C 
ATOM      4  C   UNL     1       2.075   6.978  19.900  0.00  0.00    +0.000 A 
ATOM      5  C   UNL     1       2.453   6.954  18.575  0.00  0.00    +0.000 A 
ATOM      6  S   UNL     1       2.334   8.469  17.836  0.00  0.00    +0.000 S 
ATOM      7  C   UNL     1       1.731   9.205  19.245  0.00  0.00    +0.000 A 
ATOM      8  C   UNL     1       1.596   8.298  20.296  0.00  0.00    +0.000 A 
ATOM      9  C   UNL     1       2.967   5.763  17.821  0.00  0.00    +0.000 C 
ENDROOT
BRANCH   7  10
ATOM     10  N   UNL     1       1.421  10.567  19.262  0.00  0.00    +0.000 N 
ATOM     11  C   UNL     1       0.270  11.162  18.771  0.00  0.00    +0.000 C 
ATOM     12  O   UNL     1      -0.696  10.596  18.270  0.00  0.00    +0.000 OA
ATOM     13  H   UNL     1       2.148  11.167  19.646  0.00  0.00    +0.000 HD
BRANCH  11  14
ATOM     14  C   UNL     1       0.159  12.650  18.916  0.00  0.00    +0.000 A 
ATOM     15  C   UNL     1       1.286  13.386  18.488  0.00  0.00    +0.000 A 
ATOM     16  C   UNL     1       1.330  14.777  18.596  0.00  0.00    +0.000 A 
ATOM     17  C   UNL     1       0.248  15.461  19.131  0.00  0.00    +0.000 A 
ATOM     18  C   UNL     1      -0.871  14.751  19.571  0.00  0.00    +0.000 A 
ATOM     19  C   UNL     1      -0.916  13.350  19.479  0.00  0.00    +0.000 A 
ATOM     20 BR   UNL     1      -2.445  12.525  20.245  0.00  0.00    +0.000 Br
ENDBRANCH  11  14
ENDBRANCH   7  10
BRANCH   1  22
ATOM     21  C   UNL     1       0.911   2.573  18.813  0.00  0.00    +0.000 C 
ATOM     22  C   UNL     1       1.230   3.946  18.233  0.00  0.00    +0.000 C 
ENDBRANCH   1  22
BRANCH   8  23
ATOM     23  C   UNL     1       1.038   8.684  21.598  0.00  0.00    +0.000 C 
ATOM     24  O   UNL     1       1.714   8.776  22.617  0.00  0.00    +0.000 OA
BRANCH  23  25
ATOM     25  O   UNL     1      -0.300   8.948  21.551  0.00  0.00    +0.000 OA
ATOM     26  C   UNL     1      -0.770   9.896  22.510  0.00  0.00    +0.000 C 
ENDBRANCH  23  25
ENDBRANCH   8  23
TORSDOF 5
ENDMDL
MODEL 9
REMARK VINA RESULT:      -6.6      3.527      5.203
REMARK  Name = 
REMARK  7 active torsions:
REMARK  status: ('A' for Active; 'I' for Inactive)
REMARK    1  A    between atoms: C_1  and  C_2
REMARK    2  A    between atoms: C_2  and  C_3
REMARK    3  A    between atoms: C_9  and  N_10
REMARK    4  A    between atoms: C_11  and  C_13
REMARK    5  A    between atoms: C_20  and  C_21
REMARK    6  A    between atoms: C_21  and  O_23
REMARK    7  A    between atoms: O_23  and  C_24
REMARK                            x       y       z     vdW  Elec       q    Type
REMARK                         _______ _______ _______ _____ _____    ______ ____
ROOT
ATOM      1  C   UNL     1       3.095   5.768  18.360  0.00  0.00    +0.000 C 
ATOM      2  C   UNL     1       3.143   5.730  19.904  0.00  0.00    +0.000 C 
ATOM      3  C   UNL     1       2.003   6.501  20.589  0.00  0.00    +0.000 C 
ATOM      4  C   UNL     1       1.709   7.820  19.923  0.00  0.00    +0.000 A 
ATOM      5  C   UNL     1       2.231   8.116  18.683  0.00  0.00    +0.000 A 
ATOM      6  S   UNL     1       1.801   9.659  18.147  0.00  0.00    +0.000 S 
ATOM      7  C   UNL     1       0.864   9.973  19.531  0.00  0.00    +0.000 A 
ATOM      8  C   UNL     1       0.854   8.895  20.414  0.00  0.00    +0.000 A 
ATOM      9  C   UNL     1       3.127   7.234  17.865  0.00  0.00    +0.000 C 
ENDROOT
BRANCH   7  10
ATOM     10  N   UNL     1       0.203  11.194  19.682  0.00  0.00    +0.000 N 
ATOM     11  C   UNL     1       0.690  12.329  20.313  0.00  0.00    +0.000 C 
ATOM     12  O   UNL     1       1.799  12.473  20.816  0.00  0.00    +0.000 OA
ATOM     13  H   UNL     1      -0.746  11.216  19.315  0.00  0.00    +0.000 HD
BRANCH  11  14
ATOM     14  C   UNL     1      -0.206  13.530  20.337  0.00  0.00    +0.000 A 
ATOM     15  C   UNL     1      -1.489  13.318  20.884  0.00  0.00    +0.000 A 
ATOM     16  C   UNL     1      -2.436  14.342  20.940  0.00  0.00    +0.000 A 
ATOM     17  C   UNL     1      -2.117  15.602  20.450  0.00  0.00    +0.000 A 
ATOM     18  C   UNL     1      -0.857  15.829  19.894  0.00  0.00    +0.000 A 
ATOM     19  C   UNL     1       0.095  14.798  19.822  0.00  0.00    +0.000 A 
ATOM     20 BR   UNL     1       1.706  15.229  18.914  0.00  0.00    +0.000 Br
ENDBRANCH  11  14
ENDBRANCH   7  10
BRANCH   1  22
ATOM     21  C   UNL     1       2.091   3.492  17.724  0.00  0.00    +0.000 C 
ATOM     22  C   UNL     1       1.900   5.005  17.750  0.00  0.00    +0.000 C 
ENDBRANCH   1  22
BRANCH   8  23
ATOM     23  C   UNL     1       0.066   8.904  21.654  0.00  0.00    +0.000 C 
ATOM     24  O   UNL     1      -0.812   8.083  21.897  0.00  0.00    +0.000 OA
BRANCH  23  25
ATOM     25  O   UNL     1       0.425   9.904  22.510  0.00  0.00    +0.000 OA
ATOM     26  C   UNL     1      -0.648  10.501  23.238  0.00  0.00    +0.000 C 
ENDBRANCH  23  25
ENDBRANCH   8  23
TORSDOF 5
ENDMDL
