MODEL 1
REMARK VINA RESULT:      -7.8      0.000      0.000
REMARK  Name = 
REMARK  6 active torsions:
REMARK  status: ('A' for Active; 'I' for Inactive)
REMARK    1  A    between atoms: C_1  and  C_2
REMARK    2  A    between atoms: C_2  and  C_3
REMARK    3  A    between atoms: C_4  and  C_5
REMARK    4  A    between atoms: C_5  and  C_6
REMARK    5  A    between atoms: C_7  and  O_8
REMARK    6  A    between atoms: C_10  and  O_11
REMARK                            x       y       z     vdW  Elec       q    Type
REMARK                         _______ _______ _______ _____ _____    ______ ____
ROOT
ATOM      1  C   UNL     1       2.167   7.016  19.700  0.00  0.00    +0.000 A 
ATOM      2  C   UNL     1       3.008   7.198  18.587  0.00  0.00    +0.000 A 
ATOM      3  C   UNL     1       2.945   8.350  17.809  0.00  0.00    +0.000 A 
ATOM      4  C   UNL     1       2.020   9.332  18.129  0.00  0.00    +0.000 A 
ATOM      5  C   UNL     1       1.181   9.205  19.245  0.00  0.00    +0.000 A 
ATOM      6  C   UNL     1       1.259   8.046  20.021  0.00  0.00    +0.000 A 
ATOM      7  O   UNL     1       0.431   7.874  21.106  0.00  0.00    +0.000 OA
ATOM      8  C   UNL     1       0.202   9.093  21.826  0.00  0.00    +0.000 C 
ATOM      9  C   UNL     1      -0.489  10.144  20.967  0.00  0.00    +0.000 C 
ATOM     10  C   UNL     1      -0.383  11.528  21.523  0.00  0.00    +0.000 A 
ATOM     11  C   UNL     1      -1.062  12.173  22.549  0.00  0.00    +0.000 A 
ATOM     12  C   UNL     1      -0.662  13.475  22.815  0.00  0.00    +0.000 A 
ATOM     13  C   UNL     1       0.378  14.092  22.137  0.00  0.00    +0.000 A 
ATOM     14  C   UNL     1       1.061  13.469  21.125  0.00  0.00    +0.000 A 
ATOM     15  C   UNL     1       0.630  12.198  20.827  0.00  0.00    +0.000 A 
ATOM     16  O   UNL     1       1.166  11.482  19.805  0.00  0.00    +0.000 OA
ATOM     17  C   UNL     1       0.285  10.339  19.645  0.00  0.00    +0.000 C 
ATOM     18  O   UNL     1       0.616  15.357  22.571  0.00  0.00    +0.000 OA
ATOM     19  C   UNL     1      -0.468  15.523  23.502  0.00  0.00    +0.000 C 
ATOM     20  O   UNL     1      -1.210  14.306  23.745  0.00  0.00    +0.000 OA
ENDROOT
BRANCH   2  21
ATOM     21  O   UNL     1       3.946   6.285  18.194  0.00  0.00    +0.000 OA
ATOM     22  H   UNL     1       4.031   5.596  18.873  0.00  0.00    +0.000 HD
ENDBRANCH   2  21
BRANCH   4  23
ATOM     23  O   UNL     1       1.930  10.451  17.351  0.00  0.00    +0.000 OA
ATOM     24  H   UNL     1       1.810  10.171  16.428  0.00  0.00    +0.000 HD
ENDBRANCH   4  23
BRANCH   1  25
ATOM     25  C   UNL     1       2.227   5.766  20.548  0.00  0.00    +0.000 C 
BRANCH  25  29
ATOM     26  C   UNL     1       0.804   2.261  19.571  0.00  0.00    +0.000 C 
ATOM     27  C   UNL     1       1.486   3.339  20.368  0.00  0.00    +0.000 C 
ATOM     28  C   UNL     1       1.972   2.978  21.743  0.00  0.00    +0.000 C 
ATOM     29  C   UNL     1       1.593   4.584  19.862  0.00  0.00    +0.000 C 
ENDBRANCH  25  29
ENDBRANCH   1  25
TORSDOF 4
ENDMDL
MODEL 2
REMARK VINA RESULT:      -7.1      2.017      8.147
REMARK  Name = 
REMARK  6 active torsions:
REMARK  status: ('A' for Active; 'I' for Inactive)
REMARK    1  A    between atoms: C_1  and  C_2
REMARK    2  A    between atoms: C_2  and  C_3
REMARK    3  A    between atoms: C_4  and  C_5
REMARK    4  A    between atoms: C_5  and  C_6
REMARK    5  A    between atoms: C_7  and  O_8
REMARK    6  A    between atoms: C_10  and  O_11
REMARK                            x       y       z     vdW  Elec       q    Type
REMARK                         _______ _______ _______ _____ _____    ______ ____
ROOT
ATOM      1  C   UNL     1      -0.379  10.506  20.690  0.00  0.00    +0.000 A 
ATOM      2  C   UNL     1      -0.562  11.313  19.552  0.00  0.00    +0.000 A 
ATOM      3  C   UNL     1       0.178  11.111  18.392  0.00  0.00    +0.000 A 
ATOM      4  C   UNL     1       1.128  10.101  18.363  0.00  0.00    +0.000 A 
ATOM      5  C   UNL     1       1.325   9.256  19.463  0.00  0.00    +0.000 A 
ATOM      6  C   UNL     1       0.571   9.467  20.621  0.00  0.00    +0.000 A 
ATOM      7  O   UNL     1       0.757   8.676  21.730  0.00  0.00    +0.000 OA
ATOM      8  C   UNL     1       1.017   7.306  21.396  0.00  0.00    +0.000 C 
ATOM      9  C   UNL     1       2.295   7.148  20.581  0.00  0.00    +0.000 C 
ATOM     10  C   UNL     1       2.390   5.832  19.877  0.00  0.00    +0.000 A 
ATOM     11  C   UNL     1       2.726   4.561  20.323  0.00  0.00    +0.000 A 
ATOM     12  C   UNL     1       2.671   3.551  19.373  0.00  0.00    +0.000 A 
ATOM     13  C   UNL     1       2.267   3.774  18.065  0.00  0.00    +0.000 A 
ATOM     14  C   UNL     1       1.929   5.022  17.610  0.00  0.00    +0.000 A 
ATOM     15  C   UNL     1       2.033   6.030  18.538  0.00  0.00    +0.000 A 
ATOM     16  O   UNL     1       1.795   7.328  18.216  0.00  0.00    +0.000 OA
ATOM     17  C   UNL     1       2.262   8.091  19.359  0.00  0.00    +0.000 C 
ATOM     18  O   UNL     1       2.266   2.645  17.311  0.00  0.00    +0.000 OA
ATOM     19  C   UNL     1       2.841   1.709  18.240  0.00  0.00    +0.000 C 
ATOM     20  O   UNL     1       2.994   2.242  19.575  0.00  0.00    +0.000 OA
ENDROOT
BRANCH   2  21
ATOM     21  O   UNL     1      -1.470  12.332  19.489  0.00  0.00    +0.000 OA
ATOM     22  H   UNL     1      -1.185  13.057  20.069  0.00  0.00    +0.000 HD
ENDBRANCH   2  21
BRANCH   4  23
ATOM     23  O   UNL     1       1.881   9.917  17.238  0.00  0.00    +0.000 OA
ATOM     24  H   UNL     1       1.923   8.963  17.053  0.00  0.00    +0.000 HD
ENDBRANCH   4  23
BRANCH   1  25
ATOM     25  C   UNL     1      -1.177  10.723  21.957  0.00  0.00    +0.000 C 
BRANCH  25  29
ATOM     26  C   UNL     1      -1.301  14.179  23.774  0.00  0.00    +0.000 C 
ATOM     27  C   UNL     1      -1.765  12.896  23.140  0.00  0.00    +0.000 C 
ATOM     28  C   UNL     1      -3.235  12.594  23.190  0.00  0.00    +0.000 C 
ATOM     29  C   UNL     1      -0.866  12.047  22.604  0.00  0.00    +0.000 C 
ENDBRANCH  25  29
ENDBRANCH   1  25
TORSDOF 4
ENDMDL
MODEL 3
REMARK VINA RESULT:      -6.8      1.347      1.740
REMARK  Name = 
REMARK  6 active torsions:
REMARK  status: ('A' for Active; 'I' for Inactive)
REMARK    1  A    between atoms: C_1  and  C_2
REMARK    2  A    between atoms: C_2  and  C_3
REMARK    3  A    between atoms: C_4  and  C_5
REMARK    4  A    between atoms: C_5  and  C_6
REMARK    5  A    between atoms: C_7  and  O_8
REMARK    6  A    between atoms: C_10  and  O_11
REMARK                            x       y       z     vdW  Elec       q    Type
REMARK                         _______ _______ _______ _____ _____    ______ ____
ROOT
ATOM      1  C   UNL     1       1.449   8.303  20.127  0.00  0.00    +0.000 A 
ATOM      2  C   UNL     1       1.854   8.519  18.798  0.00  0.00    +0.000 A 
ATOM      3  C   UNL     1       1.353   9.580  18.049  0.00  0.00    +0.000 A 
ATOM      4  C   UNL     1       0.421  10.432  18.623  0.00  0.00    +0.000 A 
ATOM      5  C   UNL     1       0.010  10.271  19.953  0.00  0.00    +0.000 A 
ATOM      6  C   UNL     1       0.526   9.205  20.696  0.00  0.00    +0.000 A 
ATOM      7  O   UNL     1       0.123   8.998  21.994  0.00  0.00    +0.000 OA
ATOM      8  C   UNL     1      -0.074  10.223  22.714  0.00  0.00    +0.000 C 
ATOM      9  C   UNL     1      -1.169  11.082  22.095  0.00  0.00    +0.000 C 
ATOM     10  C   UNL     1      -1.132  12.506  22.547  0.00  0.00    +0.000 A 
ATOM     11  C   UNL     1      -1.555  13.122  23.717  0.00  0.00    +0.000 A 
ATOM     12  C   UNL     1      -1.321  14.487  23.802  0.00  0.00    +0.000 A 
ATOM     13  C   UNL     1      -0.669  15.199  22.806  0.00  0.00    +0.000 A 
ATOM     14  C   UNL     1      -0.243  14.606  21.647  0.00  0.00    +0.000 A 
ATOM     15  C   UNL     1      -0.521  13.264  21.541  0.00  0.00    +0.000 A 
ATOM     16  O   UNL     1      -0.218  12.556  20.422  0.00  0.00    +0.000 OA
ATOM     17  C   UNL     1      -0.895  11.282  20.589  0.00  0.00    +0.000 C 
ATOM     18  O   UNL     1      -0.527  16.516  23.104  0.00  0.00    +0.000 OA
ATOM     19  C   UNL     1      -1.276  16.591  24.330  0.00  0.00    +0.000 C 
ATOM     20  O   UNL     1      -1.684  15.299  24.835  0.00  0.00    +0.000 OA
ENDROOT
BRANCH   2  21
ATOM     21  O   UNL     1       2.762   7.731  18.149  0.00  0.00    +0.000 OA
ATOM     22  H   UNL     1       2.469   7.585  17.235  0.00  0.00    +0.000 HD
ENDBRANCH   2  21
BRANCH   4  23
ATOM     23  O   UNL     1      -0.099  11.456  17.884  0.00  0.00    +0.000 OA
ATOM     24  H   UNL     1       0.572  11.738  17.239  0.00  0.00    +0.000 HD
ENDBRANCH   4  23
BRANCH   1  25
ATOM     25  C   UNL     1       1.986   7.151  20.947  0.00  0.00    +0.000 C 
BRANCH  25  29
ATOM     26  C   UNL     1       0.922   3.517  19.985  0.00  0.00    +0.000 C 
ATOM     27  C   UNL     1       1.785   4.732  20.187  0.00  0.00    +0.000 C 
ATOM     28  C   UNL     1       3.250   4.595  19.883  0.00  0.00    +0.000 C 
ATOM     29  C   UNL     1       1.246   5.867  20.673  0.00  0.00    +0.000 C 
ENDBRANCH  25  29
ENDBRANCH   1  25
TORSDOF 4
ENDMDL
MODEL 4
REMARK VINA RESULT:      -6.8      2.225      8.536
REMARK  Name = 
REMARK  6 active torsions:
REMARK  status: ('A' for Active; 'I' for Inactive)
REMARK    1  A    between atoms: C_1  and  C_2
REMARK    2  A    between atoms: C_2  and  C_3
REMARK    3  A    between atoms: C_4  and  C_5
REMARK    4  A    between atoms: C_5  and  C_6
REMARK    5  A    between atoms: C_7  and  O_8
REMARK    6  A    between atoms: C_10  and  O_11
REMARK                            x       y       z     vdW  Elec       q    Type
REMARK                         _______ _______ _______ _____ _____    ______ ____
ROOT
ATOM      1  C   UNL     1       0.985  14.055  20.659  0.00  0.00    +0.000 A 
ATOM      2  C   UNL     1       0.331  14.137  21.902  0.00  0.00    +0.000 A 
ATOM      3  C   UNL     1      -0.385  13.062  22.418  0.00  0.00    +0.000 A 
ATOM      4  C   UNL     1      -0.470  11.890  21.682  0.00  0.00    +0.000 A 
ATOM      5  C   UNL     1       0.188  11.754  20.451  0.00  0.00    +0.000 A 
ATOM      6  C   UNL     1       0.909  12.840  19.947  0.00  0.00    +0.000 A 
ATOM      7  O   UNL     1       1.543  12.754  18.730  0.00  0.00    +0.000 OA
ATOM      8  C   UNL     1       2.116  11.460  18.496  0.00  0.00    +0.000 C 
ATOM      9  C   UNL     1       1.061  10.362  18.468  0.00  0.00    +0.000 C 
ATOM     10  C   UNL     1       1.630   8.989  18.634  0.00  0.00    +0.000 A 
ATOM     11  C   UNL     1       2.284   8.140  17.751  0.00  0.00    +0.000 A 
ATOM     12  C   UNL     1       2.711   6.930  18.278  0.00  0.00    +0.000 A 
ATOM     13  C   UNL     1       2.542   6.593  19.612  0.00  0.00    +0.000 A 
ATOM     14  C   UNL     1       1.902   7.420  20.498  0.00  0.00    +0.000 A 
ATOM     15  C   UNL     1       1.433   8.596  19.963  0.00  0.00    +0.000 A 
ATOM     16  O   UNL     1       0.721   9.485  20.703  0.00  0.00    +0.000 OA
ATOM     17  C   UNL     1       0.190  10.434  19.741  0.00  0.00    +0.000 C 
ATOM     18  O   UNL     1       3.053   5.372  19.919  0.00  0.00    +0.000 OA
ATOM     19  C   UNL     1       3.444   4.915  18.612  0.00  0.00    +0.000 C 
ATOM     20  O   UNL     1       3.336   5.933  17.590  0.00  0.00    +0.000 OA
ENDROOT
BRANCH   2  21
ATOM     21  O   UNL     1       0.356  15.250  22.694  0.00  0.00    +0.000 OA
ATOM     22  H   UNL     1       0.219  16.040  22.147  0.00  0.00    +0.000 HD
ENDBRANCH   2  21
BRANCH   4  23
ATOM     23  O   UNL     1      -1.198  10.841  22.167  0.00  0.00    +0.000 OA
ATOM     24  H   UNL     1      -0.650  10.040  22.116  0.00  0.00    +0.000 HD
ENDBRANCH   4  23
BRANCH   1  25
ATOM     25  C   UNL     1       1.762  15.220  20.089  0.00  0.00    +0.000 C 
BRANCH  25  29
ATOM     26  C   UNL     1       0.246  17.810  17.587  0.00  0.00    +0.000 C 
ATOM     27  C   UNL     1       1.249  16.914  18.263  0.00  0.00    +0.000 C 
ATOM     28  C   UNL     1       2.626  16.850  17.668  0.00  0.00    +0.000 C 
ATOM     29  C   UNL     1       0.879  16.173  19.326  0.00  0.00    +0.000 C 
ENDBRANCH  25  29
ENDBRANCH   1  25
TORSDOF 4
ENDMDL
MODEL 5
REMARK VINA RESULT:      -6.8      4.872      7.304
REMARK  Name = 
REMARK  6 active torsions:
REMARK  status: ('A' for Active; 'I' for Inactive)
REMARK    1  A    between atoms: C_1  and  C_2
REMARK    2  A    between atoms: C_2  and  C_3
REMARK    3  A    between atoms: C_4  and  C_5
REMARK    4  A    between atoms: C_5  and  C_6
REMARK    5  A    between atoms: C_7  and  O_8
REMARK    6  A    between atoms: C_10  and  O_11
REMARK                            x       y       z     vdW  Elec       q    Type
REMARK                         _______ _______ _______ _____ _____    ______ ____
ROOT
ATOM      1  C   UNL     1      -3.306  12.663  21.025  0.00  0.00    +0.000 A 
ATOM      2  C   UNL     1      -3.423  12.335  22.388  0.00  0.00    +0.000 A 
ATOM      3  C   UNL     1      -2.339  11.852  23.114  0.00  0.00    +0.000 A 
ATOM      4  C   UNL     1      -1.122  11.675  22.475  0.00  0.00    +0.000 A 
ATOM      5  C   UNL     1      -0.952  12.014  21.125  0.00  0.00    +0.000 A 
ATOM      6  C   UNL     1      -2.048  12.504  20.409  0.00  0.00    +0.000 A 
ATOM      7  O   UNL     1      -1.927  12.820  19.076  0.00  0.00    +0.000 OA
ATOM      8  C   UNL     1      -0.660  13.412  18.761  0.00  0.00    +0.000 C 
ATOM      9  C   UNL     1       0.501  12.469  19.048  0.00  0.00    +0.000 C 
ATOM     10  C   UNL     1       1.824  13.163  19.124  0.00  0.00    +0.000 A 
ATOM     11  C   UNL     1       2.683  13.638  18.142  0.00  0.00    +0.000 A 
ATOM     12  C   UNL     1       3.830  14.273  18.596  0.00  0.00    +0.000 A 
ATOM     13  C   UNL     1       4.095  14.466  19.944  0.00  0.00    +0.000 A 
ATOM     14  C   UNL     1       3.257  14.007  20.925  0.00  0.00    +0.000 A 
ATOM     15  C   UNL     1       2.146  13.332  20.476  0.00  0.00    +0.000 A 
ATOM     16  O   UNL     1       1.259  12.763  21.332  0.00  0.00    +0.000 OA
ATOM     17  C   UNL     1       0.406  11.939  20.495  0.00  0.00    +0.000 C 
ATOM     18  O   UNL     1       5.261  15.128  20.164  0.00  0.00    +0.000 OA
ATOM     19  C   UNL     1       5.771  15.214  18.822  0.00  0.00    +0.000 C 
ATOM     20  O   UNL     1       4.827  14.780  17.817  0.00  0.00    +0.000 OA
ENDROOT
BRANCH   2  21
ATOM     21  O   UNL     1      -4.582  12.472  23.099  0.00  0.00    +0.000 OA
ATOM     22  H   UNL     1      -5.277  12.826  22.520  0.00  0.00    +0.000 HD
ENDBRANCH   2  21
BRANCH   4  23
ATOM     23  O   UNL     1      -0.062  11.171  23.173  0.00  0.00    +0.000 OA
ATOM     24  H   UNL     1       0.754  11.550  22.803  0.00  0.00    +0.000 HD
ENDBRANCH   4  23
BRANCH   1  25
ATOM     25  C   UNL     1      -4.481  13.185  20.227  0.00  0.00    +0.000 C 
BRANCH  25  29
ATOM     26  C   UNL     1      -6.855  10.415  18.827  0.00  0.00    +0.000 C 
ATOM     27  C   UNL     1      -6.296  11.470  19.743  0.00  0.00    +0.000 C 
ATOM     28  C   UNL     1      -7.096  11.815  20.966  0.00  0.00    +0.000 C 
ATOM     29  C   UNL     1      -5.148  12.099  19.423  0.00  0.00    +0.000 C 
ENDBRANCH  25  29
ENDBRANCH   1  25
TORSDOF 4
ENDMDL
MODEL 6
REMARK VINA RESULT:      -6.7      2.180      8.184
REMARK  Name = 
REMARK  6 active torsions:
REMARK  status: ('A' for Active; 'I' for Inactive)
REMARK    1  A    between atoms: C_1  and  C_2
REMARK    2  A    between atoms: C_2  and  C_3
REMARK    3  A    between atoms: C_4  and  C_5
REMARK    4  A    between atoms: C_5  and  C_6
REMARK    5  A    between atoms: C_7  and  O_8
REMARK    6  A    between atoms: C_10  and  O_11
REMARK                            x       y       z     vdW  Elec       q    Type
REMARK                         _______ _______ _______ _____ _____    ______ ____
ROOT
ATOM      1  C   UNL     1       1.203  14.174  20.287  0.00  0.00    +0.000 A 
ATOM      2  C   UNL     1       0.541  14.348  21.516  0.00  0.00    +0.000 A 
ATOM      3  C   UNL     1      -0.223  13.332  22.080  0.00  0.00    +0.000 A 
ATOM      4  C   UNL     1      -0.347  12.126  21.408  0.00  0.00    +0.000 A 
ATOM      5  C   UNL     1       0.317  11.898  20.194  0.00  0.00    +0.000 A 
ATOM      6  C   UNL     1       1.086  12.926  19.641  0.00  0.00    +0.000 A 
ATOM      7  O   UNL     1       1.727  12.749  18.438  0.00  0.00    +0.000 OA
ATOM      8  C   UNL     1       2.251  11.424  18.280  0.00  0.00    +0.000 C 
ATOM      9  C   UNL     1       1.154  10.367  18.299  0.00  0.00    +0.000 C 
ATOM     10  C   UNL     1       1.666   8.985  18.545  0.00  0.00    +0.000 A 
ATOM     11  C   UNL     1       2.294   8.064  17.716  0.00  0.00    +0.000 A 
ATOM     12  C   UNL     1       2.668   6.868  18.312  0.00  0.00    +0.000 A 
ATOM     13  C   UNL     1       2.473   6.611  19.661  0.00  0.00    +0.000 A 
ATOM     14  C   UNL     1       1.858   7.509  20.493  0.00  0.00    +0.000 A 
ATOM     15  C   UNL     1       1.441   8.672  19.891  0.00  0.00    +0.000 A 
ATOM     16  O   UNL     1       0.758   9.627  20.573  0.00  0.00    +0.000 OA
ATOM     17  C   UNL     1       0.274  10.543  19.555  0.00  0.00    +0.000 C 
ATOM     18  O   UNL     1       2.932   5.390  20.038  0.00  0.00    +0.000 OA
ATOM     19  C   UNL     1       3.317   4.848  18.763  0.00  0.00    +0.000 C 
ATOM     20  O   UNL     1       3.260   5.812  17.686  0.00  0.00    +0.000 OA
ENDROOT
BRANCH   2  21
ATOM     21  O   UNL     1       0.602  15.501  22.248  0.00  0.00    +0.000 OA
ATOM     22  H   UNL     1       0.370  16.256  21.682  0.00  0.00    +0.000 HD
ENDBRANCH   2  21
BRANCH   4  23
ATOM     23  O   UNL     1      -1.121  11.134  21.940  0.00  0.00    +0.000 OA
ATOM     24  H   UNL     1      -0.748  10.278  21.668  0.00  0.00    +0.000 HD
ENDBRANCH   4  23
BRANCH   1  25
ATOM     25  C   UNL     1       2.031  15.276  19.664  0.00  0.00    +0.000 C 
BRANCH  25  29
ATOM     26  C   UNL     1       5.917  15.138  20.044  0.00  0.00    +0.000 C 
ATOM     27  C   UNL     1       4.555  15.101  19.406  0.00  0.00    +0.000 C 
ATOM     28  C   UNL     1       4.497  14.934  17.915  0.00  0.00    +0.000 C 
ATOM     29  C   UNL     1       3.453  15.268  20.163  0.00  0.00    +0.000 C 
ENDBRANCH  25  29
ENDBRANCH   1  25
TORSDOF 4
ENDMDL
MODEL 7
REMARK VINA RESULT:      -6.7      2.061      8.556
REMARK  Name = 
REMARK  6 active torsions:
REMARK  status: ('A' for Active; 'I' for Inactive)
REMARK    1  A    between atoms: C_1  and  C_2
REMARK    2  A    between atoms: C_2  and  C_3
REMARK    3  A    between atoms: C_4  and  C_5
REMARK    4  A    between atoms: C_5  and  C_6
REMARK    5  A    between atoms: C_7  and  O_8
REMARK    6  A    between atoms: C_10  and  O_11
REMARK                            x       y       z     vdW  Elec       q    Type
REMARK                         _______ _______ _______ _____ _____    ______ ____
ROOT
ATOM      1  C   UNL     1       0.881  13.161  20.364  0.00  0.00    +0.000 A 
ATOM      2  C   UNL     1       0.244  13.136  21.617  0.00  0.00    +0.000 A 
ATOM      3  C   UNL     1      -0.315  11.968  22.125  0.00  0.00    +0.000 A 
ATOM      4  C   UNL     1      -0.257  10.806  21.370  0.00  0.00    +0.000 A 
ATOM      5  C   UNL     1       0.391  10.778  20.127  0.00  0.00    +0.000 A 
ATOM      6  C   UNL     1       0.954  11.958  19.632  0.00  0.00    +0.000 A 
ATOM      7  O   UNL     1       1.573  11.975  18.404  0.00  0.00    +0.000 OA
ATOM      8  C   UNL     1       2.308  10.773  18.138  0.00  0.00    +0.000 C 
ATOM      9  C   UNL     1       1.407   9.545  18.107  0.00  0.00    +0.000 C 
ATOM     10  C   UNL     1       2.155   8.257  18.240  0.00  0.00    +0.000 A 
ATOM     11  C   UNL     1       2.899   7.516  17.332  0.00  0.00    +0.000 A 
ATOM     12  C   UNL     1       3.492   6.365  17.831  0.00  0.00    +0.000 A 
ATOM     13  C   UNL     1       3.391   5.987  19.162  0.00  0.00    +0.000 A 
ATOM     14  C   UNL     1       2.663   6.709  20.071  0.00  0.00    +0.000 A 
ATOM     15  C   UNL     1       2.034   7.821  19.564  0.00  0.00    +0.000 A 
ATOM     16  O   UNL     1       1.224   8.597  20.331  0.00  0.00    +0.000 OA
ATOM     17  C   UNL     1       0.556   9.482  19.393  0.00  0.00    +0.000 C 
ATOM     18  O   UNL     1       4.065   4.841  19.439  0.00  0.00    +0.000 OA
ATOM     19  C   UNL     1       4.490   4.460  18.118  0.00  0.00    +0.000 C 
ATOM     20  O   UNL     1       4.231   5.470  17.116  0.00  0.00    +0.000 OA
ENDROOT
BRANCH   2  21
ATOM     21  O   UNL     1       0.135  14.230  22.429  0.00  0.00    +0.000 OA
ATOM     22  H   UNL     1       0.824  14.197  23.112  0.00  0.00    +0.000 HD
ENDBRANCH   2  21
BRANCH   4  23
ATOM     23  O   UNL     1      -0.832   9.663  21.847  0.00  0.00    +0.000 OA
ATOM     24  H   UNL     1      -1.258   9.204  21.103  0.00  0.00    +0.000 HD
ENDBRANCH   4  23
BRANCH   1  25
ATOM     25  C   UNL     1       1.488  14.428  19.803  0.00  0.00    +0.000 C 
BRANCH  25  29
ATOM     26  C   UNL     1      -0.451  17.275  17.959  0.00  0.00    +0.000 C 
ATOM     27  C   UNL     1       0.668  16.538  18.643  0.00  0.00    +0.000 C 
ATOM     28  C   UNL     1       2.003  17.222  18.714  0.00  0.00    +0.000 C 
ATOM     29  C   UNL     1       0.463  15.293  19.117  0.00  0.00    +0.000 C 
ENDBRANCH  25  29
ENDBRANCH   1  25
TORSDOF 4
ENDMDL
MODEL 8
REMARK VINA RESULT:      -6.6      6.733      8.201
REMARK  Name = 
REMARK  6 active torsions:
REMARK  status: ('A' for Active; 'I' for Inactive)
REMARK    1  A    between atoms: C_1  and  C_2
REMARK    2  A    between atoms: C_2  and  C_3
REMARK    3  A    between atoms: C_4  and  C_5
REMARK    4  A    between atoms: C_5  and  C_6
REMARK    5  A    between atoms: C_7  and  O_8
REMARK    6  A    between atoms: C_10  and  O_11
REMARK                            x       y       z     vdW  Elec       q    Type
REMARK                         _______ _______ _______ _____ _____    ______ ____
ROOT
ATOM      1  C   UNL     1       8.407  12.559  22.059  0.00  0.00    +0.000 A 
ATOM      2  C   UNL     1       7.964  11.876  23.207  0.00  0.00    +0.000 A 
ATOM      3  C   UNL     1       6.860  12.313  23.930  0.00  0.00    +0.000 A 
ATOM      4  C   UNL     1       6.191  13.456  23.521  0.00  0.00    +0.000 A 
ATOM      5  C   UNL     1       6.580  14.153  22.368  0.00  0.00    +0.000 A 
ATOM      6  C   UNL     1       7.688  13.700  21.647  0.00  0.00    +0.000 A 
ATOM      7  O   UNL     1       8.117  14.375  20.528  0.00  0.00    +0.000 OA
ATOM      8  C   UNL     1       7.033  14.894  19.746  0.00  0.00    +0.000 C 
ATOM      9  C   UNL     1       6.201  15.908  20.521  0.00  0.00    +0.000 C 
ATOM     10  C   UNL     1       4.860  16.163  19.913  0.00  0.00    +0.000 A 
ATOM     11  C   UNL     1       4.462  16.931  18.827  0.00  0.00    +0.000 A 
ATOM     12  C   UNL     1       3.107  16.901  18.528  0.00  0.00    +0.000 A 
ATOM     13  C   UNL     1       2.201  16.124  19.233  0.00  0.00    +0.000 A 
ATOM     14  C   UNL     1       2.578  15.358  20.305  0.00  0.00    +0.000 A 
ATOM     15  C   UNL     1       3.911  15.428  20.634  0.00  0.00    +0.000 A 
ATOM     16  O   UNL     1       4.418  14.776  21.712  0.00  0.00    +0.000 OA
ATOM     17  C   UNL     1       5.760  15.306  21.873  0.00  0.00    +0.000 C 
ATOM     18  O   UNL     1       0.932  16.227  18.759  0.00  0.00    +0.000 OA
ATOM     19  C   UNL     1       1.106  17.253  17.766  0.00  0.00    +0.000 C 
ATOM     20  O   UNL     1       2.490  17.603  17.535  0.00  0.00    +0.000 OA
ENDROOT
BRANCH   2  21
ATOM     21  O   UNL     1       8.562  10.745  23.688  0.00  0.00    +0.000 OA
ATOM     22  H   UNL     1       8.768  10.149  22.949  0.00  0.00    +0.000 HD
ENDBRANCH   2  21
BRANCH   4  23
ATOM     23  O   UNL     1       5.125  13.909  24.244  0.00  0.00    +0.000 OA
ATOM     24  H   UNL     1       5.416  14.045  25.162  0.00  0.00    +0.000 HD
ENDBRANCH   4  23
BRANCH   1  25
ATOM     25  C   UNL     1       9.610  12.094  21.269  0.00  0.00    +0.000 C 
BRANCH  25  29
ATOM     26  C   UNL     1       8.885   9.670  18.292  0.00  0.00    +0.000 C 
ATOM     27  C   UNL     1       9.193  10.937  19.043  0.00  0.00    +0.000 C 
ATOM     28  C   UNL     1       9.442  12.176  18.232  0.00  0.00    +0.000 C 
ATOM     29  C   UNL     1       9.289  10.916  20.387  0.00  0.00    +0.000 C 
ENDBRANCH  25  29
ENDBRANCH   1  25
TORSDOF 4
ENDMDL
MODEL 9
REMARK VINA RESULT:      -6.6      1.931      8.188
REMARK  Name = 
REMARK  6 active torsions:
REMARK  status: ('A' for Active; 'I' for Inactive)
REMARK    1  A    between atoms: C_1  and  C_2
REMARK    2  A    between atoms: C_2  and  C_3
REMARK    3  A    between atoms: C_4  and  C_5
REMARK    4  A    between atoms: C_5  and  C_6
REMARK    5  A    between atoms: C_7  and  O_8
REMARK    6  A    between atoms: C_10  and  O_11
REMARK                            x       y       z     vdW  Elec       q    Type
REMARK                         _______ _______ _______ _____ _____    ______ ____
ROOT
ATOM      1  C   UNL     1       0.611  12.656  20.613  0.00  0.00    +0.000 A 
ATOM      2  C   UNL     1       0.001  12.495  21.870  0.00  0.00    +0.000 A 
ATOM      3  C   UNL     1      -0.433  11.250  22.313  0.00  0.00    +0.000 A 
ATOM      4  C   UNL     1      -0.276  10.146  21.489  0.00  0.00    +0.000 A 
ATOM      5  C   UNL     1       0.351  10.254  20.239  0.00  0.00    +0.000 A 
ATOM      6  C   UNL     1       0.788  11.511  19.809  0.00  0.00    +0.000 A 
ATOM      7  O   UNL     1       1.381  11.660  18.577  0.00  0.00    +0.000 OA
ATOM      8  C   UNL     1       2.225  10.553  18.232  0.00  0.00    +0.000 C 
ATOM      9  C   UNL     1       1.447   9.247  18.137  0.00  0.00    +0.000 C 
ATOM     10  C   UNL     1       2.318   8.033  18.184  0.00  0.00    +0.000 A 
ATOM     11  C   UNL     1       3.116   7.423  17.225  0.00  0.00    +0.000 A 
ATOM     12  C   UNL     1       3.826   6.308  17.647  0.00  0.00    +0.000 A 
ATOM     13  C   UNL     1       3.786   5.845  18.954  0.00  0.00    +0.000 A 
ATOM     14  C   UNL     1       3.007   6.438  19.913  0.00  0.00    +0.000 A 
ATOM     15  C   UNL     1       2.264   7.510  19.482  0.00  0.00    +0.000 A 
ATOM     16  O   UNL     1       1.395   8.157  20.302  0.00  0.00    +0.000 OA
ATOM     17  C   UNL     1       0.628   9.025  19.427  0.00  0.00    +0.000 C 
ATOM     18  O   UNL     1       4.572   4.756  19.154  0.00  0.00    +0.000 OA
ATOM     19  C   UNL     1       5.009   4.497  17.808  0.00  0.00    +0.000 C 
ATOM     20  O   UNL     1       4.636   5.534  16.872  0.00  0.00    +0.000 OA
ENDROOT
BRANCH   2  21
ATOM     21  O   UNL     1      -0.200  13.524  22.747  0.00  0.00    +0.000 OA
ATOM     22  H   UNL     1      -1.150  13.617  22.925  0.00  0.00    +0.000 HD
ENDBRANCH   2  21
BRANCH   4  23
ATOM     23  O   UNL     1      -0.728   8.926  21.903  0.00  0.00    +0.000 OA
ATOM     24  H   UNL     1      -1.302   9.061  22.676  0.00  0.00    +0.000 HD
ENDBRANCH   4  23
BRANCH   1  25
ATOM     25  C   UNL     1       1.082  14.007  20.122  0.00  0.00    +0.000 C 
BRANCH  25  29
ATOM     26  C   UNL     1       4.876  14.872  20.472  0.00  0.00    +0.000 C 
ATOM     27  C   UNL     1       3.556  14.525  19.839  0.00  0.00    +0.000 C 
ATOM     28  C   UNL     1       3.507  14.462  18.339  0.00  0.00    +0.000 C 
ATOM     29  C   UNL     1       2.468  14.337  20.611  0.00  0.00    +0.000 C 
ENDBRANCH  25  29
ENDBRANCH   1  25
TORSDOF 4
ENDMDL
