MODEL 1
REMARK VINA RESULT:      -7.6      0.000      0.000
REMARK  Name = 
REMARK  12 active torsions:
REMARK  status: ('A' for Active; 'I' for Inactive)
REMARK    1  A    between atoms: C_1  and  C_2
REMARK    2  A    between atoms: C_4  and  C_5
REMARK    3  A    between atoms: C_5  and  C_6
REMARK    4  A    between atoms: C_6  and  C_7
REMARK    5  A    between atoms: C_7  and  O_9
REMARK    6  A    between atoms: C_12  and  C_13
REMARK    7  A    between atoms: N_16  and  C_17
REMARK    8  A    between atoms: C_20  and  O_21
REMARK    9  A    between atoms: O_21  and  C_22
REMARK   10  A    between atoms: C_22  and  C_23
REMARK   11  A    between atoms: C_22  and  C_24
REMARK   12  A    between atoms: C_25  and  C_26
REMARK                            x       y       z     vdW  Elec       q    Type
REMARK                         _______ _______ _______ _____ _____    ______ ____
ROOT
ATOM      1  C   UNL     1       2.564   7.069  18.688  0.00  0.00    +0.000 A 
ATOM      2  N   UNL     1       2.351   6.805  20.017  0.00  0.00    +0.000 NA
ATOM      3  N   UNL     1       1.684   7.831  20.514  0.00  0.00    +0.000 NA
ATOM      4  N   UNL     1       1.525   8.686  19.481  0.00  0.00    +0.000 N 
ATOM      5  N   UNL     1       2.010   8.230  18.301  0.00  0.00    +0.000 NA
ENDROOT
BRANCH   1  12
ATOM      6  C   UNL     1       1.849   4.222  18.039  0.00  0.00    +0.000 C 
ATOM      7  C   UNL     1       3.114   4.887  17.562  0.00  0.00    +0.000 A 
ATOM      8  C   UNL     1       4.027   4.126  16.806  0.00  0.00    +0.000 A 
ATOM      9  C   UNL     1       5.222   4.675  16.314  0.00  0.00    +0.000 A 
ATOM     10  C   UNL     1       5.488   6.023  16.560  0.00  0.00    +0.000 A 
ATOM     11  C   UNL     1       4.592   6.791  17.312  0.00  0.00    +0.000 A 
ATOM     12  C   UNL     1       3.410   6.236  17.837  0.00  0.00    +0.000 A 
BRANCH   9  13
ATOM     13  C   UNL     1       6.157   3.815  15.493  0.00  0.00    +0.000 C 
BRANCH  13  14
ATOM     14  C   UNL     1       6.006   3.997  13.982  0.00  0.00    +0.000 C 
BRANCH  14  15
ATOM     15  C   UNL     1       7.179   4.759  13.410  0.00  0.00    +0.000 C 
ATOM     16  O   UNL     1       7.890   5.532  14.032  0.00  0.00    +0.000 OA
BRANCH  15  17
ATOM     17  O   UNL     1       7.376   4.495  12.098  0.00  0.00    +0.000 OA
ATOM     18  H   UNL     1       7.413   5.290  11.533  0.00  0.00    +0.000 HD
ENDBRANCH  15  17
ENDBRANCH  14  15
ENDBRANCH  13  14
ENDBRANCH   9  13
ENDBRANCH   1  12
BRANCH   4  19
ATOM     19  C   UNL     1       0.950   9.968  19.624  0.00  0.00    +0.000 A 
ATOM     20  C   UNL     1       1.183  10.955  18.659  0.00  0.00    +0.000 A 
ATOM     21  C   UNL     1       0.646  12.233  18.841  0.00  0.00    +0.000 A 
ATOM     22  C   UNL     1      -0.120  12.561  19.972  0.00  0.00    +0.000 A 
ATOM     23  C   UNL     1      -0.373  11.562  20.923  0.00  0.00    +0.000 A 
ATOM     24  C   UNL     1       0.155  10.265  20.733  0.00  0.00    +0.000 A 
BRANCH  23  25
ATOM     25  C   UNL     1      -1.112  11.766  22.127  0.00  0.00    +0.000 C 
ATOM     26  N   UNL     1      -1.736  11.968  23.089  0.00  0.00    +0.000 NA
ENDBRANCH  23  25
BRANCH  22  27
ATOM     27  O   UNL     1      -0.423  13.896  20.019  0.00  0.00    +0.000 OA
BRANCH  27  28
ATOM     28  C   UNL     1       0.483  14.888  19.524  0.00  0.00    +0.000 C 
ATOM     29  C   UNL     1      -0.309  15.935  18.743  0.00  0.00    +0.000 C 
ATOM     30  C   UNL     1       1.154  15.556  20.721  0.00  0.00    +0.000 C 
ENDBRANCH  27  28
ENDBRANCH  22  27
ENDBRANCH   4  19
TORSDOF 9
ENDMDL
MODEL 2
REMARK VINA RESULT:      -7.5      1.854      2.404
REMARK  Name = 
REMARK  12 active torsions:
REMARK  status: ('A' for Active; 'I' for Inactive)
REMARK    1  A    between atoms: C_1  and  C_2
REMARK    2  A    between atoms: C_4  and  C_5
REMARK    3  A    between atoms: C_5  and  C_6
REMARK    4  A    between atoms: C_6  and  C_7
REMARK    5  A    between atoms: C_7  and  O_9
REMARK    6  A    between atoms: C_12  and  C_13
REMARK    7  A    between atoms: N_16  and  C_17
REMARK    8  A    between atoms: C_20  and  O_21
REMARK    9  A    between atoms: O_21  and  C_22
REMARK   10  A    between atoms: C_22  and  C_23
REMARK   11  A    between atoms: C_22  and  C_24
REMARK   12  A    between atoms: C_25  and  C_26
REMARK                            x       y       z     vdW  Elec       q    Type
REMARK                         _______ _______ _______ _____ _____    ______ ____
ROOT
ATOM      1  C   UNL     1       3.612   5.926  17.970  0.00  0.00    +0.000 A 
ATOM      2  N   UNL     1       3.778   5.548  19.279  0.00  0.00    +0.000 NA
ATOM      3  N   UNL     1       3.030   6.353  20.012  0.00  0.00    +0.000 NA
ATOM      4  N   UNL     1       2.447   7.196  19.134  0.00  0.00    +0.000 N 
ATOM      5  N   UNL     1       2.735   6.936  17.836  0.00  0.00    +0.000 NA
ENDROOT
BRANCH   1  12
ATOM      6  C   UNL     1       3.793   2.965  17.485  0.00  0.00    +0.000 C 
ATOM      7  C   UNL     1       4.537   3.985  16.663  0.00  0.00    +0.000 A 
ATOM      8  C   UNL     1       5.391   3.529  15.641  0.00  0.00    +0.000 A 
ATOM      9  C   UNL     1       6.110   4.415  14.822  0.00  0.00    +0.000 A 
ATOM     10  C   UNL     1       5.941   5.787  15.016  0.00  0.00    +0.000 A 
ATOM     11  C   UNL     1       5.098   6.257  16.030  0.00  0.00    +0.000 A 
ATOM     12  C   UNL     1       4.404   5.372  16.875  0.00  0.00    +0.000 A 
BRANCH   9  13
ATOM     13  C   UNL     1       6.999   3.868  13.728  0.00  0.00    +0.000 C 
BRANCH  13  14
ATOM     14  C   UNL     1       6.473   4.119  12.314  0.00  0.00    +0.000 C 
BRANCH  14  15
ATOM     15  C   UNL     1       5.462   3.068  11.920  0.00  0.00    +0.000 C 
ATOM     16  O   UNL     1       4.287   3.277  11.668  0.00  0.00    +0.000 OA
BRANCH  15  17
ATOM     17  O   UNL     1       6.000   1.827  11.868  0.00  0.00    +0.000 OA
ATOM     18  H   UNL     1       6.942   1.791  12.121  0.00  0.00    +0.000 HD
ENDBRANCH  15  17
ENDBRANCH  14  15
ENDBRANCH  13  14
ENDBRANCH   9  13
ENDBRANCH   1  12
BRANCH   4  19
ATOM     19  C   UNL     1       1.647   8.290  19.531  0.00  0.00    +0.000 A 
ATOM     20  C   UNL     1       1.228   9.235  18.587  0.00  0.00    +0.000 A 
ATOM     21  C   UNL     1       0.477  10.338  19.006  0.00  0.00    +0.000 A 
ATOM     22  C   UNL     1       0.132  10.530  20.354  0.00  0.00    +0.000 A 
ATOM     23  C   UNL     1       0.531   9.566  21.293  0.00  0.00    +0.000 A 
ATOM     24  C   UNL     1       1.275   8.444  20.869  0.00  0.00    +0.000 A 
BRANCH  23  25
ATOM     25  C   UNL     1       0.269   9.651  22.694  0.00  0.00    +0.000 C 
ATOM     26  N   UNL     1       0.032   9.758  23.828  0.00  0.00    +0.000 NA
ENDBRANCH  23  25
BRANCH  22  27
ATOM     27  O   UNL     1      -0.478  11.739  20.563  0.00  0.00    +0.000 OA
BRANCH  27  28
ATOM     28  C   UNL     1      -1.144  12.435  19.504  0.00  0.00    +0.000 C 
ATOM     29  C   UNL     1      -2.652  12.340  19.721  0.00  0.00    +0.000 C 
ATOM     30  C   UNL     1      -0.719  13.900  19.560  0.00  0.00    +0.000 C 
ENDBRANCH  27  28
ENDBRANCH  22  27
ENDBRANCH   4  19
TORSDOF 9
ENDMDL
MODEL 3
REMARK VINA RESULT:      -7.5      1.485      1.720
REMARK  Name = 
REMARK  12 active torsions:
REMARK  status: ('A' for Active; 'I' for Inactive)
REMARK    1  A    between atoms: C_1  and  C_2
REMARK    2  A    between atoms: C_4  and  C_5
REMARK    3  A    between atoms: C_5  and  C_6
REMARK    4  A    between atoms: C_6  and  C_7
REMARK    5  A    between atoms: C_7  and  O_9
REMARK    6  A    between atoms: C_12  and  C_13
REMARK    7  A    between atoms: N_16  and  C_17
REMARK    8  A    between atoms: C_20  and  O_21
REMARK    9  A    between atoms: O_21  and  C_22
REMARK   10  A    between atoms: C_22  and  C_23
REMARK   11  A    between atoms: C_22  and  C_24
REMARK   12  A    between atoms: C_25  and  C_26
REMARK                            x       y       z     vdW  Elec       q    Type
REMARK                         _______ _______ _______ _____ _____    ______ ____
ROOT
ATOM      1  C   UNL     1       2.455   7.098  18.733  0.00  0.00    +0.000 A 
ATOM      2  N   UNL     1       2.361   6.938  20.093  0.00  0.00    +0.000 NA
ATOM      3  N   UNL     1       1.639   7.944  20.552  0.00  0.00    +0.000 NA
ATOM      4  N   UNL     1       1.330   8.685  19.467  0.00  0.00    +0.000 N 
ATOM      5  N   UNL     1       1.771   8.168  18.295  0.00  0.00    +0.000 NA
ENDROOT
BRANCH   1  12
ATOM      6  C   UNL     1       1.788   4.229  18.132  0.00  0.00    +0.000 C 
ATOM      7  C   UNL     1       3.039   4.908  17.640  0.00  0.00    +0.000 A 
ATOM      8  C   UNL     1       3.962   4.152  16.892  0.00  0.00    +0.000 A 
ATOM      9  C   UNL     1       5.146   4.714  16.386  0.00  0.00    +0.000 A 
ATOM     10  C   UNL     1       5.388   6.070  16.610  0.00  0.00    +0.000 A 
ATOM     11  C   UNL     1       4.482   6.835  17.353  0.00  0.00    +0.000 A 
ATOM     12  C   UNL     1       3.313   6.267  17.892  0.00  0.00    +0.000 A 
BRANCH   9  13
ATOM     13  C   UNL     1       6.093   3.858  15.575  0.00  0.00    +0.000 C 
BRANCH  13  14
ATOM     14  C   UNL     1       5.919   3.999  14.062  0.00  0.00    +0.000 C 
BRANCH  14  15
ATOM     15  C   UNL     1       7.092   4.727  13.449  0.00  0.00    +0.000 C 
ATOM     16  O   UNL     1       7.833   5.497  14.040  0.00  0.00    +0.000 OA
BRANCH  15  17
ATOM     17  O   UNL     1       7.253   4.437  12.137  0.00  0.00    +0.000 OA
ATOM     18  H   UNL     1       7.734   5.122  11.634  0.00  0.00    +0.000 HD
ENDBRANCH  15  17
ENDBRANCH  14  15
ENDBRANCH  13  14
ENDBRANCH   9  13
ENDBRANCH   1  12
BRANCH   4  19
ATOM     19  C   UNL     1       0.652   9.922  19.546  0.00  0.00    +0.000 A 
ATOM     20  C   UNL     1       1.037  10.876  20.496  0.00  0.00    +0.000 A 
ATOM     21  C   UNL     1       0.324  12.074  20.592  0.00  0.00    +0.000 A 
ATOM     22  C   UNL     1      -0.777  12.351  19.764  0.00  0.00    +0.000 A 
ATOM     23  C   UNL     1      -1.142  11.404  18.796  0.00  0.00    +0.000 A 
ATOM     24  C   UNL     1      -0.413  10.199  18.685  0.00  0.00    +0.000 A 
BRANCH  23  25
ATOM     25  C   UNL     1      -2.252  11.547  17.909  0.00  0.00    +0.000 C 
ATOM     26  N   UNL     1      -3.143  11.625  17.164  0.00  0.00    +0.000 NA
ENDBRANCH  23  25
BRANCH  22  27
ATOM     27  O   UNL     1      -1.412  13.511  20.122  0.00  0.00    +0.000 OA
BRANCH  27  28
ATOM     28  C   UNL     1      -0.745  14.776  20.078  0.00  0.00    +0.000 C 
ATOM     29  C   UNL     1      -0.288  15.045  18.646  0.00  0.00    +0.000 C 
ATOM     30  C   UNL     1      -1.741  15.852  20.498  0.00  0.00    +0.000 C 
ENDBRANCH  27  28
ENDBRANCH  22  27
ENDBRANCH   4  19
TORSDOF 9
ENDMDL
MODEL 4
REMARK VINA RESULT:      -7.4      1.791      2.534
REMARK  Name = 
REMARK  12 active torsions:
REMARK  status: ('A' for Active; 'I' for Inactive)
REMARK    1  A    between atoms: C_1  and  C_2
REMARK    2  A    between atoms: C_4  and  C_5
REMARK    3  A    between atoms: C_5  and  C_6
REMARK    4  A    between atoms: C_6  and  C_7
REMARK    5  A    between atoms: C_7  and  O_9
REMARK    6  A    between atoms: C_12  and  C_13
REMARK    7  A    between atoms: N_16  and  C_17
REMARK    8  A    between atoms: C_20  and  O_21
REMARK    9  A    between atoms: O_21  and  C_22
REMARK   10  A    between atoms: C_22  and  C_23
REMARK   11  A    between atoms: C_22  and  C_24
REMARK   12  A    between atoms: C_25  and  C_26
REMARK                            x       y       z     vdW  Elec       q    Type
REMARK                         _______ _______ _______ _____ _____    ______ ____
ROOT
ATOM      1  C   UNL     1       2.590   6.278  19.041  0.00  0.00    +0.000 A 
ATOM      2  N   UNL     1       2.265   5.662  20.223  0.00  0.00    +0.000 NA
ATOM      3  N   UNL     1       1.593   6.540  20.946  0.00  0.00    +0.000 NA
ATOM      4  N   UNL     1       1.542   7.658  20.191  0.00  0.00    +0.000 N 
ATOM      5  N   UNL     1       2.104   7.529  18.966  0.00  0.00    +0.000 NA
ENDROOT
BRANCH   1  12
ATOM      6  C   UNL     1       2.000   3.602  17.807  0.00  0.00    +0.000 C 
ATOM      7  C   UNL     1       3.237   4.402  17.494  0.00  0.00    +0.000 A 
ATOM      8  C   UNL     1       4.184   3.854  16.609  0.00  0.00    +0.000 A 
ATOM      9  C   UNL     1       5.357   4.541  16.256  0.00  0.00    +0.000 A 
ATOM     10  C   UNL     1       5.563   5.819  16.780  0.00  0.00    +0.000 A 
ATOM     11  C   UNL     1       4.633   6.377  17.663  0.00  0.00    +0.000 A 
ATOM     12  C   UNL     1       3.474   5.676  18.046  0.00  0.00    +0.000 A 
BRANCH   9  13
ATOM     13  C   UNL     1       6.331   3.910  15.286  0.00  0.00    +0.000 C 
BRANCH  13  14
ATOM     14  C   UNL     1       6.743   4.826  14.133  0.00  0.00    +0.000 C 
BRANCH  14  15
ATOM     15  C   UNL     1       6.801   4.060  12.831  0.00  0.00    +0.000 C 
ATOM     16  O   UNL     1       7.400   4.415  11.828  0.00  0.00    +0.000 OA
BRANCH  15  17
ATOM     17  O   UNL     1       6.101   2.902  12.880  0.00  0.00    +0.000 OA
ATOM     18  H   UNL     1       6.426   2.271  13.550  0.00  0.00    +0.000 HD
ENDBRANCH  15  17
ENDBRANCH  14  15
ENDBRANCH  13  14
ENDBRANCH   9  13
ENDBRANCH   1  12
BRANCH   4  19
ATOM     19  C   UNL     1       0.999   8.876  20.655  0.00  0.00    +0.000 A 
ATOM     20  C   UNL     1       0.678   9.034  22.009  0.00  0.00    +0.000 A 
ATOM     21  C   UNL     1       0.096  10.229  22.442  0.00  0.00    +0.000 A 
ATOM     22  C   UNL     1      -0.182  11.282  21.555  0.00  0.00    +0.000 A 
ATOM     23  C   UNL     1       0.166  11.130  20.204  0.00  0.00    +0.000 A 
ATOM     24  C   UNL     1       0.768   9.930  19.767  0.00  0.00    +0.000 A 
BRANCH  23  25
ATOM     25  C   UNL     1      -0.084  12.108  19.195  0.00  0.00    +0.000 C 
ATOM     26  N   UNL     1      -0.332  12.904  18.382  0.00  0.00    +0.000 NA
ENDBRANCH  23  25
BRANCH  22  27
ATOM     27  O   UNL     1      -0.879  12.295  22.160  0.00  0.00    +0.000 OA
BRANCH  27  28
ATOM     28  C   UNL     1      -2.302  12.398  22.046  0.00  0.00    +0.000 C 
ATOM     29  C   UNL     1      -2.925  12.176  23.422  0.00  0.00    +0.000 C 
ATOM     30  C   UNL     1      -2.638  13.806  21.564  0.00  0.00    +0.000 C 
ENDBRANCH  27  28
ENDBRANCH  22  27
ENDBRANCH   4  19
TORSDOF 9
ENDMDL
MODEL 5
REMARK VINA RESULT:      -7.4      1.847      2.240
REMARK  Name = 
REMARK  12 active torsions:
REMARK  status: ('A' for Active; 'I' for Inactive)
REMARK    1  A    between atoms: C_1  and  C_2
REMARK    2  A    between atoms: C_4  and  C_5
REMARK    3  A    between atoms: C_5  and  C_6
REMARK    4  A    between atoms: C_6  and  C_7
REMARK    5  A    between atoms: C_7  and  O_9
REMARK    6  A    between atoms: C_12  and  C_13
REMARK    7  A    between atoms: N_16  and  C_17
REMARK    8  A    between atoms: C_20  and  O_21
REMARK    9  A    between atoms: O_21  and  C_22
REMARK   10  A    between atoms: C_22  and  C_23
REMARK   11  A    between atoms: C_22  and  C_24
REMARK   12  A    between atoms: C_25  and  C_26
REMARK                            x       y       z     vdW  Elec       q    Type
REMARK                         _______ _______ _______ _____ _____    ______ ____
ROOT
ATOM      1  C   UNL     1       2.489   7.204  18.463  0.00  0.00    +0.000 A 
ATOM      2  N   UNL     1       2.429   7.152  19.833  0.00  0.00    +0.000 NA
ATOM      3  N   UNL     1       1.708   8.185  20.229  0.00  0.00    +0.000 NA
ATOM      4  N   UNL     1       1.365   8.835  19.096  0.00  0.00    +0.000 N 
ATOM      5  N   UNL     1       1.784   8.230  17.958  0.00  0.00    +0.000 NA
ENDROOT
BRANCH   1  12
ATOM      6  C   UNL     1       1.869   4.278  18.156  0.00  0.00    +0.000 C 
ATOM      7  C   UNL     1       3.085   4.934  17.555  0.00  0.00    +0.000 A 
ATOM      8  C   UNL     1       3.998   4.130  16.845  0.00  0.00    +0.000 A 
ATOM      9  C   UNL     1       5.149   4.667  16.244  0.00  0.00    +0.000 A 
ATOM     10  C   UNL     1       5.366   6.043  16.332  0.00  0.00    +0.000 A 
ATOM     11  C   UNL     1       4.470   6.854  17.036  0.00  0.00    +0.000 A 
ATOM     12  C   UNL     1       3.335   6.316  17.670  0.00  0.00    +0.000 A 
BRANCH   9  13
ATOM     13  C   UNL     1       6.085   3.759  15.480  0.00  0.00    +0.000 C 
BRANCH  13  14
ATOM     14  C   UNL     1       6.558   4.333  14.143  0.00  0.00    +0.000 C 
BRANCH  14  15
ATOM     15  C   UNL     1       5.902   3.616  12.986  0.00  0.00    +0.000 C 
ATOM     16  O   UNL     1       4.739   3.745  12.642  0.00  0.00    +0.000 OA
BRANCH  15  17
ATOM     17  O   UNL     1       6.757   2.789  12.340  0.00  0.00    +0.000 OA
ATOM     18  H   UNL     1       6.929   1.950  12.808  0.00  0.00    +0.000 HD
ENDBRANCH  15  17
ENDBRANCH  14  15
ENDBRANCH  13  14
ENDBRANCH   9  13
ENDBRANCH   1  12
BRANCH   4  19
ATOM     19  C   UNL     1       0.676  10.068  19.094  0.00  0.00    +0.000 A 
ATOM     20  C   UNL     1       1.153  11.142  19.855  0.00  0.00    +0.000 A 
ATOM     21  C   UNL     1       0.432  12.339  19.878  0.00  0.00    +0.000 A 
ATOM     22  C   UNL     1      -0.765  12.498  19.161  0.00  0.00    +0.000 A 
ATOM     23  C   UNL     1      -1.224  11.429  18.378  0.00  0.00    +0.000 A 
ATOM     24  C   UNL     1      -0.490  10.223  18.340  0.00  0.00    +0.000 A 
BRANCH  23  25
ATOM     25  C   UNL     1      -2.436  11.447  17.623  0.00  0.00    +0.000 C 
ATOM     26  N   UNL     1      -3.418  11.417  16.998  0.00  0.00    +0.000 NA
ENDBRANCH  23  25
BRANCH  22  27
ATOM     27  O   UNL     1      -1.377  13.693  19.438  0.00  0.00    +0.000 OA
BRANCH  27  28
ATOM     28  C   UNL     1      -1.954  13.959  20.720  0.00  0.00    +0.000 C 
ATOM     29  C   UNL     1      -2.097  15.469  20.894  0.00  0.00    +0.000 C 
ATOM     30  C   UNL     1      -3.338  13.316  20.759  0.00  0.00    +0.000 C 
ENDBRANCH  27  28
ENDBRANCH  22  27
ENDBRANCH   4  19
TORSDOF 9
ENDMDL
MODEL 6
REMARK VINA RESULT:      -7.2      3.212     10.881
REMARK  Name = 
REMARK  12 active torsions:
REMARK  status: ('A' for Active; 'I' for Inactive)
REMARK    1  A    between atoms: C_1  and  C_2
REMARK    2  A    between atoms: C_4  and  C_5
REMARK    3  A    between atoms: C_5  and  C_6
REMARK    4  A    between atoms: C_6  and  C_7
REMARK    5  A    between atoms: C_7  and  O_9
REMARK    6  A    between atoms: C_12  and  C_13
REMARK    7  A    between atoms: N_16  and  C_17
REMARK    8  A    between atoms: C_20  and  O_21
REMARK    9  A    between atoms: O_21  and  C_22
REMARK   10  A    between atoms: C_22  and  C_23
REMARK   11  A    between atoms: C_22  and  C_24
REMARK   12  A    between atoms: C_25  and  C_26
REMARK                            x       y       z     vdW  Elec       q    Type
REMARK                         _______ _______ _______ _____ _____    ______ ____
ROOT
ATOM      1  C   UNL     1       0.126  10.674  19.864  0.00  0.00    +0.000 A 
ATOM      2  N   UNL     1       0.899  11.290  18.913  0.00  0.00    +0.000 NA
ATOM      3  N   UNL     1       1.716  10.374  18.425  0.00  0.00    +0.000 NA
ATOM      4  N   UNL     1       1.424   9.241  19.099  0.00  0.00    +0.000 N 
ATOM      5  N   UNL     1       0.397   9.363  19.974  0.00  0.00    +0.000 NA
ENDROOT
BRANCH   1  12
ATOM      6  C   UNL     1      -2.443  11.856  18.844  0.00  0.00    +0.000 C 
ATOM      7  C   UNL     1      -1.973  12.003  20.268  0.00  0.00    +0.000 A 
ATOM      8  C   UNL     1      -2.755  12.765  21.157  0.00  0.00    +0.000 A 
ATOM      9  C   UNL     1      -2.393  12.939  22.503  0.00  0.00    +0.000 A 
ATOM     10  C   UNL     1      -1.238  12.309  22.969  0.00  0.00    +0.000 A 
ATOM     11  C   UNL     1      -0.448  11.551  22.097  0.00  0.00    +0.000 A 
ATOM     12  C   UNL     1      -0.789  11.403  20.740  0.00  0.00    +0.000 A 
BRANCH   9  13
ATOM     13  C   UNL     1      -3.281  13.753  23.416  0.00  0.00    +0.000 C 
BRANCH  13  14
ATOM     14  C   UNL     1      -4.775  13.470  23.248  0.00  0.00    +0.000 C 
BRANCH  14  15
ATOM     15  C   UNL     1      -5.272  12.534  24.325  0.00  0.00    +0.000 C 
ATOM     16  O   UNL     1      -6.313  11.900  24.284  0.00  0.00    +0.000 OA
BRANCH  15  17
ATOM     17  O   UNL     1      -4.423  12.460  25.377  0.00  0.00    +0.000 OA
ATOM     18  H   UNL     1      -3.487  12.608  25.144  0.00  0.00    +0.000 HD
ENDBRANCH  15  17
ENDBRANCH  14  15
ENDBRANCH  13  14
ENDBRANCH   9  13
ENDBRANCH   1  12
BRANCH   4  19
ATOM     19  C   UNL     1       2.158   8.044  18.949  0.00  0.00    +0.000 A 
ATOM     20  C   UNL     1       2.062   7.034  19.913  0.00  0.00    +0.000 A 
ATOM     21  C   UNL     1       2.832   5.876  19.772  0.00  0.00    +0.000 A 
ATOM     22  C   UNL     1       3.709   5.695  18.689  0.00  0.00    +0.000 A 
ATOM     23  C   UNL     1       3.782   6.699  17.711  0.00  0.00    +0.000 A 
ATOM     24  C   UNL     1       2.992   7.862  17.843  0.00  0.00    +0.000 A 
BRANCH  23  25
ATOM     25  C   UNL     1       4.647   6.655  16.577  0.00  0.00    +0.000 C 
ATOM     26  N   UNL     1       5.350   6.664  15.649  0.00  0.00    +0.000 NA
ENDBRANCH  23  25
BRANCH  22  27
ATOM     27  O   UNL     1       4.467   4.562  18.823  0.00  0.00    +0.000 OA
BRANCH  27  28
ATOM     28  C   UNL     1       4.120   3.345  18.152  0.00  0.00    +0.000 C 
ATOM     29  C   UNL     1       3.918   2.247  19.193  0.00  0.00    +0.000 C 
ATOM     30  C   UNL     1       2.811   3.574  17.402  0.00  0.00    +0.000 C 
ENDBRANCH  27  28
ENDBRANCH  22  27
ENDBRANCH   4  19
TORSDOF 9
ENDMDL
MODEL 7
REMARK VINA RESULT:      -7.2      0.944      1.256
REMARK  Name = 
REMARK  12 active torsions:
REMARK  status: ('A' for Active; 'I' for Inactive)
REMARK    1  A    between atoms: C_1  and  C_2
REMARK    2  A    between atoms: C_4  and  C_5
REMARK    3  A    between atoms: C_5  and  C_6
REMARK    4  A    between atoms: C_6  and  C_7
REMARK    5  A    between atoms: C_7  and  O_9
REMARK    6  A    between atoms: C_12  and  C_13
REMARK    7  A    between atoms: N_16  and  C_17
REMARK    8  A    between atoms: C_20  and  O_21
REMARK    9  A    between atoms: O_21  and  C_22
REMARK   10  A    between atoms: C_22  and  C_23
REMARK   11  A    between atoms: C_22  and  C_24
REMARK   12  A    between atoms: C_25  and  C_26
REMARK                            x       y       z     vdW  Elec       q    Type
REMARK                         _______ _______ _______ _____ _____    ______ ____
ROOT
ATOM      1  C   UNL     1       2.713   6.836  18.532  0.00  0.00    +0.000 A 
ATOM      2  N   UNL     1       2.571   6.551  19.867  0.00  0.00    +0.000 NA
ATOM      3  N   UNL     1       1.897   7.550  20.407  0.00  0.00    +0.000 NA
ATOM      4  N   UNL     1       1.662   8.410  19.393  0.00  0.00    +0.000 N 
ATOM      5  N   UNL     1       2.105   7.983  18.186  0.00  0.00    +0.000 NA
ENDROOT
BRANCH   1  12
ATOM      6  C   UNL     1       2.114   3.946  17.960  0.00  0.00    +0.000 C 
ATOM      7  C   UNL     1       3.304   4.672  17.391  0.00  0.00    +0.000 A 
ATOM      8  C   UNL     1       4.204   3.953  16.582  0.00  0.00    +0.000 A 
ATOM      9  C   UNL     1       5.331   4.560  16.003  0.00  0.00    +0.000 A 
ATOM     10  C   UNL     1       5.538   5.923  16.218  0.00  0.00    +0.000 A 
ATOM     11  C   UNL     1       4.654   6.652  17.022  0.00  0.00    +0.000 A 
ATOM     12  C   UNL     1       3.544   6.040  17.632  0.00  0.00    +0.000 A 
BRANCH   9  13
ATOM     13  C   UNL     1       6.254   3.742  15.128  0.00  0.00    +0.000 C 
BRANCH  13  14
ATOM     14  C   UNL     1       6.483   4.336  13.737  0.00  0.00    +0.000 C 
BRANCH  14  15
ATOM     15  C   UNL     1       5.841   3.479  12.671  0.00  0.00    +0.000 C 
ATOM     16  O   UNL     1       4.672   3.537  12.326  0.00  0.00    +0.000 OA
BRANCH  15  17
ATOM     17  O   UNL     1       6.714   2.608  12.113  0.00  0.00    +0.000 OA
ATOM     18  H   UNL     1       7.240   2.102  12.760  0.00  0.00    +0.000 HD
ENDBRANCH  15  17
ENDBRANCH  14  15
ENDBRANCH  13  14
ENDBRANCH   9  13
ENDBRANCH   1  12
BRANCH   4  19
ATOM     19  C   UNL     1       1.055   9.672  19.578  0.00  0.00    +0.000 A 
ATOM     20  C   UNL     1       1.121  10.640  18.569  0.00  0.00    +0.000 A 
ATOM     21  C   UNL     1       0.557  11.900  18.788  0.00  0.00    +0.000 A 
ATOM     22  C   UNL     1      -0.075  12.229  19.999  0.00  0.00    +0.000 A 
ATOM     23  C   UNL     1      -0.163  11.247  20.997  0.00  0.00    +0.000 A 
ATOM     24  C   UNL     1       0.392   9.968  20.772  0.00  0.00    +0.000 A 
BRANCH  23  25
ATOM     25  C   UNL     1      -0.754  11.455  22.280  0.00  0.00    +0.000 C 
ATOM     26  N   UNL     1      -1.234  11.579  23.333  0.00  0.00    +0.000 NA
ENDBRANCH  23  25
BRANCH  22  27
ATOM     27  O   UNL     1      -0.428  13.551  20.054  0.00  0.00    +0.000 OA
BRANCH  27  28
ATOM     28  C   UNL     1       0.503  14.559  20.463  0.00  0.00    +0.000 C 
ATOM     29  C   UNL     1       1.747  13.880  21.032  0.00  0.00    +0.000 C 
ATOM     30  C   UNL     1       0.893  15.372  19.232  0.00  0.00    +0.000 C 
ENDBRANCH  27  28
ENDBRANCH  22  27
ENDBRANCH   4  19
TORSDOF 9
ENDMDL
MODEL 8
REMARK VINA RESULT:      -7.2      1.744      2.463
REMARK  Name = 
REMARK  12 active torsions:
REMARK  status: ('A' for Active; 'I' for Inactive)
REMARK    1  A    between atoms: C_1  and  C_2
REMARK    2  A    between atoms: C_4  and  C_5
REMARK    3  A    between atoms: C_5  and  C_6
REMARK    4  A    between atoms: C_6  and  C_7
REMARK    5  A    between atoms: C_7  and  O_9
REMARK    6  A    between atoms: C_12  and  C_13
REMARK    7  A    between atoms: N_16  and  C_17
REMARK    8  A    between atoms: C_20  and  O_21
REMARK    9  A    between atoms: O_21  and  C_22
REMARK   10  A    between atoms: C_22  and  C_23
REMARK   11  A    between atoms: C_22  and  C_24
REMARK   12  A    between atoms: C_25  and  C_26
REMARK                            x       y       z     vdW  Elec       q    Type
REMARK                         _______ _______ _______ _____ _____    ______ ____
ROOT
ATOM      1  C   UNL     1       2.829   6.594  18.717  0.00  0.00    +0.000 A 
ATOM      2  N   UNL     1       2.757   6.016  19.959  0.00  0.00    +0.000 NA
ATOM      3  N   UNL     1       1.995   6.796  20.705  0.00  0.00    +0.000 NA
ATOM      4  N   UNL     1       1.641   7.822  19.902  0.00  0.00    +0.000 N 
ATOM      5  N   UNL     1       2.092   7.715  18.629  0.00  0.00    +0.000 NA
ENDROOT
BRANCH   1  12
ATOM      6  C   UNL     1       2.662   3.777  17.683  0.00  0.00    +0.000 C 
ATOM      7  C   UNL     1       3.681   4.776  17.200  0.00  0.00    +0.000 A 
ATOM      8  C   UNL     1       4.627   4.359  16.245  0.00  0.00    +0.000 A 
ATOM      9  C   UNL     1       5.602   5.233  15.734  0.00  0.00    +0.000 A 
ATOM     10  C   UNL     1       5.602   6.559  16.171  0.00  0.00    +0.000 A 
ATOM     11  C   UNL     1       4.669   6.988  17.122  0.00  0.00    +0.000 A 
ATOM     12  C   UNL     1       3.714   6.106  17.662  0.00  0.00    +0.000 A 
BRANCH   9  13
ATOM     13  C   UNL     1       6.582   4.735  14.697  0.00  0.00    +0.000 C 
BRANCH  13  14
ATOM     14  C   UNL     1       6.153   3.441  14.004  0.00  0.00    +0.000 C 
BRANCH  14  15
ATOM     15  C   UNL     1       6.067   3.634  12.507  0.00  0.00    +0.000 C 
ATOM     16  O   UNL     1       5.131   3.293  11.803  0.00  0.00    +0.000 OA
BRANCH  15  17
ATOM     17  O   UNL     1       7.166   4.242  12.001  0.00  0.00    +0.000 OA
ATOM     18  H   UNL     1       7.255   4.160  11.032  0.00  0.00    +0.000 HD
ENDBRANCH  15  17
ENDBRANCH  14  15
ENDBRANCH  13  14
ENDBRANCH   9  13
ENDBRANCH   1  12
BRANCH   4  19
ATOM     19  C   UNL     1       0.908   8.940  20.359  0.00  0.00    +0.000 A 
ATOM     20  C   UNL     1       0.373   8.950  21.652  0.00  0.00    +0.000 A 
ATOM     21  C   UNL     1      -0.391  10.044  22.070  0.00  0.00    +0.000 A 
ATOM     22  C   UNL     1      -0.642  11.138  21.226  0.00  0.00    +0.000 A 
ATOM     23  C   UNL     1      -0.081  11.136  19.941  0.00  0.00    +0.000 A 
ATOM     24  C   UNL     1       0.704  10.039  19.522  0.00  0.00    +0.000 A 
BRANCH  23  25
ATOM     25  C   UNL     1      -0.277  12.170  18.976  0.00  0.00    +0.000 C 
ATOM     26  N   UNL     1      -0.393  13.024  18.193  0.00  0.00    +0.000 NA
ENDBRANCH  23  25
BRANCH  22  27
ATOM     27  O   UNL     1      -1.525  12.026  21.783  0.00  0.00    +0.000 OA
BRANCH  27  28
ATOM     28  C   UNL     1      -1.163  12.839  22.905  0.00  0.00    +0.000 C 
ATOM     29  C   UNL     1      -0.423  14.076  22.401  0.00  0.00    +0.000 C 
ATOM     30  C   UNL     1      -2.446  13.272  23.608  0.00  0.00    +0.000 C 
ENDBRANCH  27  28
ENDBRANCH  22  27
ENDBRANCH   4  19
TORSDOF 9
ENDMDL
MODEL 9
REMARK VINA RESULT:      -7.2      1.455      2.119
REMARK  Name = 
REMARK  12 active torsions:
REMARK  status: ('A' for Active; 'I' for Inactive)
REMARK    1  A    between atoms: C_1  and  C_2
REMARK    2  A    between atoms: C_4  and  C_5
REMARK    3  A    between atoms: C_5  and  C_6
REMARK    4  A    between atoms: C_6  and  C_7
REMARK    5  A    between atoms: C_7  and  O_9
REMARK    6  A    between atoms: C_12  and  C_13
REMARK    7  A    between atoms: N_16  and  C_17
REMARK    8  A    between atoms: C_20  and  O_21
REMARK    9  A    between atoms: O_21  and  C_22
REMARK   10  A    between atoms: C_22  and  C_23
REMARK   11  A    between atoms: C_22  and  C_24
REMARK   12  A    between atoms: C_25  and  C_26
REMARK                            x       y       z     vdW  Elec       q    Type
REMARK                         _______ _______ _______ _____ _____    ______ ____
ROOT
ATOM      1  C   UNL     1       2.466   7.254  18.697  0.00  0.00    +0.000 A 
ATOM      2  N   UNL     1       2.247   7.009  20.029  0.00  0.00    +0.000 NA
ATOM      3  N   UNL     1       1.570   8.038  20.506  0.00  0.00    +0.000 NA
ATOM      4  N   UNL     1       1.411   8.876  19.459  0.00  0.00    +0.000 N 
ATOM      5  N   UNL     1       1.906   8.406  18.289  0.00  0.00    +0.000 NA
ENDROOT
BRANCH   1  12
ATOM      6  C   UNL     1       1.835   4.360  18.185  0.00  0.00    +0.000 C 
ATOM      7  C   UNL     1       3.067   5.045  17.653  0.00  0.00    +0.000 A 
ATOM      8  C   UNL     1       3.989   4.283  16.911  0.00  0.00    +0.000 A 
ATOM      9  C   UNL     1       5.155   4.849  16.369  0.00  0.00    +0.000 A 
ATOM     10  C   UNL     1       5.379   6.215  16.552  0.00  0.00    +0.000 A 
ATOM     11  C   UNL     1       4.473   6.985  17.290  0.00  0.00    +0.000 A 
ATOM     12  C   UNL     1       3.322   6.414  17.863  0.00  0.00    +0.000 A 
BRANCH   9  13
ATOM     13  C   UNL     1       6.101   3.986  15.566  0.00  0.00    +0.000 C 
BRANCH  13  14
ATOM     14  C   UNL     1       5.883   4.063  14.054  0.00  0.00    +0.000 C 
BRANCH  14  15
ATOM     15  C   UNL     1       7.087   4.664  13.365  0.00  0.00    +0.000 C 
ATOM     16  O   UNL     1       7.382   4.505  12.192  0.00  0.00    +0.000 OA
BRANCH  15  17
ATOM     17  O   UNL     1       7.834   5.424  14.200  0.00  0.00    +0.000 OA
ATOM     18  H   UNL     1       7.540   5.399  15.130  0.00  0.00    +0.000 HD
ENDBRANCH  15  17
ENDBRANCH  14  15
ENDBRANCH  13  14
ENDBRANCH   9  13
ENDBRANCH   1  12
BRANCH   4  19
ATOM     19  C   UNL     1       0.828  10.157  19.579  0.00  0.00    +0.000 A 
ATOM     20  C   UNL     1      -0.442  10.301  20.150  0.00  0.00    +0.000 A 
ATOM     21  C   UNL     1      -1.024  11.571  20.217  0.00  0.00    +0.000 A 
ATOM     22  C   UNL     1      -0.372  12.712  19.722  0.00  0.00    +0.000 A 
ATOM     23  C   UNL     1       0.912  12.567  19.176  0.00  0.00    +0.000 A 
ATOM     24  C   UNL     1       1.509  11.288  19.122  0.00  0.00    +0.000 A 
BRANCH  23  25
ATOM     25  C   UNL     1       1.673  13.637  18.615  0.00  0.00    +0.000 C 
ATOM     26  N   UNL     1       2.332  14.484  18.164  0.00  0.00    +0.000 NA
ENDBRANCH  23  25
BRANCH  22  27
ATOM     27  O   UNL     1      -1.176  13.821  19.758  0.00  0.00    +0.000 OA
BRANCH  27  28
ATOM     28  C   UNL     1      -1.371  14.567  20.965  0.00  0.00    +0.000 C 
ATOM     29  C   UNL     1      -0.259  15.605  21.089  0.00  0.00    +0.000 C 
ATOM     30  C   UNL     1      -2.717  15.280  20.868  0.00  0.00    +0.000 C 
ENDBRANCH  27  28
ENDBRANCH  22  27
ENDBRANCH   4  19
TORSDOF 9
ENDMDL
