MODEL 1
REMARK VINA RESULT:      -7.3      0.000      0.000
REMARK  Name = 
REMARK  4 active torsions:
REMARK  status: ('A' for Active; 'I' for Inactive)
REMARK    1  A    between atoms: C_2  and  O_3
REMARK    2  A    between atoms: C_2  and  C_4
REMARK    3  A    between atoms: C_10  and  N_11
REMARK    4  A    between atoms: N_11  and  C_12
REMARK                            x       y       z     vdW  Elec       q    Type
REMARK                         _______ _______ _______ _____ _____    ______ ____
ROOT
ATOM      1  C   UNL     1       6.859   5.316  17.869  0.00  0.00    +0.000 A 
ATOM      2  C   UNL     1       7.349   5.894  16.682  0.00  0.00    +0.000 A 
ATOM      3  C   UNL     1       6.846   5.500  15.442  0.00  0.00    +0.000 A 
ATOM      4  C   UNL     1       5.872   4.511  15.382  0.00  0.00    +0.000 A 
ATOM      5 CL   UNL     1       5.280   3.988  13.854  0.00  0.00    +0.000 Cl
ATOM      6  C   UNL     1       5.377   3.929  16.551  0.00  0.00    +0.000 A 
ATOM      7  C   UNL     1       5.836   4.344  17.814  0.00  0.00    +0.000 A 
ENDROOT
BRANCH   1   9
ATOM      8  O   UNL     1       7.305   5.226  20.206  0.00  0.00    +0.000 OA
ATOM      9  C   UNL     1       7.492   5.783  19.135  0.00  0.00    +0.000 C 
BRANCH   9  10
ATOM     10  O   UNL     1       8.313   6.843  18.993  0.00  0.00    +0.000 OA
ATOM     11  H   UNL     1       8.384   7.161  18.063  0.00  0.00    +0.000 HD
ENDBRANCH   9  10
ENDBRANCH   1   9
BRANCH   7  12
ATOM     12  N   UNL     1       5.357   3.722  19.004  0.00  0.00    +0.000 N 
ATOM     13  H   UNL     1       5.671   2.747  19.017  0.00  0.00    +0.000 HD
BRANCH  12  14
ATOM     14  C   UNL     1       4.055   3.823  19.563  0.00  0.00    +0.000 A 
ATOM     15  C   UNL     1       3.418   2.666  20.037  0.00  0.00    +0.000 A 
ATOM     16  C   UNL     1       2.171   2.739  20.663  0.00  0.00    +0.000 A 
ATOM     17  C   UNL     1       1.549   3.971  20.845  0.00  0.00    +0.000 A 
ATOM     18  C   UNL     1       2.179   5.132  20.402  0.00  0.00    +0.000 A 
ATOM     19  C   UNL     1       3.428   5.058  19.779  0.00  0.00    +0.000 A 
ENDBRANCH  12  14
ENDBRANCH   7  12
TORSDOF 4
ENDMDL
MODEL 2
REMARK VINA RESULT:      -7.2      0.282      1.181
REMARK  Name = 
REMARK  4 active torsions:
REMARK  status: ('A' for Active; 'I' for Inactive)
REMARK    1  A    between atoms: C_2  and  O_3
REMARK    2  A    between atoms: C_2  and  C_4
REMARK    3  A    between atoms: C_10  and  N_11
REMARK    4  A    between atoms: N_11  and  C_12
REMARK                            x       y       z     vdW  Elec       q    Type
REMARK                         _______ _______ _______ _____ _____    ______ ____
ROOT
ATOM      1  C   UNL     1       6.845   5.299  17.906  0.00  0.00    +0.000 A 
ATOM      2  C   UNL     1       7.336   5.865  16.714  0.00  0.00    +0.000 A 
ATOM      3  C   UNL     1       6.819   5.475  15.479  0.00  0.00    +0.000 A 
ATOM      4  C   UNL     1       5.832   4.499  15.428  0.00  0.00    +0.000 A 
ATOM      5 CL   UNL     1       5.223   3.979  13.906  0.00  0.00    +0.000 Cl
ATOM      6  C   UNL     1       5.336   3.928  16.603  0.00  0.00    +0.000 A 
ATOM      7  C   UNL     1       5.808   4.341  17.861  0.00  0.00    +0.000 A 
ENDROOT
BRANCH   1   9
ATOM      8  O   UNL     1       7.316   5.201  20.238  0.00  0.00    +0.000 OA
ATOM      9  C   UNL     1       7.493   5.761  19.167  0.00  0.00    +0.000 C 
BRANCH   9  10
ATOM     10  O   UNL     1       8.312   6.821  19.019  0.00  0.00    +0.000 OA
ATOM     11  H   UNL     1       8.008   7.458  18.333  0.00  0.00    +0.000 HD
ENDBRANCH   9  10
ENDBRANCH   1   9
BRANCH   7  12
ATOM     12  N   UNL     1       5.328   3.730  19.056  0.00  0.00    +0.000 N 
ATOM     13  H   UNL     1       5.735   2.794  19.136  0.00  0.00    +0.000 HD
BRANCH  12  14
ATOM     14  C   UNL     1       3.993   3.724  19.543  0.00  0.00    +0.000 A 
ATOM     15  C   UNL     1       3.389   4.936  19.908  0.00  0.00    +0.000 A 
ATOM     16  C   UNL     1       2.053   4.978  20.318  0.00  0.00    +0.000 A 
ATOM     17  C   UNL     1       1.293   3.811  20.347  0.00  0.00    +0.000 A 
ATOM     18  C   UNL     1       1.871   2.603  19.965  0.00  0.00    +0.000 A 
ATOM     19  C   UNL     1       3.206   2.564  19.553  0.00  0.00    +0.000 A 
ENDBRANCH  12  14
ENDBRANCH   7  12
TORSDOF 4
ENDMDL
MODEL 3
REMARK VINA RESULT:      -7.0      1.707      1.975
REMARK  Name = 
REMARK  4 active torsions:
REMARK  status: ('A' for Active; 'I' for Inactive)
REMARK    1  A    between atoms: C_2  and  O_3
REMARK    2  A    between atoms: C_2  and  C_4
REMARK    3  A    between atoms: C_10  and  N_11
REMARK    4  A    between atoms: N_11  and  C_12
REMARK                            x       y       z     vdW  Elec       q    Type
REMARK                         _______ _______ _______ _____ _____    ______ ____
ROOT
ATOM      1  C   UNL     1       6.889   4.902  16.379  0.00  0.00    +0.000 A 
ATOM      2  C   UNL     1       7.501   5.340  15.189  0.00  0.00    +0.000 A 
ATOM      3  C   UNL     1       7.059   4.874  13.951  0.00  0.00    +0.000 A 
ATOM      4  C   UNL     1       6.023   3.950  13.898  0.00  0.00    +0.000 A 
ATOM      5 CL   UNL     1       5.503   3.335  12.378  0.00  0.00    +0.000 Cl
ATOM      6  C   UNL     1       5.407   3.506  15.070  0.00  0.00    +0.000 A 
ATOM      7  C   UNL     1       5.804   3.999  16.326  0.00  0.00    +0.000 A 
ENDROOT
BRANCH   1   9
ATOM      8  O   UNL     1       7.529   6.630  17.886  0.00  0.00    +0.000 OA
ATOM      9  C   UNL     1       7.464   5.434  17.647  0.00  0.00    +0.000 C 
BRANCH   9  10
ATOM     10  O   UNL     1       7.869   4.489  18.517  0.00  0.00    +0.000 OA
ATOM     11  H   UNL     1       7.810   4.772  19.459  0.00  0.00    +0.000 HD
ENDBRANCH   9  10
ENDBRANCH   1   9
BRANCH   7  12
ATOM     12  N   UNL     1       5.199   3.516  17.523  0.00  0.00    +0.000 N 
ATOM     13  H   UNL     1       5.722   2.699  17.852  0.00  0.00    +0.000 HD
BRANCH  12  14
ATOM     14  C   UNL     1       3.813   3.341  17.776  0.00  0.00    +0.000 A 
ATOM     15  C   UNL     1       3.356   2.121  18.296  0.00  0.00    +0.000 A 
ATOM     16  C   UNL     1       2.011   1.941  18.630  0.00  0.00    +0.000 A 
ATOM     17  C   UNL     1       1.103   2.984  18.469  0.00  0.00    +0.000 A 
ATOM     18  C   UNL     1       1.544   4.210  17.975  0.00  0.00    +0.000 A 
ATOM     19  C   UNL     1       2.891   4.390  17.645  0.00  0.00    +0.000 A 
ENDBRANCH  12  14
ENDBRANCH   7  12
TORSDOF 4
ENDMDL
MODEL 4
REMARK VINA RESULT:      -7.0      2.888      5.752
REMARK  Name = 
REMARK  4 active torsions:
REMARK  status: ('A' for Active; 'I' for Inactive)
REMARK    1  A    between atoms: C_2  and  O_3
REMARK    2  A    between atoms: C_2  and  C_4
REMARK    3  A    between atoms: C_10  and  N_11
REMARK    4  A    between atoms: N_11  and  C_12
REMARK                            x       y       z     vdW  Elec       q    Type
REMARK                         _______ _______ _______ _____ _____    ______ ____
ROOT
ATOM      1  C   UNL     1       3.393   3.320  19.589  0.00  0.00    +0.000 A 
ATOM      2  C   UNL     1       2.108   3.325  20.166  0.00  0.00    +0.000 A 
ATOM      3  C   UNL     1       1.486   4.527  20.501  0.00  0.00    +0.000 A 
ATOM      4  C   UNL     1       2.155   5.726  20.287  0.00  0.00    +0.000 A 
ATOM      5 CL   UNL     1       1.413   7.210  20.742  0.00  0.00    +0.000 Cl
ATOM      6  C   UNL     1       3.430   5.737  19.717  0.00  0.00    +0.000 A 
ATOM      7  C   UNL     1       4.056   4.539  19.327  0.00  0.00    +0.000 A 
ENDROOT
BRANCH   1   9
ATOM      8  O   UNL     1       3.516   1.228  18.460  0.00  0.00    +0.000 OA
ATOM      9  C   UNL     1       3.979   1.979  19.304  0.00  0.00    +0.000 C 
BRANCH   9  10
ATOM     10  O   UNL     1       5.077   1.684  20.027  0.00  0.00    +0.000 OA
ATOM     11  H   UNL     1       5.830   2.297  19.862  0.00  0.00    +0.000 HD
ENDBRANCH   9  10
ENDBRANCH   1   9
BRANCH   7  12
ATOM     12  N   UNL     1       5.372   4.550  18.780  0.00  0.00    +0.000 N 
ATOM     13  H   UNL     1       5.953   5.191  19.328  0.00  0.00    +0.000 HD
BRANCH  12  14
ATOM     14  C   UNL     1       5.733   4.617  17.408  0.00  0.00    +0.000 A 
ATOM     15  C   UNL     1       7.064   4.888  17.059  0.00  0.00    +0.000 A 
ATOM     16  C   UNL     1       7.471   4.885  15.721  0.00  0.00    +0.000 A 
ATOM     17  C   UNL     1       6.558   4.588  14.713  0.00  0.00    +0.000 A 
ATOM     18  C   UNL     1       5.238   4.292  15.044  0.00  0.00    +0.000 A 
ATOM     19  C   UNL     1       4.833   4.293  16.382  0.00  0.00    +0.000 A 
ENDBRANCH  12  14
ENDBRANCH   7  12
TORSDOF 4
ENDMDL
MODEL 5
REMARK VINA RESULT:      -7.0      3.087      5.815
REMARK  Name = 
REMARK  4 active torsions:
REMARK  status: ('A' for Active; 'I' for Inactive)
REMARK    1  A    between atoms: C_2  and  O_3
REMARK    2  A    between atoms: C_2  and  C_4
REMARK    3  A    between atoms: C_10  and  N_11
REMARK    4  A    between atoms: N_11  and  C_12
REMARK                            x       y       z     vdW  Elec       q    Type
REMARK                         _______ _______ _______ _____ _____    ______ ____
ROOT
ATOM      1  C   UNL     1       3.126   3.747  19.340  0.00  0.00    +0.000 A 
ATOM      2  C   UNL     1       2.119   3.666  20.321  0.00  0.00    +0.000 A 
ATOM      3  C   UNL     1       1.511   4.822  20.809  0.00  0.00    +0.000 A 
ATOM      4  C   UNL     1       1.924   6.063  20.340  0.00  0.00    +0.000 A 
ATOM      5 CL   UNL     1       1.211   7.495  20.971  0.00  0.00    +0.000 Cl
ATOM      6  C   UNL     1       2.923   6.158  19.368  0.00  0.00    +0.000 A 
ATOM      7  C   UNL     1       3.516   5.004  18.827  0.00  0.00    +0.000 A 
ENDROOT
BRANCH   1   9
ATOM      8  O   UNL     1       3.137   1.645  18.223  0.00  0.00    +0.000 OA
ATOM      9  C   UNL     1       3.734   2.453  18.916  0.00  0.00    +0.000 C 
BRANCH   9  10
ATOM     10  O   UNL     1       5.004   2.270  19.330  0.00  0.00    +0.000 OA
ATOM     11  H   UNL     1       5.404   3.074  19.732  0.00  0.00    +0.000 HD
ENDBRANCH   9  10
ENDBRANCH   1   9
BRANCH   7  12
ATOM     12  N   UNL     1       4.561   5.105  17.863  0.00  0.00    +0.000 N 
ATOM     13  H   UNL     1       4.690   4.192  17.417  0.00  0.00    +0.000 HD
BRANCH  12  14
ATOM     14  C   UNL     1       5.815   5.753  18.020  0.00  0.00    +0.000 A 
ATOM     15  C   UNL     1       6.114   6.874  17.230  0.00  0.00    +0.000 A 
ATOM     16  C   UNL     1       7.306   7.582  17.411  0.00  0.00    +0.000 A 
ATOM     17  C   UNL     1       8.207   7.196  18.399  0.00  0.00    +0.000 A 
ATOM     18  C   UNL     1       7.915   6.100  19.207  0.00  0.00    +0.000 A 
ATOM     19  C   UNL     1       6.722   5.393  19.027  0.00  0.00    +0.000 A 
ENDBRANCH  12  14
ENDBRANCH   7  12
TORSDOF 4
ENDMDL
MODEL 6
REMARK VINA RESULT:      -7.0      2.873      5.698
REMARK  Name = 
REMARK  4 active torsions:
REMARK  status: ('A' for Active; 'I' for Inactive)
REMARK    1  A    between atoms: C_2  and  O_3
REMARK    2  A    between atoms: C_2  and  C_4
REMARK    3  A    between atoms: C_10  and  N_11
REMARK    4  A    between atoms: N_11  and  C_12
REMARK                            x       y       z     vdW  Elec       q    Type
REMARK                         _______ _______ _______ _____ _____    ______ ____
ROOT
ATOM      1  C   UNL     1       3.495   3.217  19.652  0.00  0.00    +0.000 A 
ATOM      2  C   UNL     1       2.204   3.238  20.211  0.00  0.00    +0.000 A 
ATOM      3  C   UNL     1       1.583   4.449  20.517  0.00  0.00    +0.000 A 
ATOM      4  C   UNL     1       2.260   5.641  20.291  0.00  0.00    +0.000 A 
ATOM      5 CL   UNL     1       1.520   7.136  20.709  0.00  0.00    +0.000 Cl
ATOM      6  C   UNL     1       3.543   5.635  19.738  0.00  0.00    +0.000 A 
ATOM      7  C   UNL     1       4.168   4.428  19.377  0.00  0.00    +0.000 A 
ENDROOT
BRANCH   1   9
ATOM      8  O   UNL     1       3.633   1.111  18.550  0.00  0.00    +0.000 OA
ATOM      9  C   UNL     1       4.079   1.868  19.398  0.00  0.00    +0.000 C 
BRANCH   9  10
ATOM     10  O   UNL     1       5.155   1.574  20.153  0.00  0.00    +0.000 OA
ATOM     11  H   UNL     1       5.175   2.056  21.012  0.00  0.00    +0.000 HD
ENDBRANCH   9  10
ENDBRANCH   1   9
BRANCH   7  12
ATOM     12  N   UNL     1       5.491   4.423  18.848  0.00  0.00    +0.000 N 
ATOM     13  H   UNL     1       6.066   5.079  19.385  0.00  0.00    +0.000 HD
BRANCH  12  14
ATOM     14  C   UNL     1       5.870   4.451  17.479  0.00  0.00    +0.000 A 
ATOM     15  C   UNL     1       4.899   4.232  16.491  0.00  0.00    +0.000 A 
ATOM     16  C   UNL     1       5.220   4.328  15.134  0.00  0.00    +0.000 A 
ATOM     17  C   UNL     1       6.512   4.666  14.743  0.00  0.00    +0.000 A 
ATOM     18  C   UNL     1       7.483   4.910  15.711  0.00  0.00    +0.000 A 
ATOM     19  C   UNL     1       7.160   4.816  17.068  0.00  0.00    +0.000 A 
ENDBRANCH  12  14
ENDBRANCH   7  12
TORSDOF 4
ENDMDL
MODEL 7
REMARK VINA RESULT:      -7.0      1.536      1.983
REMARK  Name = 
REMARK  4 active torsions:
REMARK  status: ('A' for Active; 'I' for Inactive)
REMARK    1  A    between atoms: C_2  and  O_3
REMARK    2  A    between atoms: C_2  and  C_4
REMARK    3  A    between atoms: C_10  and  N_11
REMARK    4  A    between atoms: N_11  and  C_12
REMARK                            x       y       z     vdW  Elec       q    Type
REMARK                         _______ _______ _______ _____ _____    ______ ____
ROOT
ATOM      1  C   UNL     1       6.927   4.979  16.709  0.00  0.00    +0.000 A 
ATOM      2  C   UNL     1       7.527   5.435  15.519  0.00  0.00    +0.000 A 
ATOM      3  C   UNL     1       7.079   4.979  14.279  0.00  0.00    +0.000 A 
ATOM      4  C   UNL     1       6.050   4.048  14.224  0.00  0.00    +0.000 A 
ATOM      5 CL   UNL     1       5.524   3.446  12.701  0.00  0.00    +0.000 Cl
ATOM      6  C   UNL     1       5.446   3.586  15.396  0.00  0.00    +0.000 A 
ATOM      7  C   UNL     1       5.849   4.068  16.654  0.00  0.00    +0.000 A 
ENDROOT
BRANCH   1   9
ATOM      8  O   UNL     1       7.834   4.770  18.900  0.00  0.00    +0.000 OA
ATOM      9  C   UNL     1       7.507   5.502  17.979  0.00  0.00    +0.000 C 
BRANCH   9  10
ATOM     10  O   UNL     1       7.673   6.839  18.009  0.00  0.00    +0.000 OA
ATOM     11  H   UNL     1       7.549   7.268  17.131  0.00  0.00    +0.000 HD
ENDBRANCH   9  10
ENDBRANCH   1   9
BRANCH   7  12
ATOM     12  N   UNL     1       5.257   3.566  17.850  0.00  0.00    +0.000 N 
ATOM     13  H   UNL     1       5.783   2.744  18.160  0.00  0.00    +0.000 HD
BRANCH  12  14
ATOM     14  C   UNL     1       3.873   3.389  18.116  0.00  0.00    +0.000 A 
ATOM     15  C   UNL     1       2.971   4.409  17.778  0.00  0.00    +0.000 A 
ATOM     16  C   UNL     1       1.595   4.238  17.954  0.00  0.00    +0.000 A 
ATOM     17  C   UNL     1       1.096   3.037  18.449  0.00  0.00    +0.000 A 
ATOM     18  C   UNL     1       1.976   2.005  18.768  0.00  0.00    +0.000 A 
ATOM     19  C   UNL     1       3.352   2.176  18.588  0.00  0.00    +0.000 A 
ENDBRANCH  12  14
ENDBRANCH   7  12
TORSDOF 4
ENDMDL
MODEL 8
REMARK VINA RESULT:      -6.9      0.883      1.439
REMARK  Name = 
REMARK  4 active torsions:
REMARK  status: ('A' for Active; 'I' for Inactive)
REMARK    1  A    between atoms: C_2  and  O_3
REMARK    2  A    between atoms: C_2  and  C_4
REMARK    3  A    between atoms: C_10  and  N_11
REMARK    4  A    between atoms: N_11  and  C_12
REMARK                            x       y       z     vdW  Elec       q    Type
REMARK                         _______ _______ _______ _____ _____    ______ ____
ROOT
ATOM      1  C   UNL     1       6.711   5.360  17.803  0.00  0.00    +0.000 A 
ATOM      2  C   UNL     1       7.581   4.896  16.798  0.00  0.00    +0.000 A 
ATOM      3  C   UNL     1       7.083   4.502  15.556  0.00  0.00    +0.000 A 
ATOM      4  C   UNL     1       5.714   4.544  15.324  0.00  0.00    +0.000 A 
ATOM      5 CL   UNL     1       5.089   4.015  13.811  0.00  0.00    +0.000 Cl
ATOM      6  C   UNL     1       4.839   5.001  16.312  0.00  0.00    +0.000 A 
ATOM      7  C   UNL     1       5.323   5.449  17.554  0.00  0.00    +0.000 A 
ENDROOT
BRANCH   1   9
ATOM      8  O   UNL     1       7.073   5.146  20.147  0.00  0.00    +0.000 OA
ATOM      9  C   UNL     1       7.344   5.721  19.104  0.00  0.00    +0.000 C 
BRANCH   9  10
ATOM     10  O   UNL     1       8.261   6.705  19.025  0.00  0.00    +0.000 OA
ATOM     11  H   UNL     1       9.116   6.478  19.458  0.00  0.00    +0.000 HD
ENDBRANCH   9  10
ENDBRANCH   1   9
BRANCH   7  12
ATOM     12  N   UNL     1       4.425   5.879  18.573  0.00  0.00    +0.000 N 
ATOM     13  H   UNL     1       4.895   6.579  19.155  0.00  0.00    +0.000 HD
BRANCH  12  14
ATOM     14  C   UNL     1       3.581   5.065  19.375  0.00  0.00    +0.000 A 
ATOM     15  C   UNL     1       2.382   5.597  19.873  0.00  0.00    +0.000 A 
ATOM     16  C   UNL     1       1.491   4.802  20.601  0.00  0.00    +0.000 A 
ATOM     17  C   UNL     1       1.774   3.457  20.823  0.00  0.00    +0.000 A 
ATOM     18  C   UNL     1       2.948   2.907  20.316  0.00  0.00    +0.000 A 
ATOM     19  C   UNL     1       3.837   3.702  19.586  0.00  0.00    +0.000 A 
ENDBRANCH  12  14
ENDBRANCH   7  12
TORSDOF 4
ENDMDL
MODEL 9
REMARK VINA RESULT:      -6.9      1.328      1.543
REMARK  Name = 
REMARK  4 active torsions:
REMARK  status: ('A' for Active; 'I' for Inactive)
REMARK    1  A    between atoms: C_2  and  O_3
REMARK    2  A    between atoms: C_2  and  C_4
REMARK    3  A    between atoms: C_10  and  N_11
REMARK    4  A    between atoms: N_11  and  C_12
REMARK                            x       y       z     vdW  Elec       q    Type
REMARK                         _______ _______ _______ _____ _____    ______ ____
ROOT
ATOM      1  C   UNL     1       6.083   4.958  17.852  0.00  0.00    +0.000 A 
ATOM      2  C   UNL     1       6.759   5.815  16.963  0.00  0.00    +0.000 A 
ATOM      3  C   UNL     1       6.812   5.525  15.600  0.00  0.00    +0.000 A 
ATOM      4  C   UNL     1       6.213   4.365  15.124  0.00  0.00    +0.000 A 
ATOM      5 CL   UNL     1       6.313   3.977  13.452  0.00  0.00    +0.000 Cl
ATOM      6  C   UNL     1       5.539   3.505  15.994  0.00  0.00    +0.000 A 
ATOM      7  C   UNL     1       5.432   3.803  17.365  0.00  0.00    +0.000 A 
ENDROOT
BRANCH   1   9
ATOM      8  O   UNL     1       7.159   5.389  19.931  0.00  0.00    +0.000 OA
ATOM      9  C   UNL     1       6.120   5.343  19.291  0.00  0.00    +0.000 C 
BRANCH   9  10
ATOM     10  O   UNL     1       4.922   5.671  19.814  0.00  0.00    +0.000 OA
ATOM     11  H   UNL     1       4.830   6.631  20.012  0.00  0.00    +0.000 HD
ENDBRANCH   9  10
ENDBRANCH   1   9
BRANCH   7  12
ATOM     12  N   UNL     1       4.777   2.904  18.256  0.00  0.00    +0.000 N 
ATOM     13  H   UNL     1       5.024   1.944  17.999  0.00  0.00    +0.000 HD
BRANCH  12  14
ATOM     14  C   UNL     1       3.428   2.960  18.696  0.00  0.00    +0.000 A 
ATOM     15  C   UNL     1       3.120   2.610  20.019  0.00  0.00    +0.000 A 
ATOM     16  C   UNL     1       1.816   2.727  20.508  0.00  0.00    +0.000 A 
ATOM     17  C   UNL     1       0.802   3.217  19.689  0.00  0.00    +0.000 A 
ATOM     18  C   UNL     1       1.095   3.592  18.380  0.00  0.00    +0.000 A 
ATOM     19  C   UNL     1       2.401   3.477  17.893  0.00  0.00    +0.000 A 
ENDBRANCH  12  14
ENDBRANCH   7  12
TORSDOF 4
ENDMDL
