MODEL 1
REMARK VINA RESULT:      -8.0      0.000      0.000
REMARK  Name = 
REMARK  16 active torsions:
REMARK  status: ('A' for Active; 'I' for Inactive)
REMARK    1  A    between atoms: C_1  and  O_2
REMARK    2  A    between atoms: O_2  and  C_3
REMARK    3  A    between atoms: C_3  and  C_4
REMARK    4  A    between atoms: C_6  and  C_7
REMARK    5  A    between atoms: C_7  and  C_8
REMARK    6  A    between atoms: C_11  and  O_12
REMARK    7  A    between atoms: C_13  and  C_14
REMARK    8  A    between atoms: C_14  and  N_15
REMARK    9  A    between atoms: N_15  and  C_16
REMARK   10  A    between atoms: N_15  and  C_20
REMARK   11  A    between atoms: C_16  and  C_17
REMARK   12  A    between atoms: C_17  and  C_18
REMARK   13  A    between atoms: C_17  and  C_19
REMARK   14  A    between atoms: C_20  and  C_21
REMARK   15  A    between atoms: C_21  and  C_22
REMARK   16  A    between atoms: C_21  and  C_23
REMARK                            x       y       z     vdW  Elec       q    Type
REMARK                         _______ _______ _______ _____ _____    ______ ____
ROOT
ATOM      1  C   UNL     1       6.080   7.235  17.086  0.00  0.00    +0.000 C 
ATOM      2  C   UNL     1       7.471   6.790  18.247  0.00  0.00    +0.000 C 
ATOM      3  C   UNL     1       7.041   5.334  19.422  0.00  0.00    +0.000 C 
ATOM      4  C   UNL     1       5.268   4.661  19.343  0.00  0.00    +0.000 C 
ATOM      5  C   UNL     1       3.934   5.407  18.254  0.00  0.00    +0.000 C 
ATOM      6  O   UNL     1       4.331   6.861  17.304  0.00  0.00    +0.000 OA
ENDROOT
BRANCH   4   7
ATOM      7  O   UNL     1       5.401   3.279  18.999  0.00  0.00    +0.000 OA
ATOM      8  H   UNL     1       5.997   2.879  19.662  0.00  0.00    +0.000 HD
ENDBRANCH   4   7
BRANCH   1   9
ATOM      9  C   UNL     1       5.910   6.044  17.744  0.00  0.00    +0.000 C 
BRANCH   9  12
ATOM     10  C   UNL     1       6.542   4.427  13.921  0.00  0.00    +0.000 A 
ATOM     11  C   UNL     1       5.708   4.485  15.005  0.00  0.00    +0.000 A 
ATOM     12  C   UNL     1       6.388   5.266  16.036  0.00  0.00    +0.000 A 
ATOM     13  N   UNL     1       7.574   5.658  15.463  0.00  0.00    +0.000 NA
ATOM     14  O   UNL     1       7.651   5.141  14.199  0.00  0.00    +0.000 OA
BRANCH  10  15
ATOM     15  C   UNL     1       6.519   3.653  12.662  0.00  0.00    +0.000 C 
BRANCH  15  17
ATOM     16  C   UNL     1       5.156   2.258  11.381  0.00  0.00    +0.000 C 
ATOM     17  O   UNL     1       5.170   3.340  12.304  0.00  0.00    +0.000 OA
ENDBRANCH  15  17
ENDBRANCH  10  15
ENDBRANCH   9  12
ENDBRANCH   1   9
BRANCH   5  18
ATOM     18  C   UNL     1       2.406   5.292  18.611  0.00  0.00    +0.000 C 
BRANCH  18  19
ATOM     19  N   UNL     1       1.874   5.357  19.992  0.00  0.00    +0.000 NA
BRANCH  19  20
ATOM     20  C   UNL     1       1.113   6.624  20.124  0.00  0.00    +0.000 C 
BRANCH  20  21
ATOM     21  C   UNL     1       1.895   7.948  20.240  0.00  0.00    +0.000 C 
ATOM     22  C   UNL     1       1.642   8.853  19.043  0.00  0.00    +0.000 C 
ATOM     23  C   UNL     1       1.464   8.640  21.541  0.00  0.00    +0.000 C 
ENDBRANCH  20  21
ENDBRANCH  19  20
BRANCH  19  24
ATOM     24  C   UNL     1       0.922   4.245  20.254  0.00  0.00    +0.000 C 
BRANCH  24  25
ATOM     25  C   UNL     1       1.422   2.828  20.608  0.00  0.00    +0.000 C 
ATOM     26  C   UNL     1       1.801   2.011  19.377  0.00  0.00    +0.000 C 
ATOM     27  C   UNL     1       2.646   2.966  21.532  0.00  0.00    +0.000 C 
ENDBRANCH  24  25
ENDBRANCH  19  24
ENDBRANCH  18  19
ENDBRANCH   5  18
TORSDOF 11
ENDMDL
MODEL 2
REMARK VINA RESULT:      -8.0      1.856      2.954
REMARK  Name = 
REMARK  16 active torsions:
REMARK  status: ('A' for Active; 'I' for Inactive)
REMARK    1  A    between atoms: C_1  and  O_2
REMARK    2  A    between atoms: O_2  and  C_3
REMARK    3  A    between atoms: C_3  and  C_4
REMARK    4  A    between atoms: C_6  and  C_7
REMARK    5  A    between atoms: C_7  and  C_8
REMARK    6  A    between atoms: C_11  and  O_12
REMARK    7  A    between atoms: C_13  and  C_14
REMARK    8  A    between atoms: C_14  and  N_15
REMARK    9  A    between atoms: N_15  and  C_16
REMARK   10  A    between atoms: N_15  and  C_20
REMARK   11  A    between atoms: C_16  and  C_17
REMARK   12  A    between atoms: C_17  and  C_18
REMARK   13  A    between atoms: C_17  and  C_19
REMARK   14  A    between atoms: C_20  and  C_21
REMARK   15  A    between atoms: C_21  and  C_22
REMARK   16  A    between atoms: C_21  and  C_23
REMARK                            x       y       z     vdW  Elec       q    Type
REMARK                         _______ _______ _______ _____ _____    ______ ____
ROOT
ATOM      1  C   UNL     1       5.332   6.729  16.457  0.00  0.00    +0.000 C 
ATOM      2  C   UNL     1       6.732   7.811  17.051  0.00  0.00    +0.000 C 
ATOM      3  C   UNL     1       7.894   6.930  18.299  0.00  0.00    +0.000 C 
ATOM      4  C   UNL     1       7.396   5.183  18.850  0.00  0.00    +0.000 C 
ATOM      5  C   UNL     1       5.807   4.348  18.305  0.00  0.00    +0.000 C 
ATOM      6  O   UNL     1       4.676   5.266  17.278  0.00  0.00    +0.000 OA
ENDROOT
BRANCH   4   7
ATOM      7  O   UNL     1       8.491   4.341  18.479  0.00  0.00    +0.000 OA
ATOM      8  H   UNL     1       9.287   4.702  18.917  0.00  0.00    +0.000 HD
ENDBRANCH   4   7
BRANCH   1   9
ATOM      9  C   UNL     1       6.320   6.059  17.130  0.00  0.00    +0.000 C 
BRANCH   9  12
ATOM     10  C   UNL     1       6.614   4.310  13.324  0.00  0.00    +0.000 A 
ATOM     11  C   UNL     1       5.904   4.373  14.493  0.00  0.00    +0.000 A 
ATOM     12  C   UNL     1       6.649   5.233  15.409  0.00  0.00    +0.000 A 
ATOM     13  N   UNL     1       7.740   5.660  14.692  0.00  0.00    +0.000 NA
ATOM     14  O   UNL     1       7.706   5.092  13.447  0.00  0.00    +0.000 OA
BRANCH  10  15
ATOM     15  C   UNL     1       6.496   3.482  12.106  0.00  0.00    +0.000 C 
BRANCH  15  17
ATOM     16  C   UNL     1       4.302   3.221  11.354  0.00  0.00    +0.000 C 
ATOM     17  O   UNL     1       5.321   2.670  12.178  0.00  0.00    +0.000 OA
ENDBRANCH  15  17
ENDBRANCH  10  15
ENDBRANCH   9  12
ENDBRANCH   1   9
BRANCH   5  18
ATOM     18  C   UNL     1       5.103   3.245  19.178  0.00  0.00    +0.000 C 
BRANCH  18  19
ATOM     19  N   UNL     1       3.655   3.240  19.491  0.00  0.00    +0.000 NA
BRANCH  19  20
ATOM     20  C   UNL     1       3.023   2.159  18.695  0.00  0.00    +0.000 C 
BRANCH  20  21
ATOM     21  C   UNL     1       1.739   2.478  17.902  0.00  0.00    +0.000 C 
ATOM     22  C   UNL     1       0.490   2.106  18.687  0.00  0.00    +0.000 C 
ATOM     23  C   UNL     1       1.745   3.979  17.576  0.00  0.00    +0.000 C 
ENDBRANCH  20  21
ENDBRANCH  19  20
BRANCH  19  24
ATOM     24  C   UNL     1       3.416   2.925  20.925  0.00  0.00    +0.000 C 
BRANCH  24  25
ATOM     25  C   UNL     1       2.298   3.627  21.725  0.00  0.00    +0.000 C 
ATOM     26  C   UNL     1       1.728   4.843  21.001  0.00  0.00    +0.000 C 
ATOM     27  C   UNL     1       1.174   2.605  21.979  0.00  0.00    +0.000 C 
ENDBRANCH  24  25
ENDBRANCH  19  24
ENDBRANCH  18  19
ENDBRANCH   5  18
TORSDOF 11
ENDMDL
MODEL 3
REMARK VINA RESULT:      -7.9      0.770      3.074
REMARK  Name = 
REMARK  16 active torsions:
REMARK  status: ('A' for Active; 'I' for Inactive)
REMARK    1  A    between atoms: C_1  and  O_2
REMARK    2  A    between atoms: O_2  and  C_3
REMARK    3  A    between atoms: C_3  and  C_4
REMARK    4  A    between atoms: C_6  and  C_7
REMARK    5  A    between atoms: C_7  and  C_8
REMARK    6  A    between atoms: C_11  and  O_12
REMARK    7  A    between atoms: C_13  and  C_14
REMARK    8  A    between atoms: C_14  and  N_15
REMARK    9  A    between atoms: N_15  and  C_16
REMARK   10  A    between atoms: N_15  and  C_20
REMARK   11  A    between atoms: C_16  and  C_17
REMARK   12  A    between atoms: C_17  and  C_18
REMARK   13  A    between atoms: C_17  and  C_19
REMARK   14  A    between atoms: C_20  and  C_21
REMARK   15  A    between atoms: C_21  and  C_22
REMARK   16  A    between atoms: C_21  and  C_23
REMARK                            x       y       z     vdW  Elec       q    Type
REMARK                         _______ _______ _______ _____ _____    ______ ____
ROOT
ATOM      1  C   UNL     1       5.992   7.261  16.809  0.00  0.00    +0.000 C 
ATOM      2  C   UNL     1       7.425   7.002  17.976  0.00  0.00    +0.000 C 
ATOM      3  C   UNL     1       7.128   5.591  19.241  0.00  0.00    +0.000 C 
ATOM      4  C   UNL     1       5.416   4.771  19.227  0.00  0.00    +0.000 C 
ATOM      5  C   UNL     1       4.016   5.337  18.114  0.00  0.00    +0.000 C 
ATOM      6  O   UNL     1       4.282   6.758  17.072  0.00  0.00    +0.000 OA
ENDROOT
BRANCH   4   7
ATOM      7  O   UNL     1       5.660   3.386  18.966  0.00  0.00    +0.000 OA
ATOM      8  H   UNL     1       6.116   3.026  19.752  0.00  0.00    +0.000 HD
ENDBRANCH   4   7
BRANCH   1   9
ATOM      9  C   UNL     1       5.927   6.102  17.540  0.00  0.00    +0.000 C 
BRANCH   9  12
ATOM     10  C   UNL     1       6.619   4.552  13.699  0.00  0.00    +0.000 A 
ATOM     11  C   UNL     1       5.684   5.022  14.582  0.00  0.00    +0.000 A 
ATOM     12  C   UNL     1       6.365   5.255  15.854  0.00  0.00    +0.000 A 
ATOM     13  N   UNL     1       7.682   4.944  15.616  0.00  0.00    +0.000 NA
ATOM     14  O   UNL     1       7.814   4.520  14.322  0.00  0.00    +0.000 OA
BRANCH  10  15
ATOM     15  C   UNL     1       6.534   3.970  12.344  0.00  0.00    +0.000 C 
BRANCH  15  17
ATOM     16  C   UNL     1       4.469   3.225  11.552  0.00  0.00    +0.000 C 
ATOM     17  O   UNL     1       5.605   2.882  12.335  0.00  0.00    +0.000 OA
ENDBRANCH  15  17
ENDBRANCH  10  15
ENDBRANCH   9  12
ENDBRANCH   1   9
BRANCH   5  18
ATOM     18  C   UNL     1       2.506   5.118  18.498  0.00  0.00    +0.000 C 
BRANCH  18  19
ATOM     19  N   UNL     1       1.848   5.761  19.660  0.00  0.00    +0.000 NA
BRANCH  19  20
ATOM     20  C   UNL     1       2.298   5.052  20.884  0.00  0.00    +0.000 C 
BRANCH  20  21
ATOM     21  C   UNL     1       1.628   3.713  21.252  0.00  0.00    +0.000 C 
ATOM     22  C   UNL     1       0.615   3.287  20.199  0.00  0.00    +0.000 C 
ATOM     23  C   UNL     1       2.732   2.655  21.398  0.00  0.00    +0.000 C 
ENDBRANCH  20  21
ENDBRANCH  19  20
BRANCH  19  24
ATOM     24  C   UNL     1       2.267   7.181  19.797  0.00  0.00    +0.000 C 
BRANCH  24  25
ATOM     25  C   UNL     1       1.364   8.335  19.311  0.00  0.00    +0.000 C 
ATOM     26  C   UNL     1       1.064   9.352  20.407  0.00  0.00    +0.000 C 
ATOM     27  C   UNL     1       2.072   9.037  18.136  0.00  0.00    +0.000 C 
ENDBRANCH  24  25
ENDBRANCH  19  24
ENDBRANCH  18  19
ENDBRANCH   5  18
TORSDOF 11
ENDMDL
MODEL 4
REMARK VINA RESULT:      -7.9      2.142      7.633
REMARK  Name = 
REMARK  16 active torsions:
REMARK  status: ('A' for Active; 'I' for Inactive)
REMARK    1  A    between atoms: C_1  and  O_2
REMARK    2  A    between atoms: O_2  and  C_3
REMARK    3  A    between atoms: C_3  and  C_4
REMARK    4  A    between atoms: C_6  and  C_7
REMARK    5  A    between atoms: C_7  and  C_8
REMARK    6  A    between atoms: C_11  and  O_12
REMARK    7  A    between atoms: C_13  and  C_14
REMARK    8  A    between atoms: C_14  and  N_15
REMARK    9  A    between atoms: N_15  and  C_16
REMARK   10  A    between atoms: N_15  and  C_20
REMARK   11  A    between atoms: C_16  and  C_17
REMARK   12  A    between atoms: C_17  and  C_18
REMARK   13  A    between atoms: C_17  and  C_19
REMARK   14  A    between atoms: C_20  and  C_21
REMARK   15  A    between atoms: C_21  and  C_22
REMARK   16  A    between atoms: C_21  and  C_23
REMARK                            x       y       z     vdW  Elec       q    Type
REMARK                         _______ _______ _______ _____ _____    ______ ____
ROOT
ATOM      1  C   UNL     1       1.086   3.594  18.670  0.00  0.00    +0.000 C 
ATOM      2  C   UNL     1       1.491   2.852  20.333  0.00  0.00    +0.000 C 
ATOM      3  C   UNL     1       3.370   2.553  20.592  0.00  0.00    +0.000 C 
ATOM      4  C   UNL     1       4.508   2.910  19.116  0.00  0.00    +0.000 C 
ATOM      5  C   UNL     1       3.872   3.441  17.433  0.00  0.00    +0.000 C 
ATOM      6  O   UNL     1       2.109   3.545  17.188  0.00  0.00    +0.000 OA
ENDROOT
BRANCH   4   7
ATOM      7  O   UNL     1       5.429   3.903  19.577  0.00  0.00    +0.000 OA
ATOM      8  H   UNL     1       6.325   3.524  19.480  0.00  0.00    +0.000 HD
ENDBRANCH   4   7
BRANCH   1   9
ATOM      9  C   UNL     1       2.419   3.617  18.991  0.00  0.00    +0.000 C 
BRANCH   9  12
ATOM     10  C   UNL     1       1.734   7.466  20.523  0.00  0.00    +0.000 A 
ATOM     11  C   UNL     1       1.565   6.121  20.716  0.00  0.00    +0.000 A 
ATOM     12  C   UNL     1       2.052   5.446  19.515  0.00  0.00    +0.000 A 
ATOM     13  N   UNL     1       2.522   6.451  18.705  0.00  0.00    +0.000 NA
ATOM     14  O   UNL     1       2.318   7.654  19.323  0.00  0.00    +0.000 OA
BRANCH  10  15
ATOM     15  C   UNL     1       1.283   8.663  21.264  0.00  0.00    +0.000 C 
BRANCH  15  17
ATOM     16  C   UNL     1      -0.402   9.361  22.719  0.00  0.00    +0.000 C 
ATOM     17  O   UNL     1      -0.102   8.540  21.598  0.00  0.00    +0.000 OA
ENDBRANCH  15  17
ENDBRANCH  10  15
ENDBRANCH   9  12
ENDBRANCH   1   9
BRANCH   5  18
ATOM     18  C   UNL     1       4.670   3.148  16.110  0.00  0.00    +0.000 C 
BRANCH  18  19
ATOM     19  N   UNL     1       5.751   4.017  15.588  0.00  0.00    +0.000 NA
BRANCH  19  20
ATOM     20  C   UNL     1       5.426   4.347  14.179  0.00  0.00    +0.000 C 
BRANCH  20  21
ATOM     21  C   UNL     1       6.236   3.667  13.055  0.00  0.00    +0.000 C 
ATOM     22  C   UNL     1       5.339   3.229  11.906  0.00  0.00    +0.000 C 
ATOM     23  C   UNL     1       7.294   4.666  12.563  0.00  0.00    +0.000 C 
ENDBRANCH  20  21
ENDBRANCH  19  20
BRANCH  19  24
ATOM     24  C   UNL     1       5.815   5.301  16.335  0.00  0.00    +0.000 C 
BRANCH  24  25
ATOM     25  C   UNL     1       7.122   5.775  17.007  0.00  0.00    +0.000 C 
ATOM     26  C   UNL     1       6.877   6.764  18.143  0.00  0.00    +0.000 C 
ATOM     27  C   UNL     1       7.859   4.538  17.551  0.00  0.00    +0.000 C 
ENDBRANCH  24  25
ENDBRANCH  19  24
ENDBRANCH  18  19
ENDBRANCH   5  18
TORSDOF 11
ENDMDL
MODEL 5
REMARK VINA RESULT:      -7.8      2.051      7.488
REMARK  Name = 
REMARK  16 active torsions:
REMARK  status: ('A' for Active; 'I' for Inactive)
REMARK    1  A    between atoms: C_1  and  O_2
REMARK    2  A    between atoms: O_2  and  C_3
REMARK    3  A    between atoms: C_3  and  C_4
REMARK    4  A    between atoms: C_6  and  C_7
REMARK    5  A    between atoms: C_7  and  C_8
REMARK    6  A    between atoms: C_11  and  O_12
REMARK    7  A    between atoms: C_13  and  C_14
REMARK    8  A    between atoms: C_14  and  N_15
REMARK    9  A    between atoms: N_15  and  C_16
REMARK   10  A    between atoms: N_15  and  C_20
REMARK   11  A    between atoms: C_16  and  C_17
REMARK   12  A    between atoms: C_17  and  C_18
REMARK   13  A    between atoms: C_17  and  C_19
REMARK   14  A    between atoms: C_20  and  C_21
REMARK   15  A    between atoms: C_21  and  C_22
REMARK   16  A    between atoms: C_21  and  C_23
REMARK                            x       y       z     vdW  Elec       q    Type
REMARK                         _______ _______ _______ _____ _____    ______ ____
ROOT
ATOM      1  C   UNL     1       1.259   3.900  17.951  0.00  0.00    +0.000 C 
ATOM      2  C   UNL     1       1.208   2.842  19.487  0.00  0.00    +0.000 C 
ATOM      3  C   UNL     1       2.949   2.334  20.116  0.00  0.00    +0.000 C 
ATOM      4  C   UNL     1       4.431   2.842  19.045  0.00  0.00    +0.000 C 
ATOM      5  C   UNL     1       4.254   3.718  17.395  0.00  0.00    +0.000 C 
ATOM      6  O   UNL     1       2.613   4.022  16.769  0.00  0.00    +0.000 OA
ENDROOT
BRANCH   4   7
ATOM      7  O   UNL     1       5.252   3.652  19.892  0.00  0.00    +0.000 OA
ATOM      8  H   UNL     1       5.350   4.517  19.448  0.00  0.00    +0.000 HD
ENDBRANCH   4   7
BRANCH   1   9
ATOM      9  C   UNL     1       2.471   3.746  18.574  0.00  0.00    +0.000 C 
BRANCH   9  12
ATOM     10  C   UNL     1       1.772   7.408  20.505  0.00  0.00    +0.000 A 
ATOM     11  C   UNL     1       1.604   6.050  20.552  0.00  0.00    +0.000 A 
ATOM     12  C   UNL     1       2.098   5.507  19.288  0.00  0.00    +0.000 A 
ATOM     13  N   UNL     1       2.569   6.594  18.592  0.00  0.00    +0.000 NA
ATOM     14  O   UNL     1       2.360   7.724  19.334  0.00  0.00    +0.000 OA
BRANCH  10  15
ATOM     15  C   UNL     1       1.316   8.519  21.367  0.00  0.00    +0.000 C 
BRANCH  15  17
ATOM     16  C   UNL     1       0.379  10.586  20.826  0.00  0.00    +0.000 C 
ATOM     17  O   UNL     1       0.197   9.177  20.766  0.00  0.00    +0.000 OA
ENDBRANCH  15  17
ENDBRANCH  10  15
ENDBRANCH   9  12
ENDBRANCH   1   9
BRANCH   5  18
ATOM     18  C   UNL     1       5.340   3.593  16.264  0.00  0.00    +0.000 C 
BRANCH  18  19
ATOM     19  N   UNL     1       6.245   4.696  15.864  0.00  0.00    +0.000 NA
BRANCH  19  20
ATOM     20  C   UNL     1       5.989   4.996  14.434  0.00  0.00    +0.000 C 
BRANCH  20  21
ATOM     21  C   UNL     1       6.335   3.924  13.380  0.00  0.00    +0.000 C 
ATOM     22  C   UNL     1       5.113   3.530  12.562  0.00  0.00    +0.000 C 
ATOM     23  C   UNL     1       7.434   4.491  12.470  0.00  0.00    +0.000 C 
ENDBRANCH  20  21
ENDBRANCH  19  20
BRANCH  19  24
ATOM     24  C   UNL     1       5.953   5.936  16.631  0.00  0.00    +0.000 C 
BRANCH  24  25
ATOM     25  C   UNL     1       6.806   6.346  17.851  0.00  0.00    +0.000 C 
ATOM     26  C   UNL     1       7.783   5.255  18.281  0.00  0.00    +0.000 C 
ATOM     27  C   UNL     1       7.588   7.621  17.485  0.00  0.00    +0.000 C 
ENDBRANCH  24  25
ENDBRANCH  19  24
ENDBRANCH  18  19
ENDBRANCH   5  18
TORSDOF 11
ENDMDL
MODEL 6
REMARK VINA RESULT:      -7.5      2.097      7.263
REMARK  Name = 
REMARK  16 active torsions:
REMARK  status: ('A' for Active; 'I' for Inactive)
REMARK    1  A    between atoms: C_1  and  O_2
REMARK    2  A    between atoms: O_2  and  C_3
REMARK    3  A    between atoms: C_3  and  C_4
REMARK    4  A    between atoms: C_6  and  C_7
REMARK    5  A    between atoms: C_7  and  C_8
REMARK    6  A    between atoms: C_11  and  O_12
REMARK    7  A    between atoms: C_13  and  C_14
REMARK    8  A    between atoms: C_14  and  N_15
REMARK    9  A    between atoms: N_15  and  C_16
REMARK   10  A    between atoms: N_15  and  C_20
REMARK   11  A    between atoms: C_16  and  C_17
REMARK   12  A    between atoms: C_17  and  C_18
REMARK   13  A    between atoms: C_17  and  C_19
REMARK   14  A    between atoms: C_20  and  C_21
REMARK   15  A    between atoms: C_21  and  C_22
REMARK   16  A    between atoms: C_21  and  C_23
REMARK                            x       y       z     vdW  Elec       q    Type
REMARK                         _______ _______ _______ _____ _____    ______ ____
ROOT
ATOM      1  C   UNL     1       1.430   3.734  18.175  0.00  0.00    +0.000 C 
ATOM      2  C   UNL     1       1.683   2.819  19.781  0.00  0.00    +0.000 C 
ATOM      3  C   UNL     1       3.533   2.575  20.231  0.00  0.00    +0.000 C 
ATOM      4  C   UNL     1       4.811   3.152  18.953  0.00  0.00    +0.000 C 
ATOM      5  C   UNL     1       4.344   3.848  17.275  0.00  0.00    +0.000 C 
ATOM      6  O   UNL     1       2.618   3.904  16.831  0.00  0.00    +0.000 OA
ENDROOT
BRANCH   4   7
ATOM      7  O   UNL     1       5.615   4.123  19.629  0.00  0.00    +0.000 OA
ATOM      8  H   UNL     1       6.067   3.657  20.360  0.00  0.00    +0.000 HD
ENDBRANCH   4   7
BRANCH   1   9
ATOM      9  C   UNL     1       2.714   3.777  18.655  0.00  0.00    +0.000 C 
BRANCH   9  12
ATOM     10  C   UNL     1       1.731   7.441  20.455  0.00  0.00    +0.000 A 
ATOM     11  C   UNL     1       1.715   6.077  20.575  0.00  0.00    +0.000 A 
ATOM     12  C   UNL     1       2.192   5.524  19.309  0.00  0.00    +0.000 A 
ATOM     13  N   UNL     1       2.503   6.617  18.536  0.00  0.00    +0.000 NA
ATOM     14  O   UNL     1       2.214   7.756  19.237  0.00  0.00    +0.000 OA
BRANCH  10  15
ATOM     15  C   UNL     1       1.206   8.541  21.292  0.00  0.00    +0.000 C 
BRANCH  15  17
ATOM     16  C   UNL     1       0.479  10.758  21.294  0.00  0.00    +0.000 C 
ATOM     17  O   UNL     1       0.910   9.678  20.476  0.00  0.00    +0.000 OA
ENDBRANCH  15  17
ENDBRANCH  10  15
ENDBRANCH   9  12
ENDBRANCH   1   9
BRANCH   5  18
ATOM     18  C   UNL     1       5.305   3.748  16.033  0.00  0.00    +0.000 C 
BRANCH  18  19
ATOM     19  N   UNL     1       5.988   4.912  15.421  0.00  0.00    +0.000 NA
BRANCH  19  20
ATOM     20  C   UNL     1       6.945   5.450  16.419  0.00  0.00    +0.000 C 
BRANCH  20  21
ATOM     21  C   UNL     1       6.498   6.622  17.316  0.00  0.00    +0.000 C 
ATOM     22  C   UNL     1       7.616   7.636  17.511  0.00  0.00    +0.000 C 
ATOM     23  C   UNL     1       5.277   7.283  16.659  0.00  0.00    +0.000 C 
ENDBRANCH  20  21
ENDBRANCH  19  20
BRANCH  19  24
ATOM     24  C   UNL     1       6.779   4.506  14.229  0.00  0.00    +0.000 C 
BRANCH  24  25
ATOM     25  C   UNL     1       6.196   3.548  13.168  0.00  0.00    +0.000 C 
ATOM     26  C   UNL     1       4.776   3.920  12.753  0.00  0.00    +0.000 C 
ATOM     27  C   UNL     1       7.117   3.579  11.934  0.00  0.00    +0.000 C 
ENDBRANCH  24  25
ENDBRANCH  19  24
ENDBRANCH  18  19
ENDBRANCH   5  18
TORSDOF 11
ENDMDL
MODEL 7
REMARK VINA RESULT:      -7.5      1.131      1.502
REMARK  Name = 
REMARK  16 active torsions:
REMARK  status: ('A' for Active; 'I' for Inactive)
REMARK    1  A    between atoms: C_1  and  O_2
REMARK    2  A    between atoms: O_2  and  C_3
REMARK    3  A    between atoms: C_3  and  C_4
REMARK    4  A    between atoms: C_6  and  C_7
REMARK    5  A    between atoms: C_7  and  C_8
REMARK    6  A    between atoms: C_11  and  O_12
REMARK    7  A    between atoms: C_13  and  C_14
REMARK    8  A    between atoms: C_14  and  N_15
REMARK    9  A    between atoms: N_15  and  C_16
REMARK   10  A    between atoms: N_15  and  C_20
REMARK   11  A    between atoms: C_16  and  C_17
REMARK   12  A    between atoms: C_17  and  C_18
REMARK   13  A    between atoms: C_17  and  C_19
REMARK   14  A    between atoms: C_20  and  C_21
REMARK   15  A    between atoms: C_21  and  C_22
REMARK   16  A    between atoms: C_21  and  C_23
REMARK                            x       y       z     vdW  Elec       q    Type
REMARK                         _______ _______ _______ _____ _____    ______ ____
ROOT
ATOM      1  C   UNL     1       6.526   7.287  16.912  0.00  0.00    +0.000 C 
ATOM      2  C   UNL     1       7.914   6.703  18.014  0.00  0.00    +0.000 C 
ATOM      3  C   UNL     1       7.351   5.425  19.330  0.00  0.00    +0.000 C 
ATOM      4  C   UNL     1       5.493   5.049  19.422  0.00  0.00    +0.000 C 
ATOM      5  C   UNL     1       4.214   5.924  18.364  0.00  0.00    +0.000 C 
ATOM      6  O   UNL     1       4.762   7.222  17.272  0.00  0.00    +0.000 OA
ENDROOT
BRANCH   4   7
ATOM      7  O   UNL     1       5.378   3.643  19.186  0.00  0.00    +0.000 OA
ATOM      8  H   UNL     1       6.222   3.352  18.789  0.00  0.00    +0.000 HD
ENDBRANCH   4   7
BRANCH   1   9
ATOM      9  C   UNL     1       6.221   6.190  17.676  0.00  0.00    +0.000 C 
BRANCH   9  12
ATOM     10  C   UNL     1       6.579   4.301  13.944  0.00  0.00    +0.000 A 
ATOM     11  C   UNL     1       6.862   5.418  14.682  0.00  0.00    +0.000 A 
ATOM     12  C   UNL     1       6.196   5.266  15.974  0.00  0.00    +0.000 A 
ATOM     13  N   UNL     1       5.595   4.032  15.923  0.00  0.00    +0.000 NA
ATOM     14  O   UNL     1       5.830   3.471  14.697  0.00  0.00    +0.000 OA
BRANCH  10  15
ATOM     15  C   UNL     1       6.793   3.938  12.527  0.00  0.00    +0.000 C 
BRANCH  15  17
ATOM     16  C   UNL     1       6.825   1.932  11.335  0.00  0.00    +0.000 C 
ATOM     17  O   UNL     1       6.060   2.752  12.209  0.00  0.00    +0.000 OA
ENDBRANCH  15  17
ENDBRANCH  10  15
ENDBRANCH   9  12
ENDBRANCH   1   9
BRANCH   5  18
ATOM     18  C   UNL     1       2.720   6.087  18.827  0.00  0.00    +0.000 C 
BRANCH  18  19
ATOM     19  N   UNL     1       2.310   6.299  20.235  0.00  0.00    +0.000 NA
BRANCH  19  20
ATOM     20  C   UNL     1       1.521   7.554  20.293  0.00  0.00    +0.000 C 
BRANCH  20  21
ATOM     21  C   UNL     1       0.896   7.972  21.640  0.00  0.00    +0.000 C 
ATOM     22  C   UNL     1       1.630   9.155  22.253  0.00  0.00    +0.000 C 
ATOM     23  C   UNL     1      -0.579   8.322  21.389  0.00  0.00    +0.000 C 
ENDBRANCH  20  21
ENDBRANCH  19  20
BRANCH  19  24
ATOM     24  C   UNL     1       1.423   5.202  20.707  0.00  0.00    +0.000 C 
BRANCH  24  25
ATOM     25  C   UNL     1       1.797   3.719  20.492  0.00  0.00    +0.000 C 
ATOM     26  C   UNL     1       1.955   2.954  21.803  0.00  0.00    +0.000 C 
ATOM     27  C   UNL     1       0.693   3.063  19.643  0.00  0.00    +0.000 C 
ENDBRANCH  24  25
ENDBRANCH  19  24
ENDBRANCH  18  19
ENDBRANCH   5  18
TORSDOF 11
ENDMDL
MODEL 8
REMARK VINA RESULT:      -7.5      2.240      7.303
REMARK  Name = 
REMARK  16 active torsions:
REMARK  status: ('A' for Active; 'I' for Inactive)
REMARK    1  A    between atoms: C_1  and  O_2
REMARK    2  A    between atoms: O_2  and  C_3
REMARK    3  A    between atoms: C_3  and  C_4
REMARK    4  A    between atoms: C_6  and  C_7
REMARK    5  A    between atoms: C_7  and  C_8
REMARK    6  A    between atoms: C_11  and  O_12
REMARK    7  A    between atoms: C_13  and  C_14
REMARK    8  A    between atoms: C_14  and  N_15
REMARK    9  A    between atoms: N_15  and  C_16
REMARK   10  A    between atoms: N_15  and  C_20
REMARK   11  A    between atoms: C_16  and  C_17
REMARK   12  A    between atoms: C_17  and  C_18
REMARK   13  A    between atoms: C_17  and  C_19
REMARK   14  A    between atoms: C_20  and  C_21
REMARK   15  A    between atoms: C_21  and  C_22
REMARK   16  A    between atoms: C_21  and  C_23
REMARK                            x       y       z     vdW  Elec       q    Type
REMARK                         _______ _______ _______ _____ _____    ______ ____
ROOT
ATOM      1  C   UNL     1       1.155   3.862  18.900  0.00  0.00    +0.000 C 
ATOM      2  C   UNL     1       1.455   3.015  20.535  0.00  0.00    +0.000 C 
ATOM      3  C   UNL     1       3.310   2.663  20.878  0.00  0.00    +0.000 C 
ATOM      4  C   UNL     1       4.534   3.081  19.489  0.00  0.00    +0.000 C 
ATOM      5  C   UNL     1       4.001   3.723  17.809  0.00  0.00    +0.000 C 
ATOM      6  O   UNL     1       2.257   3.879  17.475  0.00  0.00    +0.000 OA
ENDROOT
BRANCH   4   7
ATOM      7  O   UNL     1       5.445   4.026  20.057  0.00  0.00    +0.000 OA
ATOM      8  H   UNL     1       6.281   3.950  19.557  0.00  0.00    +0.000 HD
ENDBRANCH   4   7
BRANCH   1   9
ATOM      9  C   UNL     1       2.468   3.838  19.294  0.00  0.00    +0.000 C 
BRANCH   9  12
ATOM     10  C   UNL     1       1.814   7.984  19.182  0.00  0.00    +0.000 A 
ATOM     11  C   UNL     1       2.223   6.881  18.484  0.00  0.00    +0.000 A 
ATOM     12  C   UNL     1       2.253   5.759  19.420  0.00  0.00    +0.000 A 
ATOM     13  N   UNL     1       1.809   6.278  20.612  0.00  0.00    +0.000 NA
ATOM     14  O   UNL     1       1.557   7.613  20.453  0.00  0.00    +0.000 OA
BRANCH  10  15
ATOM     15  C   UNL     1       1.760   9.427  18.864  0.00  0.00    +0.000 C 
BRANCH  15  17
ATOM     16  C   UNL     1      -0.271  10.494  19.290  0.00  0.00    +0.000 C 
ATOM     17  O   UNL     1       0.982  10.116  19.846  0.00  0.00    +0.000 OA
ENDBRANCH  15  17
ENDBRANCH  10  15
ENDBRANCH   9  12
ENDBRANCH   1   9
BRANCH   5  18
ATOM     18  C   UNL     1       4.866   3.492  16.515  0.00  0.00    +0.000 C 
BRANCH  18  19
ATOM     19  N   UNL     1       5.894   4.441  16.029  0.00  0.00    +0.000 NA
BRANCH  19  20
ATOM     20  C   UNL     1       5.648   4.676  14.585  0.00  0.00    +0.000 C 
BRANCH  20  21
ATOM     21  C   UNL     1       6.573   3.994  13.557  0.00  0.00    +0.000 C 
ATOM     22  C   UNL     1       5.785   3.431  12.383  0.00  0.00    +0.000 C 
ATOM     23  C   UNL     1       7.593   5.036  13.073  0.00  0.00    +0.000 C 
ENDBRANCH  20  21
ENDBRANCH  19  20
BRANCH  19  24
ATOM     24  C   UNL     1       5.777   5.757  16.713  0.00  0.00    +0.000 C 
BRANCH  24  25
ATOM     25  C   UNL     1       6.755   6.169  17.834  0.00  0.00    +0.000 C 
ATOM     26  C   UNL     1       7.808   5.102  18.121  0.00  0.00    +0.000 C 
ATOM     27  C   UNL     1       7.450   7.476  17.410  0.00  0.00    +0.000 C 
ENDBRANCH  24  25
ENDBRANCH  19  24
ENDBRANCH  18  19
ENDBRANCH   5  18
TORSDOF 11
ENDMDL
MODEL 9
REMARK VINA RESULT:      -7.3      1.030      3.201
REMARK  Name = 
REMARK  16 active torsions:
REMARK  status: ('A' for Active; 'I' for Inactive)
REMARK    1  A    between atoms: C_1  and  O_2
REMARK    2  A    between atoms: O_2  and  C_3
REMARK    3  A    between atoms: C_3  and  C_4
REMARK    4  A    between atoms: C_6  and  C_7
REMARK    5  A    between atoms: C_7  and  C_8
REMARK    6  A    between atoms: C_11  and  O_12
REMARK    7  A    between atoms: C_13  and  C_14
REMARK    8  A    between atoms: C_14  and  N_15
REMARK    9  A    between atoms: N_15  and  C_16
REMARK   10  A    between atoms: N_15  and  C_20
REMARK   11  A    between atoms: C_16  and  C_17
REMARK   12  A    between atoms: C_17  and  C_18
REMARK   13  A    between atoms: C_17  and  C_19
REMARK   14  A    between atoms: C_20  and  C_21
REMARK   15  A    between atoms: C_21  and  C_22
REMARK   16  A    between atoms: C_21  and  C_23
REMARK                            x       y       z     vdW  Elec       q    Type
REMARK                         _______ _______ _______ _____ _____    ______ ____
ROOT
ATOM      1  C   UNL     1       5.936   7.097  16.716  0.00  0.00    +0.000 C 
ATOM      2  C   UNL     1       7.319   6.835  17.941  0.00  0.00    +0.000 C 
ATOM      3  C   UNL     1       6.895   5.547  19.299  0.00  0.00    +0.000 C 
ATOM      4  C   UNL     1       5.133   4.842  19.294  0.00  0.00    +0.000 C 
ATOM      5  C   UNL     1       3.802   5.411  18.101  0.00  0.00    +0.000 C 
ATOM      6  O   UNL     1       4.190   6.729  16.965  0.00  0.00    +0.000 OA
ENDROOT
BRANCH   4   7
ATOM      7  O   UNL     1       5.289   3.428  19.145  0.00  0.00    +0.000 OA
ATOM      8  H   UNL     1       5.962   3.290  18.449  0.00  0.00    +0.000 HD
ENDBRANCH   4   7
BRANCH   1   9
ATOM      9  C   UNL     1       5.775   6.004  17.529  0.00  0.00    +0.000 C 
BRANCH   9  12
ATOM     10  C   UNL     1       6.473   4.072  13.867  0.00  0.00    +0.000 A 
ATOM     11  C   UNL     1       6.443   5.268  14.531  0.00  0.00    +0.000 A 
ATOM     12  C   UNL     1       5.934   5.006  15.876  0.00  0.00    +0.000 A 
ATOM     13  N   UNL     1       5.739   3.648  15.926  0.00  0.00    +0.000 NA
ATOM     14  O   UNL     1       6.061   3.105  14.712  0.00  0.00    +0.000 OA
BRANCH  10  15
ATOM     15  C   UNL     1       6.704   3.698  12.455  0.00  0.00    +0.000 C 
BRANCH  15  17
ATOM     16  C   UNL     1       4.711   2.885  11.554  0.00  0.00    +0.000 C 
ATOM     17  O   UNL     1       5.555   4.024  11.668  0.00  0.00    +0.000 OA
ENDBRANCH  15  17
ENDBRANCH  10  15
ENDBRANCH   9  12
ENDBRANCH   1   9
BRANCH   5  18
ATOM     18  C   UNL     1       2.272   5.322  18.455  0.00  0.00    +0.000 C 
BRANCH  18  19
ATOM     19  N   UNL     1       1.692   5.792  19.735  0.00  0.00    +0.000 NA
BRANCH  19  20
ATOM     20  C   UNL     1       2.164   4.881  20.807  0.00  0.00    +0.000 C 
BRANCH  20  21
ATOM     21  C   UNL     1       2.031   3.359  20.596  0.00  0.00    +0.000 C 
ATOM     22  C   UNL     1       2.526   2.581  21.806  0.00  0.00    +0.000 C 
ATOM     23  C   UNL     1       0.552   3.047  20.322  0.00  0.00    +0.000 C 
ENDBRANCH  20  21
ENDBRANCH  19  20
BRANCH  19  24
ATOM     24  C   UNL     1       2.175   7.157  20.075  0.00  0.00    +0.000 C 
BRANCH  24  25
ATOM     25  C   UNL     1       1.197   8.270  20.508  0.00  0.00    +0.000 C 
ATOM     26  C   UNL     1       1.498   8.812  21.902  0.00  0.00    +0.000 C 
ATOM     27  C   UNL     1       1.285   9.414  19.481  0.00  0.00    +0.000 C 
ENDBRANCH  24  25
ENDBRANCH  19  24
ENDBRANCH  18  19
ENDBRANCH   5  18
TORSDOF 11
ENDMDL
