MODEL 1
REMARK VINA RESULT:      -9.2      0.000      0.000
REMARK  Name = 
REMARK  7 active torsions:
REMARK  status: ('A' for Active; 'I' for Inactive)
REMARK    1  A    between atoms: C_1  and  O_2
REMARK    2  A    between atoms: O_2  and  C_3
REMARK    3  A    between atoms: C_6  and  O_7
REMARK    4  A    between atoms: O_7  and  C_8
REMARK    5  A    between atoms: C_9  and  N_10
REMARK    6  A    between atoms: C_11  and  C_13
REMARK    7  A    between atoms: C_17  and  N_18
REMARK                            x       y       z     vdW  Elec       q    Type
REMARK                         _______ _______ _______ _____ _____    ______ ____
ROOT
ATOM      1  C   UNL     1       0.565  10.485  20.713  0.00  0.00    +0.000 A 
ATOM      2  C   UNL     1       0.553  11.356  19.618  0.00  0.00    +0.000 A 
ATOM      3  C   UNL     1       1.103  10.965  18.405  0.00  0.00    +0.000 A 
ATOM      4  C   UNL     1       1.652   9.691  18.269  0.00  0.00    +0.000 A 
ATOM      5  C   UNL     1       1.673   8.780  19.340  0.00  0.00    +0.000 A 
ATOM      6  C   UNL     1       1.133   9.208  20.573  0.00  0.00    +0.000 A 
ENDROOT
BRANCH   5   7
ATOM      7  N   UNL     1       2.217   7.471  19.162  0.00  0.00    +0.000 N 
ATOM      8  C   UNL     1       1.981   6.379  20.032  0.00  0.00    +0.000 C 
ATOM      9  O   UNL     1       1.272   6.271  21.013  0.00  0.00    +0.000 OA
ATOM     10  C   UNL     1       2.985   5.358  19.611  0.00  0.00    +0.000 C 
ATOM     11  C   UNL     1       3.028   3.835  19.844  0.00  0.00    +0.000 C 
ATOM     12  C   UNL     1       4.528   3.594  19.572  0.00  0.00    +0.000 C 
ATOM     13  C   UNL     1       4.926   4.002  18.340  0.00  0.00    +0.000 C 
ATOM     14  C   UNL     1       3.796   4.491  17.421  0.00  0.00    +0.000 C 
ATOM     15  C   UNL     1       2.727   3.361  17.330  0.00  0.00    +0.000 C 
ATOM     16  C   UNL     1       2.783   1.965  17.911  0.00  0.00    +0.000 C 
ATOM     17  C   UNL     1       2.207   3.084  18.755  0.00  0.00    +0.000 C 
ATOM     18  C   UNL     1       2.958   5.594  18.106  0.00  0.00    +0.000 C 
ATOM     19  C   UNL     1       3.016   7.083  18.067  0.00  0.00    +0.000 C 
ATOM     20  O   UNL     1       3.475   7.736  17.143  0.00  0.00    +0.000 OA
ENDBRANCH   5   7
BRANCH   1  22
ATOM     21  N   UNL     1      -0.996  12.022  21.818  0.00  0.00    +0.000 N 
ATOM     22  C   UNL     1      -0.110  10.967  21.965  0.00  0.00    +0.000 C 
ATOM     23  O   UNL     1       0.111  10.332  22.990  0.00  0.00    +0.000 OA
ATOM     24  H   UNL     1      -1.304  12.205  20.873  0.00  0.00    +0.000 HD
BRANCH  21  29
ATOM     25  C   UNL     1      -3.770  12.669  24.187  0.00  0.00    +0.000 A 
ATOM     26  C   UNL     1      -3.346  13.817  24.846  0.00  0.00    +0.000 A 
ATOM     27  C   UNL     1      -2.138  14.424  24.504  0.00  0.00    +0.000 A 
ATOM     28  C   UNL     1      -1.332  13.896  23.484  0.00  0.00    +0.000 A 
ATOM     29  C   UNL     1      -1.719  12.698  22.846  0.00  0.00    +0.000 A 
ATOM     30  C   UNL     1      -2.958  12.116  23.193  0.00  0.00    +0.000 A 
BRANCH  25  32
ATOM     31  C   UNL     1      -6.138  12.746  23.984  0.00  0.00    +0.000 C 
ATOM     32  O   UNL     1      -4.983  12.200  24.605  0.00  0.00    +0.000 OA
ENDBRANCH  25  32
BRANCH  28  33
ATOM     33  O   UNL     1      -0.209  14.538  23.044  0.00  0.00    +0.000 OA
ATOM     34  C   UNL     1      -0.350  15.839  22.495  0.00  0.00    +0.000 C 
ENDBRANCH  28  33
ENDBRANCH  21  29
ENDBRANCH   1  22
TORSDOF 5
ENDMDL
MODEL 2
REMARK VINA RESULT:      -9.0      1.354      2.488
REMARK  Name = 
REMARK  7 active torsions:
REMARK  status: ('A' for Active; 'I' for Inactive)
REMARK    1  A    between atoms: C_1  and  O_2
REMARK    2  A    between atoms: O_2  and  C_3
REMARK    3  A    between atoms: C_6  and  O_7
REMARK    4  A    between atoms: O_7  and  C_8
REMARK    5  A    between atoms: C_9  and  N_10
REMARK    6  A    between atoms: C_11  and  C_13
REMARK    7  A    between atoms: C_17  and  N_18
REMARK                            x       y       z     vdW  Elec       q    Type
REMARK                         _______ _______ _______ _____ _____    ______ ____
ROOT
ATOM      1  C   UNL     1      -0.349  10.940  20.693  0.00  0.00    +0.000 A 
ATOM      2  C   UNL     1      -1.079  11.396  19.588  0.00  0.00    +0.000 A 
ATOM      3  C   UNL     1      -0.864  10.848  18.331  0.00  0.00    +0.000 A 
ATOM      4  C   UNL     1       0.069   9.825  18.169  0.00  0.00    +0.000 A 
ATOM      5  C   UNL     1       0.815   9.330  19.253  0.00  0.00    +0.000 A 
ATOM      6  C   UNL     1       0.600   9.920  20.519  0.00  0.00    +0.000 A 
ENDROOT
BRANCH   5   7
ATOM      7  N   UNL     1       1.743   8.262  19.061  0.00  0.00    +0.000 N 
ATOM      8  C   UNL     1       1.906   7.170  19.948  0.00  0.00    +0.000 C 
ATOM      9  O   UNL     1       1.309   6.860  20.961  0.00  0.00    +0.000 OA
ATOM     10  C   UNL     1       3.168   6.516  19.490  0.00  0.00    +0.000 C 
ATOM     11  C   UNL     1       3.708   5.093  19.732  0.00  0.00    +0.000 C 
ATOM     12  C   UNL     1       5.193   5.341  19.396  0.00  0.00    +0.000 C 
ATOM     13  C   UNL     1       5.390   5.830  18.144  0.00  0.00    +0.000 C 
ATOM     14  C   UNL     1       4.127   5.910  17.272  0.00  0.00    +0.000 C 
ATOM     15  C   UNL     1       3.476   4.495  17.237  0.00  0.00    +0.000 C 
ATOM     16  C   UNL     1       4.001   3.204  17.825  0.00  0.00    +0.000 C 
ATOM     17  C   UNL     1       3.130   4.095  18.685  0.00  0.00    +0.000 C 
ATOM     18  C   UNL     1       3.007   6.700  17.986  0.00  0.00    +0.000 C 
ATOM     19  C   UNL     1       2.581   8.127  17.934  0.00  0.00    +0.000 C 
ATOM     20  O   UNL     1       2.769   8.874  16.986  0.00  0.00    +0.000 OA
ENDBRANCH   5   7
BRANCH   1  22
ATOM     21  N   UNL     1      -1.596  12.595  22.006  0.00  0.00    +0.000 N 
ATOM     22  C   UNL     1      -0.694  11.543  22.024  0.00  0.00    +0.000 C 
ATOM     23  O   UNL     1      -0.220  11.000  23.015  0.00  0.00    +0.000 OA
ATOM     24  H   UNL     1      -2.131  12.697  21.155  0.00  0.00    +0.000 HD
BRANCH  21  29
ATOM     25  C   UNL     1      -1.366  15.020  24.798  0.00  0.00    +0.000 A 
ATOM     26  C   UNL     1      -2.658  15.017  25.311  0.00  0.00    +0.000 A 
ATOM     27  C   UNL     1      -3.636  14.190  24.760  0.00  0.00    +0.000 A 
ATOM     28  C   UNL     1      -3.335  13.338  23.687  0.00  0.00    +0.000 A 
ATOM     29  C   UNL     1      -2.045  13.372  23.116  0.00  0.00    +0.000 A 
ATOM     30  C   UNL     1      -1.065  14.201  23.707  0.00  0.00    +0.000 A 
BRANCH  25  32
ATOM     31  C   UNL     1      -1.047  16.657  26.493  0.00  0.00    +0.000 C 
ATOM     32  O   UNL     1      -0.507  15.856  25.452  0.00  0.00    +0.000 OA
ENDBRANCH  25  32
BRANCH  28  33
ATOM     33  O   UNL     1      -4.237  12.429  23.210  0.00  0.00    +0.000 OA
ATOM     34  C   UNL     1      -5.280  12.896  22.368  0.00  0.00    +0.000 C 
ENDBRANCH  28  33
ENDBRANCH  21  29
ENDBRANCH   1  22
TORSDOF 5
ENDMDL
MODEL 3
REMARK VINA RESULT:      -8.9      3.021     10.592
REMARK  Name = 
REMARK  7 active torsions:
REMARK  status: ('A' for Active; 'I' for Inactive)
REMARK    1  A    between atoms: C_1  and  O_2
REMARK    2  A    between atoms: O_2  and  C_3
REMARK    3  A    between atoms: C_6  and  O_7
REMARK    4  A    between atoms: O_7  and  C_8
REMARK    5  A    between atoms: C_9  and  N_10
REMARK    6  A    between atoms: C_11  and  C_13
REMARK    7  A    between atoms: C_17  and  N_18
REMARK                            x       y       z     vdW  Elec       q    Type
REMARK                         _______ _______ _______ _____ _____    ______ ____
ROOT
ATOM      1  C   UNL     1       3.361   5.417  19.260  0.00  0.00    +0.000 A 
ATOM      2  C   UNL     1       2.693   4.485  20.064  0.00  0.00    +0.000 A 
ATOM      3  C   UNL     1       1.652   4.890  20.889  0.00  0.00    +0.000 A 
ATOM      4  C   UNL     1       1.255   6.225  20.904  0.00  0.00    +0.000 A 
ATOM      5  C   UNL     1       1.890   7.191  20.103  0.00  0.00    +0.000 A 
ATOM      6  C   UNL     1       2.965   6.764  19.292  0.00  0.00    +0.000 A 
ENDROOT
BRANCH   5   7
ATOM      7  N   UNL     1       1.443   8.547  20.119  0.00  0.00    +0.000 N 
ATOM      8  C   UNL     1       1.135   9.305  18.962  0.00  0.00    +0.000 C 
ATOM      9  O   UNL     1       1.110   9.002  17.785  0.00  0.00    +0.000 OA
ATOM     10  C   UNL     1       1.024  10.706  19.466  0.00  0.00    +0.000 C 
ATOM     11  C   UNL     1       0.338  11.943  18.853  0.00  0.00    +0.000 C 
ATOM     12  C   UNL     1       1.059  13.041  19.664  0.00  0.00    +0.000 C 
ATOM     13  C   UNL     1       0.914  12.905  21.007  0.00  0.00    +0.000 C 
ATOM     14  C   UNL     1      -0.038  11.781  21.447  0.00  0.00    +0.000 C 
ATOM     15  C   UNL     1      -1.410  12.009  20.744  0.00  0.00    +0.000 C 
ATOM     16  C   UNL     1      -1.839  13.171  19.875  0.00  0.00    +0.000 C 
ATOM     17  C   UNL     1      -1.175  11.977  19.221  0.00  0.00    +0.000 C 
ATOM     18  C   UNL     1       0.363  10.430  20.811  0.00  0.00    +0.000 C 
ATOM     19  C   UNL     1       1.196   9.292  21.292  0.00  0.00    +0.000 C 
ATOM     20  O   UNL     1       1.384   9.015  22.466  0.00  0.00    +0.000 OA
ENDBRANCH   5   7
BRANCH   1  22
ATOM     21  N   UNL     1       4.649   5.585  17.179  0.00  0.00    +0.000 N 
ATOM     22  C   UNL     1       4.429   4.881  18.352  0.00  0.00    +0.000 C 
ATOM     23  O   UNL     1       5.073   3.923  18.764  0.00  0.00    +0.000 OA
ATOM     24  H   UNL     1       4.267   6.520  17.153  0.00  0.00    +0.000 HD
BRANCH  21  29
ATOM     25  C   UNL     1       5.767   4.185  13.937  0.00  0.00    +0.000 A 
ATOM     26  C   UNL     1       7.120   4.503  13.917  0.00  0.00    +0.000 A 
ATOM     27  C   UNL     1       7.705   5.169  14.993  0.00  0.00    +0.000 A 
ATOM     28  C   UNL     1       6.946   5.523  16.119  0.00  0.00    +0.000 A 
ATOM     29  C   UNL     1       5.558   5.260  16.129  0.00  0.00    +0.000 A 
ATOM     30  C   UNL     1       4.994   4.563  15.038  0.00  0.00    +0.000 A 
BRANCH  25  32
ATOM     31  C   UNL     1       6.319   3.121  11.883  0.00  0.00    +0.000 C 
ATOM     32  O   UNL     1       5.336   3.509  12.830  0.00  0.00    +0.000 OA
ENDBRANCH  25  32
BRANCH  28  33
ATOM     33  O   UNL     1       7.516   6.062  17.236  0.00  0.00    +0.000 OA
ATOM     34  C   UNL     1       7.519   7.475  17.374  0.00  0.00    +0.000 C 
ENDBRANCH  28  33
ENDBRANCH  21  29
ENDBRANCH   1  22
TORSDOF 5
ENDMDL
MODEL 4
REMARK VINA RESULT:      -8.8      3.073     10.535
REMARK  Name = 
REMARK  7 active torsions:
REMARK  status: ('A' for Active; 'I' for Inactive)
REMARK    1  A    between atoms: C_1  and  O_2
REMARK    2  A    between atoms: O_2  and  C_3
REMARK    3  A    between atoms: C_6  and  O_7
REMARK    4  A    between atoms: O_7  and  C_8
REMARK    5  A    between atoms: C_9  and  N_10
REMARK    6  A    between atoms: C_11  and  C_13
REMARK    7  A    between atoms: C_17  and  N_18
REMARK                            x       y       z     vdW  Elec       q    Type
REMARK                         _______ _______ _______ _____ _____    ______ ____
ROOT
ATOM      1  C   UNL     1       3.421   5.474  19.305  0.00  0.00    +0.000 A 
ATOM      2  C   UNL     1       2.796   4.544  20.144  0.00  0.00    +0.000 A 
ATOM      3  C   UNL     1       1.744   4.934  20.962  0.00  0.00    +0.000 A 
ATOM      4  C   UNL     1       1.292   6.251  20.934  0.00  0.00    +0.000 A 
ATOM      5  C   UNL     1       1.883   7.215  20.097  0.00  0.00    +0.000 A 
ATOM      6  C   UNL     1       2.970   6.805  19.293  0.00  0.00    +0.000 A 
ENDROOT
BRANCH   5   7
ATOM      7  N   UNL     1       1.381   8.551  20.069  0.00  0.00    +0.000 N 
ATOM      8  C   UNL     1       1.109   9.331  21.220  0.00  0.00    +0.000 C 
ATOM      9  O   UNL     1       1.281   9.107  22.402  0.00  0.00    +0.000 OA
ATOM     10  C   UNL     1       0.331  10.492  20.695  0.00  0.00    +0.000 C 
ATOM     11  C   UNL     1       0.069  11.884  21.303  0.00  0.00    +0.000 C 
ATOM     12  C   UNL     1      -1.155  12.288  20.455  0.00  0.00    +0.000 C 
ATOM     13  C   UNL     1      -0.915  12.277  19.119  0.00  0.00    +0.000 C 
ATOM     14  C   UNL     1       0.545  12.001  18.724  0.00  0.00    +0.000 C 
ATOM     15  C   UNL     1       1.446  13.039  19.458  0.00  0.00    +0.000 C 
ATOM     16  C   UNL     1       1.023  14.210  20.317  0.00  0.00    +0.000 C 
ATOM     17  C   UNL     1       1.236  12.862  20.975  0.00  0.00    +0.000 C 
ATOM     18  C   UNL     1       1.060  10.697  19.372  0.00  0.00    +0.000 C 
ATOM     19  C   UNL     1       1.142   9.288  18.891  0.00  0.00    +0.000 C 
ATOM     20  O   UNL     1       1.207   8.958  17.717  0.00  0.00    +0.000 OA
ENDBRANCH   5   7
BRANCH   1  22
ATOM     21  N   UNL     1       4.642   5.577  17.180  0.00  0.00    +0.000 N 
ATOM     22  C   UNL     1       4.506   4.951  18.409  0.00  0.00    +0.000 C 
ATOM     23  O   UNL     1       5.231   4.079  18.872  0.00  0.00    +0.000 OA
ATOM     24  H   UNL     1       4.189   6.476  17.095  0.00  0.00    +0.000 HD
BRANCH  21  29
ATOM     25  C   UNL     1       5.744   4.179  13.931  0.00  0.00    +0.000 A 
ATOM     26  C   UNL     1       7.103   4.468  13.919  0.00  0.00    +0.000 A 
ATOM     27  C   UNL     1       7.698   5.113  15.003  0.00  0.00    +0.000 A 
ATOM     28  C   UNL     1       6.942   5.474  16.128  0.00  0.00    +0.000 A 
ATOM     29  C   UNL     1       5.549   5.241  16.131  0.00  0.00    +0.000 A 
ATOM     30  C   UNL     1       4.975   4.565  15.032  0.00  0.00    +0.000 A 
BRANCH  25  32
ATOM     31  C   UNL     1       6.289   3.012  11.931  0.00  0.00    +0.000 C 
ATOM     32  O   UNL     1       5.303   3.520  12.818  0.00  0.00    +0.000 OA
ENDBRANCH  25  32
BRANCH  28  33
ATOM     33  O   UNL     1       7.519   5.993  17.252  0.00  0.00    +0.000 OA
ATOM     34  C   UNL     1       7.494   7.401  17.432  0.00  0.00    +0.000 C 
ENDBRANCH  28  33
ENDBRANCH  21  29
ENDBRANCH   1  22
TORSDOF 5
ENDMDL
MODEL 5
REMARK VINA RESULT:      -8.8      2.606     10.665
REMARK  Name = 
REMARK  7 active torsions:
REMARK  status: ('A' for Active; 'I' for Inactive)
REMARK    1  A    between atoms: C_1  and  O_2
REMARK    2  A    between atoms: O_2  and  C_3
REMARK    3  A    between atoms: C_6  and  O_7
REMARK    4  A    between atoms: O_7  and  C_8
REMARK    5  A    between atoms: C_9  and  N_10
REMARK    6  A    between atoms: C_11  and  C_13
REMARK    7  A    between atoms: C_17  and  N_18
REMARK                            x       y       z     vdW  Elec       q    Type
REMARK                         _______ _______ _______ _____ _____    ______ ____
ROOT
ATOM      1  C   UNL     1       2.677   6.997  19.093  0.00  0.00    +0.000 A 
ATOM      2  C   UNL     1       2.346   5.850  19.824  0.00  0.00    +0.000 A 
ATOM      3  C   UNL     1       1.438   5.924  20.872  0.00  0.00    +0.000 A 
ATOM      4  C   UNL     1       0.836   7.141  21.185  0.00  0.00    +0.000 A 
ATOM      5  C   UNL     1       1.130   8.315  20.469  0.00  0.00    +0.000 A 
ATOM      6  C   UNL     1       2.077   8.224  19.424  0.00  0.00    +0.000 A 
ENDROOT
BRANCH   5   7
ATOM      7  N   UNL     1       0.476   9.542  20.795  0.00  0.00    +0.000 N 
ATOM      8  C   UNL     1      -0.264  10.326  19.878  0.00  0.00    +0.000 C 
ATOM      9  O   UNL     1      -0.559  10.138  18.713  0.00  0.00    +0.000 OA
ATOM     10  C   UNL     1      -0.473  11.620  20.594  0.00  0.00    +0.000 C 
ATOM     11  C   UNL     1      -1.504  12.741  20.362  0.00  0.00    +0.000 C 
ATOM     12  C   UNL     1      -0.790  13.882  21.117  0.00  0.00    +0.000 C 
ATOM     13  C   UNL     1      -0.534  13.591  22.419  0.00  0.00    +0.000 C 
ATOM     14  C   UNL     1      -1.119  12.258  22.913  0.00  0.00    +0.000 C 
ATOM     15  C   UNL     1      -2.649  12.266  22.620  0.00  0.00    +0.000 C 
ATOM     16  C   UNL     1      -3.495  13.391  22.067  0.00  0.00    +0.000 C 
ATOM     17  C   UNL     1      -2.840  12.428  21.098  0.00  0.00    +0.000 C 
ATOM     18  C   UNL     1      -0.680  11.087  22.006  0.00  0.00    +0.000 C 
ATOM     19  C   UNL     1       0.437  10.104  22.089  0.00  0.00    +0.000 C 
ATOM     20  O   UNL     1       0.985   9.761  23.124  0.00  0.00    +0.000 OA
ENDBRANCH   5   7
BRANCH   1  22
ATOM     21  N   UNL     1       4.275   5.595  17.870  0.00  0.00    +0.000 N 
ATOM     22  C   UNL     1       3.617   6.812  17.937  0.00  0.00    +0.000 C 
ATOM     23  O   UNL     1       3.654   7.713  17.107  0.00  0.00    +0.000 OA
ATOM     24  H   UNL     1       3.886   4.856  18.438  0.00  0.00    +0.000 HD
BRANCH  21  29
ATOM     25  C   UNL     1       5.581   4.327  14.643  0.00  0.00    +0.000 A 
ATOM     26  C   UNL     1       6.956   4.340  14.845  0.00  0.00    +0.000 A 
ATOM     27  C   UNL     1       7.488   4.746  16.068  0.00  0.00    +0.000 A 
ATOM     28  C   UNL     1       6.649   5.139  17.121  0.00  0.00    +0.000 A 
ATOM     29  C   UNL     1       5.253   5.188  16.914  0.00  0.00    +0.000 A 
ATOM     30  C   UNL     1       4.738   4.749  15.674  0.00  0.00    +0.000 A 
BRANCH  25  32
ATOM     31  C   UNL     1       6.233   3.500  12.510  0.00  0.00    +0.000 C 
ATOM     32  O   UNL     1       5.201   3.879  13.409  0.00  0.00    +0.000 OA
ENDBRANCH  25  32
BRANCH  28  33
ATOM     33  O   UNL     1       7.134   5.422  18.366  0.00  0.00    +0.000 OA
ATOM     34  C   UNL     1       7.854   6.632  18.548  0.00  0.00    +0.000 C 
ENDBRANCH  28  33
ENDBRANCH  21  29
ENDBRANCH   1  22
TORSDOF 5
ENDMDL
MODEL 6
REMARK VINA RESULT:      -8.7      2.652     10.609
REMARK  Name = 
REMARK  7 active torsions:
REMARK  status: ('A' for Active; 'I' for Inactive)
REMARK    1  A    between atoms: C_1  and  O_2
REMARK    2  A    between atoms: O_2  and  C_3
REMARK    3  A    between atoms: C_6  and  O_7
REMARK    4  A    between atoms: O_7  and  C_8
REMARK    5  A    between atoms: C_9  and  N_10
REMARK    6  A    between atoms: C_11  and  C_13
REMARK    7  A    between atoms: C_17  and  N_18
REMARK                            x       y       z     vdW  Elec       q    Type
REMARK                         _______ _______ _______ _____ _____    ______ ____
ROOT
ATOM      1  C   UNL     1       2.698   6.982  19.068  0.00  0.00    +0.000 A 
ATOM      2  C   UNL     1       2.452   5.831  19.826  0.00  0.00    +0.000 A 
ATOM      3  C   UNL     1       1.559   5.869  20.888  0.00  0.00    +0.000 A 
ATOM      4  C   UNL     1       0.888   7.052  21.190  0.00  0.00    +0.000 A 
ATOM      5  C   UNL     1       1.096   8.228  20.447  0.00  0.00    +0.000 A 
ATOM      6  C   UNL     1       2.029   8.175  19.388  0.00  0.00    +0.000 A 
ENDROOT
BRANCH   5   7
ATOM      7  N   UNL     1       0.372   9.418  20.763  0.00  0.00    +0.000 N 
ATOM      8  C   UNL     1       0.369  10.042  22.034  0.00  0.00    +0.000 C 
ATOM      9  O   UNL     1       0.974   9.787  23.057  0.00  0.00    +0.000 OA
ATOM     10  C   UNL     1      -0.746  11.033  21.948  0.00  0.00    +0.000 C 
ATOM     11  C   UNL     1      -1.040  12.289  22.791  0.00  0.00    +0.000 C 
ATOM     12  C   UNL     1      -2.534  12.464  22.443  0.00  0.00    +0.000 C 
ATOM     13  C   UNL     1      -2.767  12.592  21.111  0.00  0.00    +0.000 C 
ATOM     14  C   UNL     1      -1.507  12.674  20.236  0.00  0.00    +0.000 C 
ATOM     15  C   UNL     1      -0.621  13.837  20.775  0.00  0.00    +0.000 C 
ATOM     16  C   UNL     1      -0.936  14.827  21.875  0.00  0.00    +0.000 C 
ATOM     17  C   UNL     1      -0.262  13.521  22.241  0.00  0.00    +0.000 C 
ATOM     18  C   UNL     1      -0.565  11.478  20.502  0.00  0.00    +0.000 C 
ATOM     19  C   UNL     1      -0.390  10.157  19.834  0.00  0.00    +0.000 C 
ATOM     20  O   UNL     1      -0.669   9.926  18.668  0.00  0.00    +0.000 OA
ENDBRANCH   5   7
BRANCH   1  22
ATOM     21  N   UNL     1       4.294   5.623  17.795  0.00  0.00    +0.000 N 
ATOM     22  C   UNL     1       3.628   6.833  17.898  0.00  0.00    +0.000 C 
ATOM     23  O   UNL     1       3.651   7.755  17.091  0.00  0.00    +0.000 OA
ATOM     24  H   UNL     1       3.916   4.867  18.348  0.00  0.00    +0.000 HD
BRANCH  21  29
ATOM     25  C   UNL     1       5.576   4.355  14.558  0.00  0.00    +0.000 A 
ATOM     26  C   UNL     1       6.954   4.446  14.719  0.00  0.00    +0.000 A 
ATOM     27  C   UNL     1       7.496   4.906  15.918  0.00  0.00    +0.000 A 
ATOM     28  C   UNL     1       6.667   5.277  16.987  0.00  0.00    +0.000 A 
ATOM     29  C   UNL     1       5.266   5.248  16.819  0.00  0.00    +0.000 A 
ATOM     30  C   UNL     1       4.740   4.754  15.604  0.00  0.00    +0.000 A 
BRANCH  25  32
ATOM     31  C   UNL     1       6.211   3.447  12.454  0.00  0.00    +0.000 C 
ATOM     32  O   UNL     1       5.187   3.861  13.345  0.00  0.00    +0.000 OA
ENDBRANCH  25  32
BRANCH  28  33
ATOM     33  O   UNL     1       7.171   5.613  18.211  0.00  0.00    +0.000 OA
ATOM     34  C   UNL     1       7.837   6.859  18.346  0.00  0.00    +0.000 C 
ENDBRANCH  28  33
ENDBRANCH  21  29
ENDBRANCH   1  22
TORSDOF 5
ENDMDL
MODEL 7
REMARK VINA RESULT:      -8.7      1.998     10.114
REMARK  Name = 
REMARK  7 active torsions:
REMARK  status: ('A' for Active; 'I' for Inactive)
REMARK    1  A    between atoms: C_1  and  O_2
REMARK    2  A    between atoms: O_2  and  C_3
REMARK    3  A    between atoms: C_6  and  O_7
REMARK    4  A    between atoms: O_7  and  C_8
REMARK    5  A    between atoms: C_9  and  N_10
REMARK    6  A    between atoms: C_11  and  C_13
REMARK    7  A    between atoms: C_17  and  N_18
REMARK                            x       y       z     vdW  Elec       q    Type
REMARK                         _______ _______ _______ _____ _____    ______ ____
ROOT
ATOM      1  C   UNL     1       1.484   9.341  19.040  0.00  0.00    +0.000 A 
ATOM      2  C   UNL     1       2.191  10.183  18.172  0.00  0.00    +0.000 A 
ATOM      3  C   UNL     1       1.844  11.523  18.060  0.00  0.00    +0.000 A 
ATOM      4  C   UNL     1       0.803  12.039  18.828  0.00  0.00    +0.000 A 
ATOM      5  C   UNL     1       0.076  11.231  19.721  0.00  0.00    +0.000 A 
ATOM      6  C   UNL     1       0.426   9.865  19.800  0.00  0.00    +0.000 A 
ENDROOT
BRANCH   5   7
ATOM      7  N   UNL     1      -0.968  11.795  20.516  0.00  0.00    +0.000 N 
ATOM      8  C   UNL     1      -0.870  12.051  21.906  0.00  0.00    +0.000 C 
ATOM      9  O   UNL     1       0.057  11.930  22.683  0.00  0.00    +0.000 OA
ATOM     10  C   UNL     1      -2.276  12.333  22.321  0.00  0.00    +0.000 C 
ATOM     11  C   UNL     1      -2.830  13.059  23.563  0.00  0.00    +0.000 C 
ATOM     12  C   UNL     1      -4.276  12.522  23.528  0.00  0.00    +0.000 C 
ATOM     13  C   UNL     1      -4.924  12.789  22.364  0.00  0.00    +0.000 C 
ATOM     14  C   UNL     1      -4.149  13.678  21.379  0.00  0.00    +0.000 C 
ATOM     15  C   UNL     1      -3.750  14.987  22.123  0.00  0.00    +0.000 C 
ATOM     16  C   UNL     1      -4.129  15.426  23.521  0.00  0.00    +0.000 C 
ATOM     17  C   UNL     1      -2.875  14.598  23.331  0.00  0.00    +0.000 C 
ATOM     18  C   UNL     1      -2.746  13.099  21.091  0.00  0.00    +0.000 C 
ATOM     19  C   UNL     1      -2.213  12.221  20.009  0.00  0.00    +0.000 C 
ATOM     20  O   UNL     1      -2.693  12.129  18.890  0.00  0.00    +0.000 OA
ENDBRANCH   5   7
BRANCH   1  22
ATOM     21  N   UNL     1       2.560   7.391  18.012  0.00  0.00    +0.000 N 
ATOM     22  C   UNL     1       1.969   7.924  19.146  0.00  0.00    +0.000 C 
ATOM     23  O   UNL     1       1.881   7.392  20.246  0.00  0.00    +0.000 OA
ATOM     24  H   UNL     1       2.845   8.061  17.311  0.00  0.00    +0.000 HD
BRANCH  21  29
ATOM     25  C   UNL     1       2.415   3.697  17.770  0.00  0.00    +0.000 A 
ATOM     26  C   UNL     1       3.736   3.356  17.508  0.00  0.00    +0.000 A 
ATOM     27  C   UNL     1       4.718   4.342  17.430  0.00  0.00    +0.000 A 
ATOM     28  C   UNL     1       4.397   5.694  17.623  0.00  0.00    +0.000 A 
ATOM     29  C   UNL     1       3.050   6.063  17.831  0.00  0.00    +0.000 A 
ATOM     30  C   UNL     1       2.077   5.043  17.930  0.00  0.00    +0.000 A 
BRANCH  25  32
ATOM     31  C   UNL     1       0.790   2.500  19.029  0.00  0.00    +0.000 C 
ATOM     32  O   UNL     1       1.567   2.628  17.847  0.00  0.00    +0.000 OA
ENDBRANCH  25  32
BRANCH  28  33
ATOM     33  O   UNL     1       5.356   6.666  17.676  0.00  0.00    +0.000 OA
ATOM     34  C   UNL     1       6.613   6.403  17.071  0.00  0.00    +0.000 C 
ENDBRANCH  28  33
ENDBRANCH  21  29
ENDBRANCH   1  22
TORSDOF 5
ENDMDL
MODEL 8
REMARK VINA RESULT:      -8.6      3.434      4.765
REMARK  Name = 
REMARK  7 active torsions:
REMARK  status: ('A' for Active; 'I' for Inactive)
REMARK    1  A    between atoms: C_1  and  O_2
REMARK    2  A    between atoms: O_2  and  C_3
REMARK    3  A    between atoms: C_6  and  O_7
REMARK    4  A    between atoms: O_7  and  C_8
REMARK    5  A    between atoms: C_9  and  N_10
REMARK    6  A    between atoms: C_11  and  C_13
REMARK    7  A    between atoms: C_17  and  N_18
REMARK                            x       y       z     vdW  Elec       q    Type
REMARK                         _______ _______ _______ _____ _____    ______ ____
ROOT
ATOM      1  C   UNL     1      -0.309  10.068  19.743  0.00  0.00    +0.000 A 
ATOM      2  C   UNL     1      -0.246  10.254  21.130  0.00  0.00    +0.000 A 
ATOM      3  C   UNL     1       0.630   9.501  21.899  0.00  0.00    +0.000 A 
ATOM      4  C   UNL     1       1.466   8.568  21.289  0.00  0.00    +0.000 A 
ATOM      5  C   UNL     1       1.444   8.358  19.899  0.00  0.00    +0.000 A 
ATOM      6  C   UNL     1       0.526   9.115  19.137  0.00  0.00    +0.000 A 
ENDROOT
BRANCH   5   7
ATOM      7  N   UNL     1       2.333   7.415  19.298  0.00  0.00    +0.000 N 
ATOM      8  C   UNL     1       3.052   7.640  18.099  0.00  0.00    +0.000 C 
ATOM      9  O   UNL     1       3.139   8.620  17.385  0.00  0.00    +0.000 OA
ATOM     10  C   UNL     1       3.574   6.290  17.731  0.00  0.00    +0.000 C 
ATOM     11  C   UNL     1       4.732   5.880  16.800  0.00  0.00    +0.000 C 
ATOM     12  C   UNL     1       4.334   4.409  16.559  0.00  0.00    +0.000 C 
ATOM     13  C   UNL     1       4.226   3.683  17.701  0.00  0.00    +0.000 C 
ATOM     14  C   UNL     1       4.647   4.422  18.982  0.00  0.00    +0.000 C 
ATOM     15  C   UNL     1       6.098   4.951  18.777  0.00  0.00    +0.000 C 
ATOM     16  C   UNL     1       7.029   4.713  17.609  0.00  0.00    +0.000 C 
ATOM     17  C   UNL     1       6.090   5.901  17.562  0.00  0.00    +0.000 C 
ATOM     18  C   UNL     1       3.893   5.764  19.125  0.00  0.00    +0.000 C 
ATOM     19  C   UNL     1       2.652   6.157  19.851  0.00  0.00    +0.000 C 
ATOM     20  O   UNL     1       2.211   5.583  20.834  0.00  0.00    +0.000 OA
ENDBRANCH   5   7
BRANCH   1  22
ATOM     21  N   UNL     1      -2.566  10.586  18.935  0.00  0.00    +0.000 N 
ATOM     22  C   UNL     1      -1.236  10.971  18.983  0.00  0.00    +0.000 C 
ATOM     23  O   UNL     1      -0.758  12.013  18.549  0.00  0.00    +0.000 OA
ATOM     24  H   UNL     1      -2.844   9.890  19.612  0.00  0.00    +0.000 HD
BRANCH  21  29
ATOM     25  C   UNL     1      -5.622  12.635  18.505  0.00  0.00    +0.000 A 
ATOM     26  C   UNL     1      -5.819  12.605  17.130  0.00  0.00    +0.000 A 
ATOM     27  C   UNL     1      -4.956  11.881  16.308  0.00  0.00    +0.000 A 
ATOM     28  C   UNL     1      -3.881  11.162  16.851  0.00  0.00    +0.000 A 
ATOM     29  C   UNL     1      -3.632  11.230  18.239  0.00  0.00    +0.000 A 
ATOM     30  C   UNL     1      -4.534  11.951  19.053  0.00  0.00    +0.000 A 
BRANCH  25  32
ATOM     31  C   UNL     1      -6.103  14.144  20.280  0.00  0.00    +0.000 C 
ATOM     32  O   UNL     1      -6.559  13.359  19.188  0.00  0.00    +0.000 OA
ENDBRANCH  25  32
BRANCH  28  33
ATOM     33  O   UNL     1      -3.096  10.346  16.087  0.00  0.00    +0.000 OA
ATOM     34  C   UNL     1      -3.359  10.273  14.694  0.00  0.00    +0.000 C 
ENDBRANCH  28  33
ENDBRANCH  21  29
ENDBRANCH   1  22
TORSDOF 5
ENDMDL
MODEL 9
REMARK VINA RESULT:      -8.6      3.191     10.457
REMARK  Name = 
REMARK  7 active torsions:
REMARK  status: ('A' for Active; 'I' for Inactive)
REMARK    1  A    between atoms: C_1  and  O_2
REMARK    2  A    between atoms: O_2  and  C_3
REMARK    3  A    between atoms: C_6  and  O_7
REMARK    4  A    between atoms: O_7  and  C_8
REMARK    5  A    between atoms: C_9  and  N_10
REMARK    6  A    between atoms: C_11  and  C_13
REMARK    7  A    between atoms: C_17  and  N_18
REMARK                            x       y       z     vdW  Elec       q    Type
REMARK                         _______ _______ _______ _____ _____    ______ ____
ROOT
ATOM      1  C   UNL     1       1.452   9.446  19.433  0.00  0.00    +0.000 A 
ATOM      2  C   UNL     1       0.906   8.937  20.618  0.00  0.00    +0.000 A 
ATOM      3  C   UNL     1       0.339   9.792  21.552  0.00  0.00    +0.000 A 
ATOM      4  C   UNL     1       0.293  11.162  21.304  0.00  0.00    +0.000 A 
ATOM      5  C   UNL     1       0.818  11.714  20.122  0.00  0.00    +0.000 A 
ATOM      6  C   UNL     1       1.415  10.830  19.196  0.00  0.00    +0.000 A 
ENDROOT
BRANCH   5   7
ATOM      7  N   UNL     1       0.731  13.119  19.882  0.00  0.00    +0.000 N 
ATOM      8  C   UNL     1      -0.050  13.713  18.860  0.00  0.00    +0.000 C 
ATOM      9  O   UNL     1      -0.821  13.230  18.054  0.00  0.00    +0.000 OA
ATOM     10  C   UNL     1       0.424  15.128  18.818  0.00  0.00    +0.000 C 
ATOM     11  C   UNL     1      -0.243  16.395  18.247  0.00  0.00    +0.000 C 
ATOM     12  C   UNL     1       1.008  17.291  18.131  0.00  0.00    +0.000 C 
ATOM     13  C   UNL     1       1.661  17.463  19.310  0.00  0.00    +0.000 C 
ATOM     14  C   UNL     1       0.961  16.852  20.534  0.00  0.00    +0.000 C 
ATOM     15  C   UNL     1      -0.487  17.423  20.596  0.00  0.00    +0.000 C 
ATOM     16  C   UNL     1      -1.118  18.482  19.719  0.00  0.00    +0.000 C 
ATOM     17  C   UNL     1      -1.207  17.032  19.290  0.00  0.00    +0.000 C 
ATOM     18  C   UNL     1       0.647  15.356  20.308  0.00  0.00    +0.000 C 
ATOM     19  C   UNL     1       1.370  14.102  20.666  0.00  0.00    +0.000 C 
ATOM     20  O   UNL     1       2.158  13.995  21.593  0.00  0.00    +0.000 OA
ENDBRANCH   5   7
BRANCH   1  22
ATOM     21  N   UNL     1       2.303   7.195  18.960  0.00  0.00    +0.000 N 
ATOM     22  C   UNL     1       1.985   8.443  18.451  0.00  0.00    +0.000 C 
ATOM     23  O   UNL     1       2.008   8.783  17.274  0.00  0.00    +0.000 OA
ATOM     24  H   UNL     1       1.919   6.983  19.870  0.00  0.00    +0.000 HD
BRANCH  21  29
ATOM     25  C   UNL     1       2.545   3.745  17.630  0.00  0.00    +0.000 A 
ATOM     26  C   UNL     1       3.755   3.765  16.948  0.00  0.00    +0.000 A 
ATOM     27  C   UNL     1       4.539   4.918  16.933  0.00  0.00    +0.000 A 
ATOM     28  C   UNL     1       4.129   6.076  17.611  0.00  0.00    +0.000 A 
ATOM     29  C   UNL     1       2.874   6.091  18.259  0.00  0.00    +0.000 A 
ATOM     30  C   UNL     1       2.110   4.903  18.281  0.00  0.00    +0.000 A 
BRANCH  25  32
ATOM     31  C   UNL     1       1.010   2.243  18.652  0.00  0.00    +0.000 C 
ATOM     32  O   UNL     1       1.897   2.542  17.585  0.00  0.00    +0.000 OA
ENDBRANCH  25  32
BRANCH  28  33
ATOM     33  O   UNL     1       4.931   7.176  17.717  0.00  0.00    +0.000 OA
ATOM     34  C   UNL     1       6.255   7.093  17.211  0.00  0.00    +0.000 C 
ENDBRANCH  28  33
ENDBRANCH  21  29
ENDBRANCH   1  22
TORSDOF 5
ENDMDL
