MODEL 1
REMARK VINA RESULT:      -8.7      0.000      0.000
REMARK  Name = 
REMARK  4 active torsions:
REMARK  status: ('A' for Active; 'I' for Inactive)
REMARK    1  A    between atoms: C_2  and  O_3
REMARK    2  A    between atoms: C_2  and  C_4
REMARK    3  A    between atoms: C_11  and  C_12
REMARK    4  A    between atoms: C_15  and  C_16
REMARK                            x       y       z     vdW  Elec       q    Type
REMARK                         _______ _______ _______ _____ _____    ______ ____
ROOT
ATOM      1  C   UNL     1       6.040   4.790  16.255  0.00  0.00    +0.000 A 
ATOM      2  C   UNL     1       6.039   3.452  15.908  0.00  0.00    +0.000 A 
ATOM      3  N   UNL     1       4.929   2.854  16.439  0.00  0.00    +0.000 N 
ATOM      4  C   UNL     1       4.164   3.789  17.090  0.00  0.00    +0.000 A 
ATOM      5  C   UNL     1       2.950   3.657  17.768  0.00  0.00    +0.000 A 
ATOM      6  C   UNL     1       2.369   4.820  18.293  0.00  0.00    +0.000 A 
ATOM      7  F   UNL     1       1.186   4.669  18.910  0.00  0.00    +0.000 F 
ATOM      8  C   UNL     1       2.953   6.092  18.182  0.00  0.00    +0.000 A 
ATOM      9  C   UNL     1       4.201   6.150  17.535  0.00  0.00    +0.000 A 
ATOM     10  F   UNL     1       4.858   7.318  17.453  0.00  0.00    +0.000 F 
ATOM     11  C   UNL     1       4.821   5.013  16.976  0.00  0.00    +0.000 A 
ATOM     12  H   UNL     1       4.691   1.876  16.340  0.00  0.00    +0.000 HD
ENDROOT
BRANCH   8  13
ATOM     13  C   UNL     1       2.303   7.316  18.700  0.00  0.00    +0.000 A 
ATOM     14  C   UNL     1       2.036   7.482  20.066  0.00  0.00    +0.000 A 
ATOM     15  C   UNL     1       1.385   8.619  20.547  0.00  0.00    +0.000 A 
ATOM     16  C   UNL     1       0.998   9.649  19.682  0.00  0.00    +0.000 A 
ATOM     17  C   UNL     1       1.281   9.515  18.321  0.00  0.00    +0.000 A 
ATOM     18  C   UNL     1       1.911   8.363  17.841  0.00  0.00    +0.000 A 
BRANCH  16  19
ATOM     19  C   UNL     1       0.263  10.870  20.195  0.00  0.00    +0.000 C 
ATOM     20  C   UNL     1       1.137  12.130  20.132  0.00  0.00    +0.000 C 
ATOM     21  C   UNL     1       0.436  13.305  20.797  0.00  0.00    +0.000 C 
ATOM     22  O   UNL     1       0.061  12.979  22.135  0.00  0.00    +0.000 OA
ATOM     23  C   UNL     1      -0.876  11.904  22.184  0.00  0.00    +0.000 C 
ATOM     24  C   UNL     1      -0.263  10.633  21.619  0.00  0.00    +0.000 C 
ENDBRANCH  16  19
ENDBRANCH   8  13
BRANCH   1  26
ATOM     25  O   UNL     1       7.516   6.593  16.639  0.00  0.00    +0.000 OA
ATOM     26  C   UNL     1       7.094   5.727  15.881  0.00  0.00    +0.000 C 
BRANCH  26  27
ATOM     27  O   UNL     1       7.555   5.623  14.609  0.00  0.00    +0.000 OA
ATOM     28  H   UNL     1       8.518   5.485  14.553  0.00  0.00    +0.000 HD
ENDBRANCH  26  27
ENDBRANCH   1  26
TORSDOF 4
ENDMDL
MODEL 2
REMARK VINA RESULT:      -8.6      0.783      1.095
REMARK  Name = 
REMARK  4 active torsions:
REMARK  status: ('A' for Active; 'I' for Inactive)
REMARK    1  A    between atoms: C_2  and  O_3
REMARK    2  A    between atoms: C_2  and  C_4
REMARK    3  A    between atoms: C_11  and  C_12
REMARK    4  A    between atoms: C_15  and  C_16
REMARK                            x       y       z     vdW  Elec       q    Type
REMARK                         _______ _______ _______ _____ _____    ______ ____
ROOT
ATOM      1  C   UNL     1       6.049   4.831  16.272  0.00  0.00    +0.000 A 
ATOM      2  C   UNL     1       6.046   3.494  15.920  0.00  0.00    +0.000 A 
ATOM      3  N   UNL     1       4.925   2.900  16.432  0.00  0.00    +0.000 N 
ATOM      4  C   UNL     1       4.155   3.837  17.075  0.00  0.00    +0.000 A 
ATOM      5  C   UNL     1       2.930   3.710  17.733  0.00  0.00    +0.000 A 
ATOM      6  C   UNL     1       2.347   4.874  18.253  0.00  0.00    +0.000 A 
ATOM      7  F   UNL     1       1.154   4.728  18.851  0.00  0.00    +0.000 F 
ATOM      8  C   UNL     1       2.940   6.143  18.155  0.00  0.00    +0.000 A 
ATOM      9  C   UNL     1       4.198   6.196  17.528  0.00  0.00    +0.000 A 
ATOM     10  F   UNL     1       4.862   7.362  17.460  0.00  0.00    +0.000 F 
ATOM     11  C   UNL     1       4.821   5.058  16.975  0.00  0.00    +0.000 A 
ATOM     12  H   UNL     1       4.683   1.924  16.326  0.00  0.00    +0.000 HD
ENDROOT
BRANCH   8  13
ATOM     13  C   UNL     1       2.288   7.369  18.667  0.00  0.00    +0.000 A 
ATOM     14  C   UNL     1       2.014   7.538  20.032  0.00  0.00    +0.000 A 
ATOM     15  C   UNL     1       1.362   8.677  20.507  0.00  0.00    +0.000 A 
ATOM     16  C   UNL     1       0.981   9.706  19.638  0.00  0.00    +0.000 A 
ATOM     17  C   UNL     1       1.271   9.569  18.279  0.00  0.00    +0.000 A 
ATOM     18  C   UNL     1       1.902   8.415  17.805  0.00  0.00    +0.000 A 
BRANCH  16  19
ATOM     19  C   UNL     1       0.245  10.928  20.144  0.00  0.00    +0.000 C 
ATOM     20  C   UNL     1      -0.176  10.774  21.613  0.00  0.00    +0.000 C 
ATOM     21  C   UNL     1      -1.049  11.940  22.049  0.00  0.00    +0.000 C 
ATOM     22  O   UNL     1      -2.172  12.083  21.181  0.00  0.00    +0.000 OA
ATOM     23  C   UNL     1      -1.783  12.383  19.842  0.00  0.00    +0.000 C 
ATOM     24  C   UNL     1      -0.967  11.244  19.254  0.00  0.00    +0.000 C 
ENDBRANCH  16  19
ENDBRANCH   8  13
BRANCH   1  26
ATOM     25  O   UNL     1       7.508   6.644  16.674  0.00  0.00    +0.000 OA
ATOM     26  C   UNL     1       7.114   5.764  15.917  0.00  0.00    +0.000 C 
BRANCH  26  27
ATOM     27  O   UNL     1       7.618   5.637  14.664  0.00  0.00    +0.000 OA
ATOM     28  H   UNL     1       7.080   5.068  14.083  0.00  0.00    +0.000 HD
ENDBRANCH  26  27
ENDBRANCH   1  26
TORSDOF 4
ENDMDL
MODEL 3
REMARK VINA RESULT:      -8.5      3.076      3.960
REMARK  Name = 
REMARK  4 active torsions:
REMARK  status: ('A' for Active; 'I' for Inactive)
REMARK    1  A    between atoms: C_2  and  O_3
REMARK    2  A    between atoms: C_2  and  C_4
REMARK    3  A    between atoms: C_11  and  C_12
REMARK    4  A    between atoms: C_15  and  C_16
REMARK                            x       y       z     vdW  Elec       q    Type
REMARK                         _______ _______ _______ _____ _____    ______ ____
ROOT
ATOM      1  C   UNL     1       3.041   3.068  20.355  0.00  0.00    +0.000 A 
ATOM      2  C   UNL     1       4.169   2.320  20.071  0.00  0.00    +0.000 A 
ATOM      3  N   UNL     1       4.975   3.033  19.226  0.00  0.00    +0.000 N 
ATOM      4  C   UNL     1       4.423   4.266  18.987  0.00  0.00    +0.000 A 
ATOM      5  C   UNL     1       4.881   5.332  18.208  0.00  0.00    +0.000 A 
ATOM      6  C   UNL     1       4.117   6.506  18.199  0.00  0.00    +0.000 A 
ATOM      7  F   UNL     1       4.598   7.526  17.469  0.00  0.00    +0.000 F 
ATOM      8  C   UNL     1       2.920   6.653  18.918  0.00  0.00    +0.000 A 
ATOM      9  C   UNL     1       2.485   5.527  19.640  0.00  0.00    +0.000 A 
ATOM     10  F   UNL     1       1.312   5.564  20.294  0.00  0.00    +0.000 F 
ATOM     11  C   UNL     1       3.223   4.326  19.694  0.00  0.00    +0.000 A 
ATOM     12  H   UNL     1       5.862   2.712  18.859  0.00  0.00    +0.000 HD
ENDROOT
BRANCH   8  13
ATOM     13  C   UNL     1       2.150   7.917  18.936  0.00  0.00    +0.000 A 
ATOM     14  C   UNL     1       1.637   8.445  20.129  0.00  0.00    +0.000 A 
ATOM     15  C   UNL     1       0.876   9.615  20.138  0.00  0.00    +0.000 A 
ATOM     16  C   UNL     1       0.621  10.319  18.956  0.00  0.00    +0.000 A 
ATOM     17  C   UNL     1       1.148   9.824  17.761  0.00  0.00    +0.000 A 
ATOM     18  C   UNL     1       1.888   8.639  17.754  0.00  0.00    +0.000 A 
BRANCH  16  19
ATOM     19  C   UNL     1      -0.231  11.571  18.956  0.00  0.00    +0.000 C 
ATOM     20  C   UNL     1       0.598  12.826  18.648  0.00  0.00    +0.000 C 
ATOM     21  C   UNL     1      -0.244  14.082  18.811  0.00  0.00    +0.000 C 
ATOM     22  O   UNL     1      -0.830  14.132  20.111  0.00  0.00    +0.000 OA
ATOM     23  C   UNL     1      -1.726  13.045  20.340  0.00  0.00    +0.000 C 
ATOM     24  C   UNL     1      -0.983  11.720  20.288  0.00  0.00    +0.000 C 
ENDBRANCH  16  19
ENDBRANCH   8  13
BRANCH   1  26
ATOM     25  O   UNL     1       2.124   2.175  22.340  0.00  0.00    +0.000 OA
ATOM     26  C   UNL     1       1.949   2.603  21.204  0.00  0.00    +0.000 C 
BRANCH  26  27
ATOM     27  O   UNL     1       0.714   2.619  20.643  0.00  0.00    +0.000 OA
ATOM     28  H   UNL     1       0.004   2.344  21.253  0.00  0.00    +0.000 HD
ENDBRANCH  26  27
ENDBRANCH   1  26
TORSDOF 4
ENDMDL
MODEL 4
REMARK VINA RESULT:      -8.5      1.268      1.578
REMARK  Name = 
REMARK  4 active torsions:
REMARK  status: ('A' for Active; 'I' for Inactive)
REMARK    1  A    between atoms: C_2  and  O_3
REMARK    2  A    between atoms: C_2  and  C_4
REMARK    3  A    between atoms: C_11  and  C_12
REMARK    4  A    between atoms: C_15  and  C_16
REMARK                            x       y       z     vdW  Elec       q    Type
REMARK                         _______ _______ _______ _____ _____    ______ ____
ROOT
ATOM      1  C   UNL     1       5.202   5.029  16.669  0.00  0.00    +0.000 A 
ATOM      2  C   UNL     1       5.264   3.657  16.502  0.00  0.00    +0.000 A 
ATOM      3  N   UNL     1       4.381   3.063  17.360  0.00  0.00    +0.000 N 
ATOM      4  C   UNL     1       3.693   4.024  18.058  0.00  0.00    +0.000 A 
ATOM      5  C   UNL     1       2.692   3.903  19.025  0.00  0.00    +0.000 A 
ATOM      6  C   UNL     1       2.129   5.083  19.528  0.00  0.00    +0.000 A 
ATOM      7  F   UNL     1       1.145   4.937  20.432  0.00  0.00    +0.000 F 
ATOM      8  C   UNL     1       2.530   6.365  19.120  0.00  0.00    +0.000 A 
ATOM      9  C   UNL     1       3.578   6.420  18.183  0.00  0.00    +0.000 A 
ATOM     10  F   UNL     1       4.068   7.610  17.797  0.00  0.00    +0.000 F 
ATOM     11  C   UNL     1       4.169   5.263  17.634  0.00  0.00    +0.000 A 
ATOM     12  H   UNL     1       4.233   2.066  17.444  0.00  0.00    +0.000 HD
ENDROOT
BRANCH   8  13
ATOM     13  C   UNL     1       1.891   7.600  19.626  0.00  0.00    +0.000 A 
ATOM     14  C   UNL     1       1.590   7.765  20.985  0.00  0.00    +0.000 A 
ATOM     15  C   UNL     1       0.949   8.913  21.454  0.00  0.00    +0.000 A 
ATOM     16  C   UNL     1       0.608   9.955  20.584  0.00  0.00    +0.000 A 
ATOM     17  C   UNL     1       0.925   9.821  19.230  0.00  0.00    +0.000 A 
ATOM     18  C   UNL     1       1.544   8.659  18.762  0.00  0.00    +0.000 A 
BRANCH  16  19
ATOM     19  C   UNL     1      -0.116  11.188  21.082  0.00  0.00    +0.000 C 
ATOM     20  C   UNL     1      -0.610  11.016  22.525  0.00  0.00    +0.000 C 
ATOM     21  C   UNL     1      -1.468  12.199  22.946  0.00  0.00    +0.000 C 
ATOM     22  O   UNL     1      -2.545  12.394  22.030  0.00  0.00    +0.000 OA
ATOM     23  C   UNL     1      -2.084  12.710  20.717  0.00  0.00    +0.000 C 
ATOM     24  C   UNL     1      -1.274  11.559  20.143  0.00  0.00    +0.000 C 
ENDBRANCH  16  19
ENDBRANCH   8  13
BRANCH   1  26
ATOM     25  O   UNL     1       7.250   6.039  16.064  0.00  0.00    +0.000 OA
ATOM     26  C   UNL     1       6.032   5.977  15.933  0.00  0.00    +0.000 C 
BRANCH  26  27
ATOM     27  O   UNL     1       5.369   6.837  15.120  0.00  0.00    +0.000 OA
ATOM     28  H   UNL     1       5.540   7.776  15.322  0.00  0.00    +0.000 HD
ENDBRANCH  26  27
ENDBRANCH   1  26
TORSDOF 4
ENDMDL
MODEL 5
REMARK VINA RESULT:      -8.5      0.901      1.585
REMARK  Name = 
REMARK  4 active torsions:
REMARK  status: ('A' for Active; 'I' for Inactive)
REMARK    1  A    between atoms: C_2  and  O_3
REMARK    2  A    between atoms: C_2  and  C_4
REMARK    3  A    between atoms: C_11  and  C_12
REMARK    4  A    between atoms: C_15  and  C_16
REMARK                            x       y       z     vdW  Elec       q    Type
REMARK                         _______ _______ _______ _____ _____    ______ ____
ROOT
ATOM      1  C   UNL     1       6.062   4.830  16.344  0.00  0.00    +0.000 A 
ATOM      2  C   UNL     1       6.090   3.475  16.069  0.00  0.00    +0.000 A 
ATOM      3  N   UNL     1       4.987   2.885  16.621  0.00  0.00    +0.000 N 
ATOM      4  C   UNL     1       4.197   3.838  17.214  0.00  0.00    +0.000 A 
ATOM      5  C   UNL     1       2.978   3.719  17.886  0.00  0.00    +0.000 A 
ATOM      6  C   UNL     1       2.370   4.896  18.342  0.00  0.00    +0.000 A 
ATOM      7  F   UNL     1       1.183   4.756  18.955  0.00  0.00    +0.000 F 
ATOM      8  C   UNL     1       2.930   6.172  18.168  0.00  0.00    +0.000 A 
ATOM      9  C   UNL     1       4.184   6.220  17.531  0.00  0.00    +0.000 A 
ATOM     10  F   UNL     1       4.819   7.395  17.392  0.00  0.00    +0.000 F 
ATOM     11  C   UNL     1       4.832   5.067  17.040  0.00  0.00    +0.000 A 
ATOM     12  H   UNL     1       4.769   1.898  16.572  0.00  0.00    +0.000 HD
ENDROOT
BRANCH   8  13
ATOM     13  C   UNL     1       2.251   7.409  18.613  0.00  0.00    +0.000 A 
ATOM     14  C   UNL     1       1.893   8.415  17.705  0.00  0.00    +0.000 A 
ATOM     15  C   UNL     1       1.290   9.599  18.133  0.00  0.00    +0.000 A 
ATOM     16  C   UNL     1       0.997   9.813  19.485  0.00  0.00    +0.000 A 
ATOM     17  C   UNL     1       1.320   8.809  20.401  0.00  0.00    +0.000 A 
ATOM     18  C   UNL     1       1.947   7.636  19.971  0.00  0.00    +0.000 A 
BRANCH  16  19
ATOM     19  C   UNL     1       0.373  11.108  19.957  0.00  0.00    +0.000 C 
ATOM     20  C   UNL     1      -1.125  11.176  19.625  0.00  0.00    +0.000 C 
ATOM     21  C   UNL     1      -1.692  12.545  19.965  0.00  0.00    +0.000 C 
ATOM     22  O   UNL     1      -0.951  13.575  19.311  0.00  0.00    +0.000 OA
ATOM     23  C   UNL     1       0.410  13.613  19.738  0.00  0.00    +0.000 C 
ATOM     24  C   UNL     1       1.121  12.319  19.378  0.00  0.00    +0.000 C 
ENDBRANCH  16  19
ENDBRANCH   8  13
BRANCH   1  26
ATOM     25  O   UNL     1       7.540   6.644  16.665  0.00  0.00    +0.000 OA
ATOM     26  C   UNL     1       7.102   5.767  15.929  0.00  0.00    +0.000 C 
BRANCH  26  27
ATOM     27  O   UNL     1       7.529   5.648  14.647  0.00  0.00    +0.000 OA
ATOM     28  H   UNL     1       7.652   6.503  14.196  0.00  0.00    +0.000 HD
ENDBRANCH  26  27
ENDBRANCH   1  26
TORSDOF 4
ENDMDL
MODEL 6
REMARK VINA RESULT:      -8.4      1.160      1.326
REMARK  Name = 
REMARK  4 active torsions:
REMARK  status: ('A' for Active; 'I' for Inactive)
REMARK    1  A    between atoms: C_2  and  O_3
REMARK    2  A    between atoms: C_2  and  C_4
REMARK    3  A    between atoms: C_11  and  C_12
REMARK    4  A    between atoms: C_15  and  C_16
REMARK                            x       y       z     vdW  Elec       q    Type
REMARK                         _______ _______ _______ _____ _____    ______ ____
ROOT
ATOM      1  C   UNL     1       5.067   5.041  16.749  0.00  0.00    +0.000 A 
ATOM      2  C   UNL     1       5.143   3.664  16.635  0.00  0.00    +0.000 A 
ATOM      3  N   UNL     1       4.311   3.093  17.558  0.00  0.00    +0.000 N 
ATOM      4  C   UNL     1       3.642   4.072  18.250  0.00  0.00    +0.000 A 
ATOM      5  C   UNL     1       2.690   3.977  19.268  0.00  0.00    +0.000 A 
ATOM      6  C   UNL     1       2.133   5.169  19.750  0.00  0.00    +0.000 A 
ATOM      7  F   UNL     1       1.197   5.046  20.705  0.00  0.00    +0.000 F 
ATOM      8  C   UNL     1       2.494   6.438  19.271  0.00  0.00    +0.000 A 
ATOM      9  C   UNL     1       3.495   6.470  18.283  0.00  0.00    +0.000 A 
ATOM     10  F   UNL     1       3.946   7.650  17.826  0.00  0.00    +0.000 F 
ATOM     11  C   UNL     1       4.078   5.300  17.754  0.00  0.00    +0.000 A 
ATOM     12  H   UNL     1       4.183   2.098  17.690  0.00  0.00    +0.000 HD
ENDROOT
BRANCH   8  13
ATOM     13  C   UNL     1       1.860   7.684  19.757  0.00  0.00    +0.000 A 
ATOM     14  C   UNL     1       1.530   7.859  21.108  0.00  0.00    +0.000 A 
ATOM     15  C   UNL     1       0.895   9.018  21.558  0.00  0.00    +0.000 A 
ATOM     16  C   UNL     1       0.587  10.061  20.676  0.00  0.00    +0.000 A 
ATOM     17  C   UNL     1       0.934   9.917  19.331  0.00  0.00    +0.000 A 
ATOM     18  C   UNL     1       1.548   8.744  18.882  0.00  0.00    +0.000 A 
BRANCH  16  19
ATOM     19  C   UNL     1      -0.131  11.305  21.153  0.00  0.00    +0.000 C 
ATOM     20  C   UNL     1       0.795  12.530  21.165  0.00  0.00    +0.000 C 
ATOM     21  C   UNL     1       0.099  13.726  21.796  0.00  0.00    +0.000 C 
ATOM     22  O   UNL     1      -0.379  13.402  23.100  0.00  0.00    +0.000 OA
ATOM     23  C   UNL     1      -1.360  12.367  23.072  0.00  0.00    +0.000 C 
ATOM     24  C   UNL     1      -0.762  11.077  22.535  0.00  0.00    +0.000 C 
ENDBRANCH  16  19
ENDBRANCH   8  13
BRANCH   1  26
ATOM     25  O   UNL     1       5.332   6.810  15.207  0.00  0.00    +0.000 OA
ATOM     26  C   UNL     1       5.846   5.969  15.936  0.00  0.00    +0.000 C 
BRANCH  26  27
ATOM     27  O   UNL     1       7.193   5.816  15.990  0.00  0.00    +0.000 OA
ATOM     28  H   UNL     1       7.681   6.660  16.027  0.00  0.00    +0.000 HD
ENDBRANCH  26  27
ENDBRANCH   1  26
TORSDOF 4
ENDMDL
MODEL 7
REMARK VINA RESULT:      -8.4      3.709      8.567
REMARK  Name = 
REMARK  4 active torsions:
REMARK  status: ('A' for Active; 'I' for Inactive)
REMARK    1  A    between atoms: C_2  and  O_3
REMARK    2  A    between atoms: C_2  and  C_4
REMARK    3  A    between atoms: C_11  and  C_12
REMARK    4  A    between atoms: C_15  and  C_16
REMARK                            x       y       z     vdW  Elec       q    Type
REMARK                         _______ _______ _______ _____ _____    ______ ____
ROOT
ATOM      1  C   UNL     1      -2.206  11.470  18.702  0.00  0.00    +0.000 A 
ATOM      2  C   UNL     1      -2.654  12.358  19.663  0.00  0.00    +0.000 A 
ATOM      3  N   UNL     1      -1.924  12.184  20.806  0.00  0.00    +0.000 N 
ATOM      4  C   UNL     1      -0.960  11.229  20.601  0.00  0.00    +0.000 A 
ATOM      5  C   UNL     1       0.021  10.728  21.461  0.00  0.00    +0.000 A 
ATOM      6  C   UNL     1       0.915   9.780  20.944  0.00  0.00    +0.000 A 
ATOM      7  F   UNL     1       1.868   9.340  21.783  0.00  0.00    +0.000 F 
ATOM      8  C   UNL     1       0.862   9.309  19.623  0.00  0.00    +0.000 A 
ATOM      9  C   UNL     1      -0.180   9.813  18.824  0.00  0.00    +0.000 A 
ATOM     10  F   UNL     1      -0.342   9.357  17.571  0.00  0.00    +0.000 F 
ATOM     11  C   UNL     1      -1.097  10.778  19.289  0.00  0.00    +0.000 A 
ATOM     12  H   UNL     1      -2.053  12.704  21.664  0.00  0.00    +0.000 HD
ENDROOT
BRANCH   8  13
ATOM     13  C   UNL     1       1.845   8.345  19.080  0.00  0.00    +0.000 A 
ATOM     14  C   UNL     1       2.097   7.121  19.714  0.00  0.00    +0.000 A 
ATOM     15  C   UNL     1       3.054   6.231  19.224  0.00  0.00    +0.000 A 
ATOM     16  C   UNL     1       3.779   6.520  18.062  0.00  0.00    +0.000 A 
ATOM     17  C   UNL     1       3.521   7.722  17.400  0.00  0.00    +0.000 A 
ATOM     18  C   UNL     1       2.580   8.620  17.909  0.00  0.00    +0.000 A 
BRANCH  16  19
ATOM     19  C   UNL     1       4.841   5.573  17.544  0.00  0.00    +0.000 C 
ATOM     20  C   UNL     1       6.100   5.591  18.422  0.00  0.00    +0.000 C 
ATOM     21  C   UNL     1       7.207   4.758  17.795  0.00  0.00    +0.000 C 
ATOM     22  O   UNL     1       7.476   5.193  16.463  0.00  0.00    +0.000 OA
ATOM     23  C   UNL     1       6.348   5.029  15.605  0.00  0.00    +0.000 C 
ATOM     24  C   UNL     1       5.185   5.886  16.079  0.00  0.00    +0.000 C 
ENDBRANCH  16  19
ENDBRANCH   8  13
BRANCH   1  26
ATOM     25  O   UNL     1      -3.886  10.873  17.153  0.00  0.00    +0.000 OA
ATOM     26  C   UNL     1      -2.781  11.359  17.365  0.00  0.00    +0.000 C 
BRANCH  26  27
ATOM     27  O   UNL     1      -1.992  11.782  16.345  0.00  0.00    +0.000 OA
ATOM     28  H   UNL     1      -1.619  11.054  15.813  0.00  0.00    +0.000 HD
ENDBRANCH  26  27
ENDBRANCH   1  26
TORSDOF 4
ENDMDL
MODEL 8
REMARK VINA RESULT:      -8.4      1.069      1.480
REMARK  Name = 
REMARK  4 active torsions:
REMARK  status: ('A' for Active; 'I' for Inactive)
REMARK    1  A    between atoms: C_2  and  O_3
REMARK    2  A    between atoms: C_2  and  C_4
REMARK    3  A    between atoms: C_11  and  C_12
REMARK    4  A    between atoms: C_15  and  C_16
REMARK                            x       y       z     vdW  Elec       q    Type
REMARK                         _______ _______ _______ _____ _____    ______ ____
ROOT
ATOM      1  C   UNL     1       5.218   4.934  16.753  0.00  0.00    +0.000 A 
ATOM      2  C   UNL     1       5.284   3.553  16.695  0.00  0.00    +0.000 A 
ATOM      3  N   UNL     1       4.406   3.026  17.601  0.00  0.00    +0.000 N 
ATOM      4  C   UNL     1       3.718   4.037  18.225  0.00  0.00    +0.000 A 
ATOM      5  C   UNL     1       2.722   3.990  19.203  0.00  0.00    +0.000 A 
ATOM      6  C   UNL     1       2.157   5.204  19.614  0.00  0.00    +0.000 A 
ATOM      7  F   UNL     1       1.179   5.127  20.531  0.00  0.00    +0.000 F 
ATOM      8  C   UNL     1       2.553   6.451  19.104  0.00  0.00    +0.000 A 
ATOM      9  C   UNL     1       3.596   6.435  18.162  0.00  0.00    +0.000 A 
ATOM     10  F   UNL     1       4.081   7.592  17.681  0.00  0.00    +0.000 F 
ATOM     11  C   UNL     1       4.189   5.241  17.703  0.00  0.00    +0.000 A 
ATOM     12  H   UNL     1       4.261   2.038  17.764  0.00  0.00    +0.000 HD
ENDROOT
BRANCH   8  13
ATOM     13  C   UNL     1       1.912   7.720  19.515  0.00  0.00    +0.000 A 
ATOM     14  C   UNL     1       1.629   8.732  18.587  0.00  0.00    +0.000 A 
ATOM     15  C   UNL     1       1.063   9.945  18.982  0.00  0.00    +0.000 A 
ATOM     16  C   UNL     1       0.732  10.184  20.321  0.00  0.00    +0.000 A 
ATOM     17  C   UNL     1       0.980   9.177  21.257  0.00  0.00    +0.000 A 
ATOM     18  C   UNL     1       1.570   7.974  20.859  0.00  0.00    +0.000 A 
BRANCH  16  19
ATOM     19  C   UNL     1       0.148  11.510  20.761  0.00  0.00    +0.000 C 
ATOM     20  C   UNL     1       1.210  12.618  20.795  0.00  0.00    +0.000 C 
ATOM     21  C   UNL     1       0.637  13.896  21.389  0.00  0.00    +0.000 C 
ATOM     22  O   UNL     1       0.080  13.647  22.679  0.00  0.00    +0.000 OA
ATOM     23  C   UNL     1      -1.014  12.732  22.626  0.00  0.00    +0.000 C 
ATOM     24  C   UNL     1      -0.551  11.375  22.122  0.00  0.00    +0.000 C 
ENDBRANCH  16  19
ENDBRANCH   8  13
BRANCH   1  26
ATOM     25  O   UNL     1       7.261   5.888  16.052  0.00  0.00    +0.000 OA
ATOM     26  C   UNL     1       6.042   5.823  15.941  0.00  0.00    +0.000 C 
BRANCH  26  27
ATOM     27  O   UNL     1       5.372   6.628  15.079  0.00  0.00    +0.000 OA
ATOM     28  H   UNL     1       5.944   7.267  14.616  0.00  0.00    +0.000 HD
ENDBRANCH  26  27
ENDBRANCH   1  26
TORSDOF 4
ENDMDL
MODEL 9
REMARK VINA RESULT:      -8.3      3.050      4.045
REMARK  Name = 
REMARK  4 active torsions:
REMARK  status: ('A' for Active; 'I' for Inactive)
REMARK    1  A    between atoms: C_2  and  O_3
REMARK    2  A    between atoms: C_2  and  C_4
REMARK    3  A    between atoms: C_11  and  C_12
REMARK    4  A    between atoms: C_15  and  C_16
REMARK                            x       y       z     vdW  Elec       q    Type
REMARK                         _______ _______ _______ _____ _____    ______ ____
ROOT
ATOM      1  C   UNL     1       3.025   3.026  20.311  0.00  0.00    +0.000 A 
ATOM      2  C   UNL     1       4.153   2.282  20.013  0.00  0.00    +0.000 A 
ATOM      3  N   UNL     1       4.956   3.005  19.175  0.00  0.00    +0.000 N 
ATOM      4  C   UNL     1       4.403   4.242  18.952  0.00  0.00    +0.000 A 
ATOM      5  C   UNL     1       4.858   5.317  18.186  0.00  0.00    +0.000 A 
ATOM      6  C   UNL     1       4.094   6.491  18.195  0.00  0.00    +0.000 A 
ATOM      7  F   UNL     1       4.573   7.520  17.476  0.00  0.00    +0.000 F 
ATOM      8  C   UNL     1       2.900   6.629  18.919  0.00  0.00    +0.000 A 
ATOM      9  C   UNL     1       2.467   5.494  19.629  0.00  0.00    +0.000 A 
ATOM     10  F   UNL     1       1.297   5.523  20.288  0.00  0.00    +0.000 F 
ATOM     11  C   UNL     1       3.205   4.293  19.665  0.00  0.00    +0.000 A 
ATOM     12  H   UNL     1       5.840   2.689  18.800  0.00  0.00    +0.000 HD
ENDROOT
BRANCH   8  13
ATOM     13  C   UNL     1       2.131   7.893  18.956  0.00  0.00    +0.000 A 
ATOM     14  C   UNL     1       1.893   8.641  17.795  0.00  0.00    +0.000 A 
ATOM     15  C   UNL     1       1.204   9.854  17.838  0.00  0.00    +0.000 A 
ATOM     16  C   UNL     1       0.700  10.354  19.044  0.00  0.00    +0.000 A 
ATOM     17  C   UNL     1       0.901   9.609  20.208  0.00  0.00    +0.000 A 
ATOM     18  C   UNL     1       1.614   8.408  20.163  0.00  0.00    +0.000 A 
BRANCH  16  19
ATOM     19  C   UNL     1      -0.021  11.684  19.102  0.00  0.00    +0.000 C 
ATOM     20  C   UNL     1       0.731  12.704  19.969  0.00  0.00    +0.000 C 
ATOM     21  C   UNL     1      -0.089  13.974  20.141  0.00  0.00    +0.000 C 
ATOM     22  O   UNL     1      -1.381  13.674  20.665  0.00  0.00    +0.000 OA
ATOM     23  C   UNL     1      -2.142  12.850  19.782  0.00  0.00    +0.000 C 
ATOM     24  C   UNL     1      -1.466  11.503  19.592  0.00  0.00    +0.000 C 
ENDBRANCH  16  19
ENDBRANCH   8  13
BRANCH   1  26
ATOM     25  O   UNL     1       2.114   2.127  22.295  0.00  0.00    +0.000 OA
ATOM     26  C   UNL     1       1.937   2.551  21.158  0.00  0.00    +0.000 C 
BRANCH  26  27
ATOM     27  O   UNL     1       0.703   2.552  20.594  0.00  0.00    +0.000 OA
ATOM     28  H   UNL     1       0.637   1.990  19.800  0.00  0.00    +0.000 HD
ENDBRANCH  26  27
ENDBRANCH   1  26
TORSDOF 4
ENDMDL
