MODEL 1
REMARK VINA RESULT:      -8.0      0.000      0.000
REMARK  Name = 
REMARK  6 active torsions:
REMARK  status: ('A' for Active; 'I' for Inactive)
REMARK    1  A    between atoms: C_2  and  C_3
REMARK    2  A    between atoms: C_3  and  N_4
REMARK    3  A    between atoms: N_16  and  C_17
REMARK    4  A    between atoms: C_17  and  C_18
REMARK    5  A    between atoms: C_18  and  S_19
REMARK    6  A    between atoms: S_19  and  C_20
REMARK                            x       y       z     vdW  Elec       q    Type
REMARK                         _______ _______ _______ _____ _____    ______ ____
ROOT
ATOM      1  O   UNL     1       7.741   5.595  17.299  0.00  0.00    +0.000 OA
ATOM      2  C   UNL     1       6.868   6.445  17.141  0.00  0.00    +0.000 C 
ATOM      3  N   UNL     1       7.049   7.768  17.478  0.00  0.00    +0.000 N 
ATOM      4  H   UNL     1       6.275   8.418  17.411  0.00  0.00    +0.000 HD
ENDROOT
BRANCH   2   5
ATOM      5  C   UNL     1       5.500   6.116  16.562  0.00  0.00    +0.000 C 
BRANCH   5   6
ATOM      6  N   UNL     1       4.591   5.619  17.588  0.00  0.00    +0.000 N 
ATOM      7  C   UNL     1       3.527   6.333  18.180  0.00  0.00    +0.000 C 
ATOM      8  O   UNL     1       3.243   7.494  17.966  0.00  0.00    +0.000 OA
ATOM      9  C   UNL     1       2.831   5.450  19.137  0.00  0.00    +0.000 A 
ATOM     10  C   UNL     1       1.744   5.789  19.926  0.00  0.00    +0.000 A 
ATOM     11  C   UNL     1       1.225   4.814  20.787  0.00  0.00    +0.000 A 
ATOM     12  C   UNL     1       1.796   3.527  20.845  0.00  0.00    +0.000 A 
ATOM     13  C   UNL     1       2.893   3.197  20.048  0.00  0.00    +0.000 A 
ATOM     14  C   UNL     1       3.386   4.180  19.209  0.00  0.00    +0.000 A 
ATOM     15  S   UNL     1       4.749   4.045  18.138  0.00  0.00    +0.000 S 
ATOM     16  O   UNL     1       4.429   3.127  17.073  0.00  0.00    +0.000 OA
ATOM     17  O   UNL     1       5.955   3.948  18.925  0.00  0.00    +0.000 OA
ENDBRANCH   5   6
ENDBRANCH   2   5
BRANCH   3  18
ATOM     18  C   UNL     1       8.292   8.281  18.032  0.00  0.00    +0.000 C 
BRANCH  18  19
ATOM     19  C   UNL     1       8.370   9.811  18.033  0.00  0.00    +0.000 C 
BRANCH  19  20
ATOM     20  S   UNL     1       9.171  10.410  19.571  0.00  0.00    +0.000 S 
BRANCH  20  21
ATOM     21  C   UNL     1      10.345  11.574  18.904  0.00  0.00    +0.000 A 
ATOM     22  C   UNL     1      10.184  12.137  17.633  0.00  0.00    +0.000 A 
ATOM     23  C   UNL     1      11.096  13.082  17.159  0.00  0.00    +0.000 A 
ATOM     24  C   UNL     1      12.171  13.476  17.955  0.00  0.00    +0.000 A 
ATOM     25  C   UNL     1      12.332  12.928  19.226  0.00  0.00    +0.000 A 
ATOM     26  C   UNL     1      11.419  11.983  19.700  0.00  0.00    +0.000 A 
ENDBRANCH  20  21
ENDBRANCH  19  20
ENDBRANCH  18  19
ENDBRANCH   3  18
TORSDOF 6
ENDMDL
MODEL 2
REMARK VINA RESULT:      -7.9      1.325      2.451
REMARK  Name = 
REMARK  6 active torsions:
REMARK  status: ('A' for Active; 'I' for Inactive)
REMARK    1  A    between atoms: C_2  and  C_3
REMARK    2  A    between atoms: C_3  and  N_4
REMARK    3  A    between atoms: N_16  and  C_17
REMARK    4  A    between atoms: C_17  and  C_18
REMARK    5  A    between atoms: C_18  and  S_19
REMARK    6  A    between atoms: S_19  and  C_20
REMARK                            x       y       z     vdW  Elec       q    Type
REMARK                         _______ _______ _______ _____ _____    ______ ____
ROOT
ATOM      1  O   UNL     1       6.612   6.034  18.349  0.00  0.00    +0.000 OA
ATOM      2  C   UNL     1       6.278   6.839  17.483  0.00  0.00    +0.000 C 
ATOM      3  N   UNL     1       6.993   7.987  17.220  0.00  0.00    +0.000 N 
ATOM      4  H   UNL     1       6.637   8.665  16.556  0.00  0.00    +0.000 HD
ENDROOT
BRANCH   2   5
ATOM      5  C   UNL     1       5.040   6.648  16.620  0.00  0.00    +0.000 C 
BRANCH   5   6
ATOM      6  N   UNL     1       4.119   5.684  17.213  0.00  0.00    +0.000 N 
ATOM      7  C   UNL     1       4.082   4.297  16.959  0.00  0.00    +0.000 C 
ATOM      8  O   UNL     1       4.775   3.702  16.159  0.00  0.00    +0.000 OA
ATOM      9  C   UNL     1       3.033   3.684  17.797  0.00  0.00    +0.000 A 
ATOM     10  C   UNL     1       2.681   2.344  17.823  0.00  0.00    +0.000 A 
ATOM     11  C   UNL     1       1.646   1.952  18.680  0.00  0.00    +0.000 A 
ATOM     12  C   UNL     1       0.985   2.895  19.491  0.00  0.00    +0.000 A 
ATOM     13  C   UNL     1       1.345   4.243  19.455  0.00  0.00    +0.000 A 
ATOM     14  C   UNL     1       2.369   4.603  18.598  0.00  0.00    +0.000 A 
ATOM     15  S   UNL     1       2.994   6.205  18.339  0.00  0.00    +0.000 S 
ATOM     16  O   UNL     1       3.673   6.649  19.530  0.00  0.00    +0.000 OA
ATOM     17  O   UNL     1       1.993   6.994  17.662  0.00  0.00    +0.000 OA
ENDBRANCH   5   6
ENDBRANCH   2   5
BRANCH   3  18
ATOM     18  C   UNL     1       8.214   8.339  17.928  0.00  0.00    +0.000 C 
BRANCH  18  19
ATOM     19  C   UNL     1       8.438   9.851  18.035  0.00  0.00    +0.000 C 
BRANCH  19  20
ATOM     20  S   UNL     1       9.274  10.263  19.616  0.00  0.00    +0.000 S 
BRANCH  20  21
ATOM     21  C   UNL     1      10.445  11.487  19.064  0.00  0.00    +0.000 A 
ATOM     22  C   UNL     1      11.397  12.040  19.927  0.00  0.00    +0.000 A 
ATOM     23  C   UNL     1      12.332  12.962  19.451  0.00  0.00    +0.000 A 
ATOM     24  C   UNL     1      12.326  13.331  18.107  0.00  0.00    +0.000 A 
ATOM     25  C   UNL     1      11.390  12.777  17.238  0.00  0.00    +0.000 A 
ATOM     26  C   UNL     1      10.455  11.855  17.714  0.00  0.00    +0.000 A 
ENDBRANCH  20  21
ENDBRANCH  19  20
ENDBRANCH  18  19
ENDBRANCH   3  18
TORSDOF 6
ENDMDL
MODEL 3
REMARK VINA RESULT:      -7.6      3.686      7.262
REMARK  Name = 
REMARK  6 active torsions:
REMARK  status: ('A' for Active; 'I' for Inactive)
REMARK    1  A    between atoms: C_2  and  C_3
REMARK    2  A    between atoms: C_3  and  N_4
REMARK    3  A    between atoms: N_16  and  C_17
REMARK    4  A    between atoms: C_17  and  C_18
REMARK    5  A    between atoms: C_18  and  S_19
REMARK    6  A    between atoms: S_19  and  C_20
REMARK                            x       y       z     vdW  Elec       q    Type
REMARK                         _______ _______ _______ _____ _____    ______ ____
ROOT
ATOM      1  O   UNL     1       1.590   3.915  16.927  0.00  0.00    +0.000 OA
ATOM      2  C   UNL     1       2.549   3.514  17.582  0.00  0.00    +0.000 C 
ATOM      3  N   UNL     1       2.488   3.313  18.943  0.00  0.00    +0.000 N 
ATOM      4  H   UNL     1       3.325   3.063  19.456  0.00  0.00    +0.000 HD
ENDROOT
BRANCH   2   5
ATOM      5  C   UNL     1       3.899   3.204  16.952  0.00  0.00    +0.000 C 
BRANCH   5   6
ATOM      6  N   UNL     1       4.910   4.178  17.349  0.00  0.00    +0.000 N 
ATOM      7  C   UNL     1       5.647   4.177  18.552  0.00  0.00    +0.000 C 
ATOM      8  O   UNL     1       5.509   3.393  19.469  0.00  0.00    +0.000 OA
ATOM      9  C   UNL     1       6.594   5.309  18.535  0.00  0.00    +0.000 A 
ATOM     10  C   UNL     1       7.482   5.651  19.543  0.00  0.00    +0.000 A 
ATOM     11  C   UNL     1       8.296   6.774  19.349  0.00  0.00    +0.000 A 
ATOM     12  C   UNL     1       8.212   7.529  18.163  0.00  0.00    +0.000 A 
ATOM     13  C   UNL     1       7.312   7.177  17.155  0.00  0.00    +0.000 A 
ATOM     14  C   UNL     1       6.519   6.066  17.374  0.00  0.00    +0.000 A 
ATOM     15  S   UNL     1       5.305   5.427  16.305  0.00  0.00    +0.000 S 
ATOM     16  O   UNL     1       5.943   4.890  15.129  0.00  0.00    +0.000 OA
ATOM     17  O   UNL     1       4.198   6.352  16.248  0.00  0.00    +0.000 OA
ENDBRANCH   5   6
ENDBRANCH   2   5
BRANCH   3  18
ATOM     18  C   UNL     1       1.281   3.539  19.723  0.00  0.00    +0.000 C 
BRANCH  18  19
ATOM     19  C   UNL     1       1.381   4.748  20.658  0.00  0.00    +0.000 C 
BRANCH  19  20
ATOM     20  S   UNL     1       2.886   5.727  20.280  0.00  0.00    +0.000 S 
BRANCH  20  21
ATOM     21  C   UNL     1       2.157   7.237  19.674  0.00  0.00    +0.000 A 
ATOM     22  C   UNL     1       1.529   8.148  20.530  0.00  0.00    +0.000 A 
ATOM     23  C   UNL     1       1.010   9.344  20.029  0.00  0.00    +0.000 A 
ATOM     24  C   UNL     1       1.124   9.641  18.672  0.00  0.00    +0.000 A 
ATOM     25  C   UNL     1       1.758   8.744  17.815  0.00  0.00    +0.000 A 
ATOM     26  C   UNL     1       2.277   7.548  18.316  0.00  0.00    +0.000 A 
ENDBRANCH  20  21
ENDBRANCH  19  20
ENDBRANCH  18  19
ENDBRANCH   3  18
TORSDOF 6
ENDMDL
MODEL 4
REMARK VINA RESULT:      -7.6      0.904      1.335
REMARK  Name = 
REMARK  6 active torsions:
REMARK  status: ('A' for Active; 'I' for Inactive)
REMARK    1  A    between atoms: C_2  and  C_3
REMARK    2  A    between atoms: C_3  and  N_4
REMARK    3  A    between atoms: N_16  and  C_17
REMARK    4  A    between atoms: C_17  and  C_18
REMARK    5  A    between atoms: C_18  and  S_19
REMARK    6  A    between atoms: S_19  and  C_20
REMARK                            x       y       z     vdW  Elec       q    Type
REMARK                         _______ _______ _______ _____ _____    ______ ____
ROOT
ATOM      1  O   UNL     1       7.330   6.051  15.976  0.00  0.00    +0.000 OA
ATOM      2  C   UNL     1       6.420   6.486  16.677  0.00  0.00    +0.000 C 
ATOM      3  N   UNL     1       6.645   7.272  17.785  0.00  0.00    +0.000 N 
ATOM      4  H   UNL     1       5.872   7.539  18.383  0.00  0.00    +0.000 HD
ENDROOT
BRANCH   2   5
ATOM      5  C   UNL     1       4.954   6.193  16.391  0.00  0.00    +0.000 C 
BRANCH   5   6
ATOM      6  N   UNL     1       4.312   5.528  17.519  0.00  0.00    +0.000 N 
ATOM      7  C   UNL     1       3.200   6.001  18.246  0.00  0.00    +0.000 C 
ATOM      8  O   UNL     1       2.642   7.067  18.080  0.00  0.00    +0.000 OA
ATOM      9  C   UNL     1       2.841   5.005  19.275  0.00  0.00    +0.000 A 
ATOM     10  C   UNL     1       1.812   5.111  20.197  0.00  0.00    +0.000 A 
ATOM     11  C   UNL     1       1.633   4.063  21.108  0.00  0.00    +0.000 A 
ATOM     12  C   UNL     1       2.477   2.935  21.083  0.00  0.00    +0.000 A 
ATOM     13  C   UNL     1       3.512   2.839  20.151  0.00  0.00    +0.000 A 
ATOM     14  C   UNL     1       3.667   3.890  19.265  0.00  0.00    +0.000 A 
ATOM     15  S   UNL     1       4.882   4.038  18.030  0.00  0.00    +0.000 S 
ATOM     16  O   UNL     1       4.642   3.053  17.006  0.00  0.00    +0.000 OA
ATOM     17  O   UNL     1       6.167   4.224  18.658  0.00  0.00    +0.000 OA
ENDBRANCH   5   6
ENDBRANCH   2   5
BRANCH   3  18
ATOM     18  C   UNL     1       7.976   7.674  18.213  0.00  0.00    +0.000 C 
BRANCH  18  19
ATOM     19  C   UNL     1       8.529   8.872  17.432  0.00  0.00    +0.000 C 
BRANCH  19  20
ATOM     20  S   UNL     1       7.991  10.445  18.209  0.00  0.00    +0.000 S 
BRANCH  20  21
ATOM     21  C   UNL     1       9.560  11.116  18.721  0.00  0.00    +0.000 A 
ATOM     22  C   UNL     1       9.882  11.293  20.071  0.00  0.00    +0.000 A 
ATOM     23  C   UNL     1      11.139  11.778  20.440  0.00  0.00    +0.000 A 
ATOM     24  C   UNL     1      12.085  12.081  19.462  0.00  0.00    +0.000 A 
ATOM     25  C   UNL     1      11.777  11.898  18.116  0.00  0.00    +0.000 A 
ATOM     26  C   UNL     1      10.520  11.413  17.747  0.00  0.00    +0.000 A 
ENDBRANCH  20  21
ENDBRANCH  19  20
ENDBRANCH  18  19
ENDBRANCH   3  18
TORSDOF 6
ENDMDL
MODEL 5
REMARK VINA RESULT:      -7.6      1.394      2.358
REMARK  Name = 
REMARK  6 active torsions:
REMARK  status: ('A' for Active; 'I' for Inactive)
REMARK    1  A    between atoms: C_2  and  C_3
REMARK    2  A    between atoms: C_3  and  N_4
REMARK    3  A    between atoms: N_16  and  C_17
REMARK    4  A    between atoms: C_17  and  C_18
REMARK    5  A    between atoms: C_18  and  S_19
REMARK    6  A    between atoms: S_19  and  C_20
REMARK                            x       y       z     vdW  Elec       q    Type
REMARK                         _______ _______ _______ _____ _____    ______ ____
ROOT
ATOM      1  O   UNL     1       5.945   6.069  15.443  0.00  0.00    +0.000 OA
ATOM      2  C   UNL     1       6.424   5.641  16.490  0.00  0.00    +0.000 C 
ATOM      3  N   UNL     1       7.248   6.396  17.294  0.00  0.00    +0.000 N 
ATOM      4  H   UNL     1       7.689   5.977  18.104  0.00  0.00    +0.000 HD
ENDROOT
BRANCH   2   5
ATOM      5  C   UNL     1       6.155   4.232  16.997  0.00  0.00    +0.000 C 
BRANCH   5   6
ATOM      6  N   UNL     1       4.923   4.171  17.775  0.00  0.00    +0.000 N 
ATOM      7  C   UNL     1       3.994   3.109  17.789  0.00  0.00    +0.000 C 
ATOM      8  O   UNL     1       4.050   2.106  17.106  0.00  0.00    +0.000 OA
ATOM      9  C   UNL     1       2.914   3.429  18.743  0.00  0.00    +0.000 A 
ATOM     10  C   UNL     1       1.809   2.642  19.027  0.00  0.00    +0.000 A 
ATOM     11  C   UNL     1       0.880   3.122  19.957  0.00  0.00    +0.000 A 
ATOM     12  C   UNL     1       1.067   4.370  20.584  0.00  0.00    +0.000 A 
ATOM     13  C   UNL     1       2.182   5.156  20.289  0.00  0.00    +0.000 A 
ATOM     14  C   UNL     1       3.082   4.658  19.365  0.00  0.00    +0.000 A 
ATOM     15  S   UNL     1       4.530   5.437  18.799  0.00  0.00    +0.000 S 
ATOM     16  O   UNL     1       5.487   5.503  19.875  0.00  0.00    +0.000 OA
ATOM     17  O   UNL     1       4.164   6.582  18.000  0.00  0.00    +0.000 OA
ENDBRANCH   5   6
ENDBRANCH   2   5
BRANCH   3  18
ATOM     18  C   UNL     1       7.610   7.771  16.987  0.00  0.00    +0.000 C 
BRANCH  18  19
ATOM     19  C   UNL     1       8.253   8.507  18.168  0.00  0.00    +0.000 C 
BRANCH  19  20
ATOM     20  S   UNL     1       7.995  10.317  18.010  0.00  0.00    +0.000 S 
BRANCH  20  21
ATOM     21  C   UNL     1       9.531  10.931  18.673  0.00  0.00    +0.000 A 
ATOM     22  C   UNL     1      10.618  11.242  17.849  0.00  0.00    +0.000 A 
ATOM     23  C   UNL     1      11.791  11.766  18.395  0.00  0.00    +0.000 A 
ATOM     24  C   UNL     1      11.883  11.989  19.768  0.00  0.00    +0.000 A 
ATOM     25  C   UNL     1      10.802  11.692  20.595  0.00  0.00    +0.000 A 
ATOM     26  C   UNL     1       9.628  11.168  20.048  0.00  0.00    +0.000 A 
ENDBRANCH  20  21
ENDBRANCH  19  20
ENDBRANCH  18  19
ENDBRANCH   3  18
TORSDOF 6
ENDMDL
MODEL 6
REMARK VINA RESULT:      -7.5      2.013      2.501
REMARK  Name = 
REMARK  6 active torsions:
REMARK  status: ('A' for Active; 'I' for Inactive)
REMARK    1  A    between atoms: C_2  and  C_3
REMARK    2  A    between atoms: C_3  and  N_4
REMARK    3  A    between atoms: N_16  and  C_17
REMARK    4  A    between atoms: C_17  and  C_18
REMARK    5  A    between atoms: C_18  and  S_19
REMARK    6  A    between atoms: S_19  and  C_20
REMARK                            x       y       z     vdW  Elec       q    Type
REMARK                         _______ _______ _______ _____ _____    ______ ____
ROOT
ATOM      1  O   UNL     1       8.055   6.794  18.750  0.00  0.00    +0.000 OA
ATOM      2  C   UNL     1       7.724   7.494  17.796  0.00  0.00    +0.000 C 
ATOM      3  N   UNL     1       8.003   8.841  17.731  0.00  0.00    +0.000 N 
ATOM      4  H   UNL     1       7.639   9.397  16.966  0.00  0.00    +0.000 HD
ENDROOT
BRANCH   2   5
ATOM      5  C   UNL     1       6.971   6.940  16.596  0.00  0.00    +0.000 C 
BRANCH   5   6
ATOM      6  N   UNL     1       5.846   6.109  17.009  0.00  0.00    +0.000 N 
ATOM      7  C   UNL     1       4.555   6.562  17.353  0.00  0.00    +0.000 C 
ATOM      8  O   UNL     1       4.200   7.721  17.416  0.00  0.00    +0.000 OA
ATOM      9  C   UNL     1       3.705   5.395  17.665  0.00  0.00    +0.000 A 
ATOM     10  C   UNL     1       2.377   5.428  18.059  0.00  0.00    +0.000 A 
ATOM     11  C   UNL     1       1.739   4.211  18.325  0.00  0.00    +0.000 A 
ATOM     12  C   UNL     1       2.430   2.990  18.193  0.00  0.00    +0.000 A 
ATOM     13  C   UNL     1       3.769   2.968  17.798  0.00  0.00    +0.000 A 
ATOM     14  C   UNL     1       4.375   4.185  17.545  0.00  0.00    +0.000 A 
ATOM     15  S   UNL     1       6.027   4.445  17.067  0.00  0.00    +0.000 S 
ATOM     16  O   UNL     1       6.223   3.933  15.734  0.00  0.00    +0.000 OA
ATOM     17  O   UNL     1       6.892   4.113  18.174  0.00  0.00    +0.000 OA
ENDBRANCH   5   6
ENDBRANCH   2   5
BRANCH   3  18
ATOM     18  C   UNL     1       8.727   9.552  18.773  0.00  0.00    +0.000 C 
BRANCH  18  19
ATOM     19  C   UNL     1       9.200  10.944  18.342  0.00  0.00    +0.000 C 
BRANCH  19  20
ATOM     20  S   UNL     1      10.808  11.346  19.128  0.00  0.00    +0.000 S 
BRANCH  20  21
ATOM     21  C   UNL     1      10.284  12.488  20.392  0.00  0.00    +0.000 A 
ATOM     22  C   UNL     1      10.683  13.829  20.385  0.00  0.00    +0.000 A 
ATOM     23  C   UNL     1      10.217  14.709  21.364  0.00  0.00    +0.000 A 
ATOM     24  C   UNL     1       9.342  14.257  22.351  0.00  0.00    +0.000 A 
ATOM     25  C   UNL     1       8.931  12.926  22.358  0.00  0.00    +0.000 A 
ATOM     26  C   UNL     1       9.398  12.045  21.379  0.00  0.00    +0.000 A 
ENDBRANCH  20  21
ENDBRANCH  19  20
ENDBRANCH  18  19
ENDBRANCH   3  18
TORSDOF 6
ENDMDL
MODEL 7
REMARK VINA RESULT:      -7.5      1.193      1.539
REMARK  Name = 
REMARK  6 active torsions:
REMARK  status: ('A' for Active; 'I' for Inactive)
REMARK    1  A    between atoms: C_2  and  C_3
REMARK    2  A    between atoms: C_3  and  N_4
REMARK    3  A    between atoms: N_16  and  C_17
REMARK    4  A    between atoms: C_17  and  C_18
REMARK    5  A    between atoms: C_18  and  S_19
REMARK    6  A    between atoms: S_19  and  C_20
REMARK                            x       y       z     vdW  Elec       q    Type
REMARK                         _______ _______ _______ _____ _____    ______ ____
ROOT
ATOM      1  O   UNL     1       7.719   6.073  16.113  0.00  0.00    +0.000 OA
ATOM      2  C   UNL     1       6.748   6.699  16.533  0.00  0.00    +0.000 C 
ATOM      3  N   UNL     1       6.869   7.779  17.378  0.00  0.00    +0.000 N 
ATOM      4  H   UNL     1       6.041   8.214  17.767  0.00  0.00    +0.000 HD
ENDROOT
BRANCH   2   5
ATOM      5  C   UNL     1       5.318   6.337  16.162  0.00  0.00    +0.000 C 
BRANCH   5   6
ATOM      6  N   UNL     1       4.584   5.817  17.310  0.00  0.00    +0.000 N 
ATOM      7  C   UNL     1       3.551   6.475  18.011  0.00  0.00    +0.000 C 
ATOM      8  O   UNL     1       3.155   7.603  17.799  0.00  0.00    +0.000 OA
ATOM      9  C   UNL     1       3.049   5.583  19.074  0.00  0.00    +0.000 A 
ATOM     10  C   UNL     1       2.045   5.874  19.984  0.00  0.00    +0.000 A 
ATOM     11  C   UNL     1       1.714   4.899  20.933  0.00  0.00    +0.000 A 
ATOM     12  C   UNL     1       2.384   3.660  20.957  0.00  0.00    +0.000 A 
ATOM     13  C   UNL     1       3.395   3.378  20.038  0.00  0.00    +0.000 A 
ATOM     14  C   UNL     1       3.703   4.359  19.114  0.00  0.00    +0.000 A 
ATOM     15  S   UNL     1       4.929   4.281  17.882  0.00  0.00    +0.000 S 
ATOM     16  O   UNL     1       4.549   3.302  16.895  0.00  0.00    +0.000 OA
ATOM     17  O   UNL     1       6.227   4.302  18.512  0.00  0.00    +0.000 OA
ENDBRANCH   5   6
ENDBRANCH   2   5
BRANCH   3  18
ATOM     18  C   UNL     1       8.153   8.289  17.834  0.00  0.00    +0.000 C 
BRANCH  18  19
ATOM     19  C   UNL     1       8.158   9.804  18.063  0.00  0.00    +0.000 C 
BRANCH  19  20
ATOM     20  S   UNL     1       9.416  10.256  19.320  0.00  0.00    +0.000 S 
BRANCH  20  21
ATOM     21  C   UNL     1       9.348  12.035  19.234  0.00  0.00    +0.000 A 
ATOM     22  C   UNL     1       9.316  12.828  20.386  0.00  0.00    +0.000 A 
ATOM     23  C   UNL     1       9.311  14.221  20.283  0.00  0.00    +0.000 A 
ATOM     24  C   UNL     1       9.346  14.829  19.030  0.00  0.00    +0.000 A 
ATOM     25  C   UNL     1       9.389  14.047  17.878  0.00  0.00    +0.000 A 
ATOM     26  C   UNL     1       9.394  12.654  17.980  0.00  0.00    +0.000 A 
ENDBRANCH  20  21
ENDBRANCH  19  20
ENDBRANCH  18  19
ENDBRANCH   3  18
TORSDOF 6
ENDMDL
MODEL 8
REMARK VINA RESULT:      -7.5      5.109      7.906
REMARK  Name = 
REMARK  6 active torsions:
REMARK  status: ('A' for Active; 'I' for Inactive)
REMARK    1  A    between atoms: C_2  and  C_3
REMARK    2  A    between atoms: C_3  and  N_4
REMARK    3  A    between atoms: N_16  and  C_17
REMARK    4  A    between atoms: C_17  and  C_18
REMARK    5  A    between atoms: C_18  and  S_19
REMARK    6  A    between atoms: S_19  and  C_20
REMARK                            x       y       z     vdW  Elec       q    Type
REMARK                         _______ _______ _______ _____ _____    ______ ____
ROOT
ATOM      1  O   UNL     1       0.969   4.317  20.425  0.00  0.00    +0.000 OA
ATOM      2  C   UNL     1       2.117   4.747  20.493  0.00  0.00    +0.000 C 
ATOM      3  N   UNL     1       2.402   6.084  20.661  0.00  0.00    +0.000 N 
ATOM      4  H   UNL     1       3.362   6.406  20.628  0.00  0.00    +0.000 HD
ENDROOT
BRANCH   2   5
ATOM      5  C   UNL     1       3.337   3.843  20.394  0.00  0.00    +0.000 C 
BRANCH   5   6
ATOM      6  N   UNL     1       4.064   4.061  19.148  0.00  0.00    +0.000 N 
ATOM      7  C   UNL     1       5.347   4.632  19.016  0.00  0.00    +0.000 C 
ATOM      8  O   UNL     1       6.020   5.085  19.920  0.00  0.00    +0.000 OA
ATOM      9  C   UNL     1       5.730   4.627  17.590  0.00  0.00    +0.000 A 
ATOM     10  C   UNL     1       6.912   5.115  17.056  0.00  0.00    +0.000 A 
ATOM     11  C   UNL     1       7.090   5.033  15.670  0.00  0.00    +0.000 A 
ATOM     12  C   UNL     1       6.096   4.468  14.847  0.00  0.00    +0.000 A 
ATOM     13  C   UNL     1       4.908   3.981  15.395  0.00  0.00    +0.000 A 
ATOM     14  C   UNL     1       4.757   4.078  16.767  0.00  0.00    +0.000 A 
ATOM     15  S   UNL     1       3.377   3.577  17.699  0.00  0.00    +0.000 S 
ATOM     16  O   UNL     1       3.278   2.140  17.668  0.00  0.00    +0.000 OA
ATOM     17  O   UNL     1       2.268   4.450  17.398  0.00  0.00    +0.000 OA
ENDBRANCH   5   6
ENDBRANCH   2   5
BRANCH   3  18
ATOM     18  C   UNL     1       1.372   7.103  20.792  0.00  0.00    +0.000 C 
BRANCH  18  19
ATOM     19  C   UNL     1       1.656   8.363  19.968  0.00  0.00    +0.000 C 
BRANCH  19  20
ATOM     20  S   UNL     1       0.994   9.847  20.820  0.00  0.00    +0.000 S 
BRANCH  20  21
ATOM     21  C   UNL     1      -0.284  10.341  19.681  0.00  0.00    +0.000 A 
ATOM     22  C   UNL     1      -1.194  11.358  19.991  0.00  0.00    +0.000 A 
ATOM     23  C   UNL     1      -2.155  11.754  19.057  0.00  0.00    +0.000 A 
ATOM     24  C   UNL     1      -2.207  11.141  17.806  0.00  0.00    +0.000 A 
ATOM     25  C   UNL     1      -1.297  10.136  17.486  0.00  0.00    +0.000 A 
ATOM     26  C   UNL     1      -0.336   9.740  18.419  0.00  0.00    +0.000 A 
ENDBRANCH  20  21
ENDBRANCH  19  20
ENDBRANCH  18  19
ENDBRANCH   3  18
TORSDOF 6
ENDMDL
MODEL 9
REMARK VINA RESULT:      -7.4      5.030      7.402
REMARK  Name = 
REMARK  6 active torsions:
REMARK  status: ('A' for Active; 'I' for Inactive)
REMARK    1  A    between atoms: C_2  and  C_3
REMARK    2  A    between atoms: C_3  and  N_4
REMARK    3  A    between atoms: N_16  and  C_17
REMARK    4  A    between atoms: C_17  and  C_18
REMARK    5  A    between atoms: C_18  and  S_19
REMARK    6  A    between atoms: S_19  and  C_20
REMARK                            x       y       z     vdW  Elec       q    Type
REMARK                         _______ _______ _______ _____ _____    ______ ____
ROOT
ATOM      1  O   UNL     1       8.233   4.398  18.296  0.00  0.00    +0.000 OA
ATOM      2  C   UNL     1       7.100   4.838  18.123  0.00  0.00    +0.000 C 
ATOM      3  N   UNL     1       6.559   5.029  16.871  0.00  0.00    +0.000 N 
ATOM      4  H   UNL     1       5.654   5.473  16.772  0.00  0.00    +0.000 HD
ENDROOT
BRANCH   2   5
ATOM      5  C   UNL     1       6.184   5.219  19.278  0.00  0.00    +0.000 C 
BRANCH   5   6
ATOM      6  N   UNL     1       4.866   4.609  19.137  0.00  0.00    +0.000 N 
ATOM      7  C   UNL     1       4.505   3.300  19.520  0.00  0.00    +0.000 C 
ATOM      8  O   UNL     1       5.255   2.459  19.972  0.00  0.00    +0.000 OA
ATOM      9  C   UNL     1       3.068   3.099  19.246  0.00  0.00    +0.000 A 
ATOM     10  C   UNL     1       2.343   1.940  19.473  0.00  0.00    +0.000 A 
ATOM     11  C   UNL     1       0.985   1.937  19.136  0.00  0.00    +0.000 A 
ATOM     12  C   UNL     1       0.377   3.082  18.584  0.00  0.00    +0.000 A 
ATOM     13  C   UNL     1       1.117   4.244  18.357  0.00  0.00    +0.000 A 
ATOM     14  C   UNL     1       2.457   4.217  18.697  0.00  0.00    +0.000 A 
ATOM     15  S   UNL     1       3.606   5.507  18.497  0.00  0.00    +0.000 S 
ATOM     16  O   UNL     1       3.275   6.583  19.397  0.00  0.00    +0.000 OA
ATOM     17  O   UNL     1       3.847   5.705  17.088  0.00  0.00    +0.000 OA
ENDBRANCH   5   6
ENDBRANCH   2   5
BRANCH   3  18
ATOM     18  C   UNL     1       7.272   4.710  15.644  0.00  0.00    +0.000 C 
BRANCH  18  19
ATOM     19  C   UNL     1       6.519   5.132  14.378  0.00  0.00    +0.000 C 
BRANCH  19  20
ATOM     20  S   UNL     1       7.602   4.970  12.906  0.00  0.00    +0.000 S 
BRANCH  20  21
ATOM     21  C   UNL     1       6.863   3.561  12.102  0.00  0.00    +0.000 A 
ATOM     22  C   UNL     1       7.638   2.546  11.533  0.00  0.00    +0.000 A 
ATOM     23  C   UNL     1       7.027   1.432  10.952  0.00  0.00    +0.000 A 
ATOM     24  C   UNL     1       5.638   1.322  10.945  0.00  0.00    +0.000 A 
ATOM     25  C   UNL     1       4.858   2.323  11.520  0.00  0.00    +0.000 A 
ATOM     26  C   UNL     1       5.469   3.437  12.101  0.00  0.00    +0.000 A 
ENDBRANCH  20  21
ENDBRANCH  19  20
ENDBRANCH  18  19
ENDBRANCH   3  18
TORSDOF 6
ENDMDL
