MODEL 1
REMARK VINA RESULT:      -7.0      0.000      0.000
REMARK  Name = 
REMARK  3 active torsions:
REMARK  status: ('A' for Active; 'I' for Inactive)
REMARK    1  A    between atoms: C_1  and  C_2
REMARK    2  A    between atoms: C_6  and  C_7
REMARK    3  A    between atoms: C_8  and  N_9
REMARK                            x       y       z     vdW  Elec       q    Type
REMARK                         _______ _______ _______ _____ _____    ______ ____
ROOT
ATOM      1  N   UNL     1       2.634   6.781  18.395  0.00  0.00    +0.000 N 
ATOM      2  C   UNL     1       1.909   6.647  19.668  0.00  0.00    +0.000 C 
ATOM      3  C   UNL     1       1.858   8.004  20.424  0.00  0.00    +0.000 C 
ATOM      4  N   UNL     1       1.468   9.127  19.552  0.00  0.00    +0.000 N 
ATOM      5  C   UNL     1       0.474  10.017  19.867  0.00  0.00    +0.000 A 
ATOM      6  C   UNL     1       0.245  10.396  21.168  0.00  0.00    +0.000 A 
ATOM      7  C   UNL     1      -0.767  11.304  21.361  0.00  0.00    +0.000 A 
ATOM      8 CL   UNL     1      -1.117  11.891  22.935  0.00  0.00    +0.000 Cl
ATOM      9  N   UNL     1      -1.541  11.811  20.398  0.00  0.00    +0.000 NA
ATOM     10  C   UNL     1      -1.260  11.371  19.175  0.00  0.00    +0.000 A 
ATOM     11  N   UNL     1      -2.033  11.854  18.139  0.00  0.00    +0.000 N 
ATOM     12  N   UNL     1      -0.270  10.528  18.870  0.00  0.00    +0.000 NA
ATOM     13  C   UNL     1       2.110   9.171  18.225  0.00  0.00    +0.000 C 
ATOM     14  C   UNL     1       2.005   7.801  17.522  0.00  0.00    +0.000 C 
ATOM     15  H   UNL     1      -2.444  12.740  18.395  0.00  0.00    +0.000 HD
ATOM     16  H   UNL     1      -1.520  11.806  17.270  0.00  0.00    +0.000 HD
ENDROOT
BRANCH   1  24
ATOM     17  C   UNL     1       1.428   4.150  17.898  0.00  0.00    +0.000 C 
ATOM     18  C   UNL     1       2.877   4.485  17.624  0.00  0.00    +0.000 A 
ATOM     19  C   UNL     1       3.656   3.438  17.095  0.00  0.00    +0.000 A 
ATOM     20  C   UNL     1       4.958   3.659  16.686  0.00  0.00    +0.000 A 
ATOM     21  C   UNL     1       5.496   4.931  16.807  0.00  0.00    +0.000 A 
ATOM     22  C   UNL     1       4.762   5.997  17.377  0.00  0.00    +0.000 A 
ATOM     23  C   UNL     1       5.504   7.306  17.473  0.00  0.00    +0.000 C 
ATOM     24  C   UNL     1       3.427   5.792  17.823  0.00  0.00    +0.000 A 
ENDBRANCH   1  24
TORSDOF 1
ENDMDL
MODEL 2
REMARK VINA RESULT:      -6.9      0.166      1.873
REMARK  Name = 
REMARK  3 active torsions:
REMARK  status: ('A' for Active; 'I' for Inactive)
REMARK    1  A    between atoms: C_1  and  C_2
REMARK    2  A    between atoms: C_6  and  C_7
REMARK    3  A    between atoms: C_8  and  N_9
REMARK                            x       y       z     vdW  Elec       q    Type
REMARK                         _______ _______ _______ _____ _____    ______ ____
ROOT
ATOM      1  N   UNL     1       2.496   6.781  18.421  0.00  0.00    +0.000 N 
ATOM      2  C   UNL     1       1.829   6.714  19.730  0.00  0.00    +0.000 C 
ATOM      3  C   UNL     1       1.826   8.104  20.425  0.00  0.00    +0.000 C 
ATOM      4  N   UNL     1       1.408   9.191  19.522  0.00  0.00    +0.000 N 
ATOM      5  C   UNL     1       0.438  10.106  19.841  0.00  0.00    +0.000 A 
ATOM      6  C   UNL     1       0.274  10.546  21.132  0.00  0.00    +0.000 A 
ATOM      7  C   UNL     1      -0.719  11.474  21.330  0.00  0.00    +0.000 A 
ATOM      8 CL   UNL     1      -0.990  12.136  22.890  0.00  0.00    +0.000 Cl
ATOM      9  N   UNL     1      -1.532  11.946  20.381  0.00  0.00    +0.000 NA
ATOM     10  C   UNL     1      -1.313  11.448  19.169  0.00  0.00    +0.000 A 
ATOM     11  N   UNL     1      -2.128  11.893  18.148  0.00  0.00    +0.000 N 
ATOM     12  N   UNL     1      -0.345  10.580  18.857  0.00  0.00    +0.000 NA
ATOM     13  C   UNL     1       1.989   9.168  18.166  0.00  0.00    +0.000 C 
ATOM     14  C   UNL     1       1.837   7.768  17.532  0.00  0.00    +0.000 C 
ATOM     15  H   UNL     1      -2.517  12.795  18.382  0.00  0.00    +0.000 HD
ATOM     16  H   UNL     1      -1.656  11.800  17.259  0.00  0.00    +0.000 HD
ENDROOT
BRANCH   1  24
ATOM     17  C   UNL     1       5.279   7.356  17.678  0.00  0.00    +0.000 C 
ATOM     18  C   UNL     1       4.592   6.031  17.436  0.00  0.00    +0.000 A 
ATOM     19  C   UNL     1       5.378   5.040  16.817  0.00  0.00    +0.000 A 
ATOM     20  C   UNL     1       4.903   3.752  16.659  0.00  0.00    +0.000 A 
ATOM     21  C   UNL     1       3.631   3.442  17.117  0.00  0.00    +0.000 A 
ATOM     22  C   UNL     1       2.793   4.420  17.701  0.00  0.00    +0.000 A 
ATOM     23  C   UNL     1       1.427   3.931  18.110  0.00  0.00    +0.000 C 
ATOM     24  C   UNL     1       3.251   5.758  17.859  0.00  0.00    +0.000 A 
ENDBRANCH   1  24
TORSDOF 1
ENDMDL
MODEL 3
REMARK VINA RESULT:      -6.9      1.543      2.538
REMARK  Name = 
REMARK  3 active torsions:
REMARK  status: ('A' for Active; 'I' for Inactive)
REMARK    1  A    between atoms: C_1  and  C_2
REMARK    2  A    between atoms: C_6  and  C_7
REMARK    3  A    between atoms: C_8  and  N_9
REMARK                            x       y       z     vdW  Elec       q    Type
REMARK                         _______ _______ _______ _____ _____    ______ ____
ROOT
ATOM      1  N   UNL     1       2.244   5.669  19.431  0.00  0.00    +0.000 N 
ATOM      2  C   UNL     1       1.515   6.089  20.638  0.00  0.00    +0.000 C 
ATOM      3  C   UNL     1       1.771   7.590  20.949  0.00  0.00    +0.000 C 
ATOM      4  N   UNL     1       1.635   8.449  19.759  0.00  0.00    +0.000 N 
ATOM      5  C   UNL     1       0.865   9.583  19.730  0.00  0.00    +0.000 A 
ATOM      6  C   UNL     1       0.734  10.381  20.841  0.00  0.00    +0.000 A 
ATOM      7  C   UNL     1      -0.049  11.499  20.690  0.00  0.00    +0.000 A 
ATOM      8 CL   UNL     1      -0.251  12.599  21.991  0.00  0.00    +0.000 Cl
ATOM      9  N   UNL     1      -0.698  11.839  19.574  0.00  0.00    +0.000 NA
ATOM     10  C   UNL     1      -0.530  10.997  18.559  0.00  0.00    +0.000 A 
ATOM     11  N   UNL     1      -1.183  11.294  17.380  0.00  0.00    +0.000 N 
ATOM     12  N   UNL     1       0.247   9.910  18.582  0.00  0.00    +0.000 NA
ATOM     13  C   UNL     1       2.263   7.947  18.521  0.00  0.00    +0.000 C 
ATOM     14  C   UNL     1       1.851   6.483  18.256  0.00  0.00    +0.000 C 
ATOM     15  H   UNL     1      -1.385  12.282  17.332  0.00  0.00    +0.000 HD
ATOM     16  H   UNL     1      -0.698  10.875  16.598  0.00  0.00    +0.000 HD
ENDROOT
BRANCH   1  24
ATOM     17  C   UNL     1       5.168   5.433  19.305  0.00  0.00    +0.000 C 
ATOM     18  C   UNL     1       4.213   4.276  19.110  0.00  0.00    +0.000 A 
ATOM     19  C   UNL     1       4.812   3.026  18.858  0.00  0.00    +0.000 A 
ATOM     20  C   UNL     1       4.050   1.876  18.788  0.00  0.00    +0.000 A 
ATOM     21  C   UNL     1       2.678   1.964  18.966  0.00  0.00    +0.000 A 
ATOM     22  C   UNL     1       2.034   3.206  19.174  0.00  0.00    +0.000 A 
ATOM     23  C   UNL     1       0.534   3.134  19.310  0.00  0.00    +0.000 C 
ATOM     24  C   UNL     1       2.793   4.408  19.232  0.00  0.00    +0.000 A 
ENDBRANCH   1  24
TORSDOF 1
ENDMDL
MODEL 4
REMARK VINA RESULT:      -6.8      1.708      1.822
REMARK  Name = 
REMARK  3 active torsions:
REMARK  status: ('A' for Active; 'I' for Inactive)
REMARK    1  A    between atoms: C_1  and  C_2
REMARK    2  A    between atoms: C_6  and  C_7
REMARK    3  A    between atoms: C_8  and  N_9
REMARK                            x       y       z     vdW  Elec       q    Type
REMARK                         _______ _______ _______ _____ _____    ______ ____
ROOT
ATOM      1  N   UNL     1       2.351   6.158  19.644  0.00  0.00    +0.000 N 
ATOM      2  C   UNL     1       1.580   6.657  20.793  0.00  0.00    +0.000 C 
ATOM      3  C   UNL     1       1.659   8.206  20.885  0.00  0.00    +0.000 C 
ATOM      4  N   UNL     1       1.420   8.866  19.589  0.00  0.00    +0.000 N 
ATOM      5  C   UNL     1       0.522   9.888  19.416  0.00  0.00    +0.000 A 
ATOM      6  C   UNL     1       0.301  10.814  20.406  0.00  0.00    +0.000 A 
ATOM      7  C   UNL     1      -0.609  11.801  20.114  0.00  0.00    +0.000 A 
ATOM      8 CL   UNL     1      -0.936  13.043  21.251  0.00  0.00    +0.000 Cl
ATOM      9  N   UNL     1      -1.295  11.902  18.973  0.00  0.00    +0.000 NA
ATOM     10  C   UNL     1      -1.031  10.950  18.084  0.00  0.00    +0.000 A 
ATOM     11  N   UNL     1      -1.717  10.998  16.887  0.00  0.00    +0.000 N 
ATOM     12  N   UNL     1      -0.132   9.975  18.244  0.00  0.00    +0.000 NA
ATOM     13  C   UNL     1       2.100   8.270  18.423  0.00  0.00    +0.000 C 
ATOM     14  C   UNL     1       1.863   6.746  18.374  0.00  0.00    +0.000 C 
ATOM     15  H   UNL     1      -2.034  11.940  16.705  0.00  0.00    +0.000 HD
ATOM     16  H   UNL     1      -1.188  10.532  16.163  0.00  0.00    +0.000 HD
ENDROOT
BRANCH   1  24
ATOM     17  C   UNL     1       0.873   3.689  20.233  0.00  0.00    +0.000 C 
ATOM     18  C   UNL     1       2.358   3.743  19.953  0.00  0.00    +0.000 A 
ATOM     19  C   UNL     1       3.031   2.506  19.985  0.00  0.00    +0.000 A 
ATOM     20  C   UNL     1       4.361   2.412  19.622  0.00  0.00    +0.000 A 
ATOM     21  C   UNL     1       5.035   3.558  19.227  0.00  0.00    +0.000 A 
ATOM     22  C   UNL     1       4.408   4.826  19.227  0.00  0.00    +0.000 A 
ATOM     23  C   UNL     1       5.289   5.975  18.808  0.00  0.00    +0.000 C 
ATOM     24  C   UNL     1       3.045   4.953  19.614  0.00  0.00    +0.000 A 
ENDBRANCH   1  24
TORSDOF 1
ENDMDL
MODEL 5
REMARK VINA RESULT:      -6.6      3.117      7.765
REMARK  Name = 
REMARK  3 active torsions:
REMARK  status: ('A' for Active; 'I' for Inactive)
REMARK    1  A    between atoms: C_1  and  C_2
REMARK    2  A    between atoms: C_6  and  C_7
REMARK    3  A    between atoms: C_8  and  N_9
REMARK                            x       y       z     vdW  Elec       q    Type
REMARK                         _______ _______ _______ _____ _____    ______ ____
ROOT
ATOM      1  N   UNL     1       0.281   9.815  19.477  0.00  0.00    +0.000 N 
ATOM      2  C   UNL     1       0.832   9.208  18.255  0.00  0.00    +0.000 C 
ATOM      3  C   UNL     1       2.180   8.492  18.549  0.00  0.00    +0.000 C 
ATOM      4  N   UNL     1       2.121   7.637  19.747  0.00  0.00    +0.000 N 
ATOM      5  C   UNL     1       2.534   6.329  19.762  0.00  0.00    +0.000 A 
ATOM      6  C   UNL     1       3.597   5.912  18.999  0.00  0.00    +0.000 A 
ATOM      7  C   UNL     1       3.930   4.583  19.107  0.00  0.00    +0.000 A 
ATOM      8 CL   UNL     1       5.270   3.952  18.241  0.00  0.00    +0.000 Cl
ATOM      9  N   UNL     1       3.289   3.688  19.861  0.00  0.00    +0.000 NA
ATOM     10  C   UNL     1       2.261   4.178  20.546  0.00  0.00    +0.000 A 
ATOM     11  N   UNL     1       1.555   3.296  21.340  0.00  0.00    +0.000 N 
ATOM     12  N   UNL     1       1.882   5.459  20.554  0.00  0.00    +0.000 NA
ATOM     13  C   UNL     1       1.447   8.215  20.925  0.00  0.00    +0.000 C 
ATOM     14  C   UNL     1       0.072   8.798  20.535  0.00  0.00    +0.000 C 
ATOM     15  H   UNL     1       2.133   2.504  21.580  0.00  0.00    +0.000 HD
ATOM     16  H   UNL     1       1.100   3.793  22.092  0.00  0.00    +0.000 HD
ENDROOT
BRANCH   1  24
ATOM     17  C   UNL     1       1.520  12.159  20.740  0.00  0.00    +0.000 C 
ATOM     18  C   UNL     1       0.115  12.139  20.180  0.00  0.00    +0.000 A 
ATOM     19  C   UNL     1      -0.604  13.346  20.292  0.00  0.00    +0.000 A 
ATOM     20  C   UNL     1      -1.847  13.488  19.705  0.00  0.00    +0.000 A 
ATOM     21  C   UNL     1      -2.388  12.420  19.004  0.00  0.00    +0.000 A 
ATOM     22  C   UNL     1      -1.719  11.178  18.910  0.00  0.00    +0.000 A 
ATOM     23  C   UNL     1      -2.458  10.109  18.146  0.00  0.00    +0.000 C 
ATOM     24  C   UNL     1      -0.446  11.000  19.519  0.00  0.00    +0.000 A 
ENDBRANCH   1  24
TORSDOF 1
ENDMDL
MODEL 6
REMARK VINA RESULT:      -6.5      5.878      8.678
REMARK  Name = 
REMARK  3 active torsions:
REMARK  status: ('A' for Active; 'I' for Inactive)
REMARK    1  A    between atoms: C_1  and  C_2
REMARK    2  A    between atoms: C_6  and  C_7
REMARK    3  A    between atoms: C_8  and  N_9
REMARK                            x       y       z     vdW  Elec       q    Type
REMARK                         _______ _______ _______ _____ _____    ______ ____
ROOT
ATOM      1  N   UNL     1       3.878   3.901  18.081  0.00  0.00    +0.000 N 
ATOM      2  C   UNL     1       4.341   5.218  17.617  0.00  0.00    +0.000 C 
ATOM      3  C   UNL     1       5.742   5.113  16.954  0.00  0.00    +0.000 C 
ATOM      4  N   UNL     1       5.835   4.000  15.993  0.00  0.00    +0.000 N 
ATOM      5  C   UNL     1       6.309   4.144  14.714  0.00  0.00    +0.000 A 
ATOM      6  C   UNL     1       7.316   5.033  14.426  0.00  0.00    +0.000 A 
ATOM      7  C   UNL     1       7.719   5.080  13.113  0.00  0.00    +0.000 A 
ATOM      8 CL   UNL     1       9.001   6.116  12.637  0.00  0.00    +0.000 Cl
ATOM      9  N   UNL     1       7.194   4.358  12.120  0.00  0.00    +0.000 NA
ATOM     10  C   UNL     1       6.212   3.543  12.490  0.00  0.00    +0.000 A 
ATOM     11  N   UNL     1       5.625   2.776  11.504  0.00  0.00    +0.000 N 
ATOM     12  N   UNL     1       5.776   3.382  13.743  0.00  0.00    +0.000 NA
ATOM     13  C   UNL     1       5.247   2.718  16.426  0.00  0.00    +0.000 C 
ATOM     14  C   UNL     1       3.816   2.929  16.964  0.00  0.00    +0.000 C 
ATOM     15  H   UNL     1       6.260   2.662  10.727  0.00  0.00    +0.000 HD
ATOM     16  H   UNL     1       5.219   1.943  11.905  0.00  0.00    +0.000 HD
ENDROOT
BRANCH   1  24
ATOM     17  C   UNL     1       1.235   5.173  18.222  0.00  0.00    +0.000 C 
ATOM     18  C   UNL     1       1.836   4.340  19.331  0.00  0.00    +0.000 A 
ATOM     19  C   UNL     1       1.039   4.191  20.483  0.00  0.00    +0.000 A 
ATOM     20  C   UNL     1       1.425   3.350  21.510  0.00  0.00    +0.000 A 
ATOM     21  C   UNL     1       2.618   2.652  21.396  0.00  0.00    +0.000 A 
ATOM     22  C   UNL     1       3.469   2.811  20.278  0.00  0.00    +0.000 A 
ATOM     23  C   UNL     1       4.746   2.012  20.326  0.00  0.00    +0.000 C 
ATOM     24  C   UNL     1       3.103   3.684  19.215  0.00  0.00    +0.000 A 
ENDBRANCH   1  24
TORSDOF 1
ENDMDL
MODEL 7
REMARK VINA RESULT:      -6.5      2.942      7.701
REMARK  Name = 
REMARK  3 active torsions:
REMARK  status: ('A' for Active; 'I' for Inactive)
REMARK    1  A    between atoms: C_1  and  C_2
REMARK    2  A    between atoms: C_6  and  C_7
REMARK    3  A    between atoms: C_8  and  N_9
REMARK                            x       y       z     vdW  Elec       q    Type
REMARK                         _______ _______ _______ _____ _____    ______ ____
ROOT
ATOM      1  N   UNL     1       0.785  10.021  19.352  0.00  0.00    +0.000 N 
ATOM      2  C   UNL     1       1.326   9.192  20.441  0.00  0.00    +0.000 C 
ATOM      3  C   UNL     1       1.522   7.722  19.976  0.00  0.00    +0.000 C 
ATOM      4  N   UNL     1       2.194   7.623  18.668  0.00  0.00    +0.000 N 
ATOM      5  C   UNL     1       3.283   6.822  18.438  0.00  0.00    +0.000 A 
ATOM      6  C   UNL     1       3.423   5.613  19.075  0.00  0.00    +0.000 A 
ATOM      7  C   UNL     1       4.546   4.891  18.754  0.00  0.00    +0.000 A 
ATOM      8 CL   UNL     1       4.809   3.343  19.447  0.00  0.00    +0.000 Cl
ATOM      9  N   UNL     1       5.500   5.286  17.907  0.00  0.00    +0.000 NA
ATOM     10  C   UNL     1       5.290   6.477  17.356  0.00  0.00    +0.000 A 
ATOM     11  N   UNL     1       6.247   6.942  16.477  0.00  0.00    +0.000 N 
ATOM     12  N   UNL     1       4.211   7.239  17.559  0.00  0.00    +0.000 NA
ATOM     13  C   UNL     1       1.724   8.555  17.625  0.00  0.00    +0.000 C 
ATOM     14  C   UNL     1       1.674   9.999  18.167  0.00  0.00    +0.000 C 
ATOM     15  H   UNL     1       6.771   6.169  16.092  0.00  0.00    +0.000 HD
ATOM     16  H   UNL     1       5.835   7.601  15.830  0.00  0.00    +0.000 HD
ENDROOT
BRANCH   1  24
ATOM     17  C   UNL     1       1.780  12.445  20.679  0.00  0.00    +0.000 C 
ATOM     18  C   UNL     1       0.352  12.254  20.219  0.00  0.00    +0.000 A 
ATOM     19  C   UNL     1      -0.517  13.336  20.461  0.00  0.00    +0.000 A 
ATOM     20  C   UNL     1      -1.810  13.330  19.974  0.00  0.00    +0.000 A 
ATOM     21  C   UNL     1      -2.250  12.237  19.242  0.00  0.00    +0.000 A 
ATOM     22  C   UNL     1      -1.424  11.112  19.019  0.00  0.00    +0.000 A 
ATOM     23  C   UNL     1      -2.065   9.992  18.239  0.00  0.00    +0.000 C 
ATOM     24  C   UNL     1      -0.094  11.084  19.524  0.00  0.00    +0.000 A 
ENDBRANCH   1  24
TORSDOF 1
ENDMDL
MODEL 8
REMARK VINA RESULT:      -6.5      2.954      7.523
REMARK  Name = 
REMARK  3 active torsions:
REMARK  status: ('A' for Active; 'I' for Inactive)
REMARK    1  A    between atoms: C_1  and  C_2
REMARK    2  A    between atoms: C_6  and  C_7
REMARK    3  A    between atoms: C_8  and  N_9
REMARK                            x       y       z     vdW  Elec       q    Type
REMARK                         _______ _______ _______ _____ _____    ______ ____
ROOT
ATOM      1  N   UNL     1       0.930  10.190  19.350  0.00  0.00    +0.000 N 
ATOM      2  C   UNL     1       1.456   9.353  20.439  0.00  0.00    +0.000 C 
ATOM      3  C   UNL     1       1.575   7.869  19.991  0.00  0.00    +0.000 C 
ATOM      4  N   UNL     1       2.216   7.723  18.672  0.00  0.00    +0.000 N 
ATOM      5  C   UNL     1       3.263   6.871  18.431  0.00  0.00    +0.000 A 
ATOM      6  C   UNL     1       3.361   5.665  19.082  0.00  0.00    +0.000 A 
ATOM      7  C   UNL     1       4.444   4.888  18.749  0.00  0.00    +0.000 A 
ATOM      8 CL   UNL     1       4.652   3.339  19.459  0.00  0.00    +0.000 Cl
ATOM      9  N   UNL     1       5.397   5.229  17.879  0.00  0.00    +0.000 NA
ATOM     10  C   UNL     1       5.230   6.421  17.315  0.00  0.00    +0.000 A 
ATOM     11  N   UNL     1       6.189   6.830  16.411  0.00  0.00    +0.000 N 
ATOM     12  N   UNL     1       4.191   7.234  17.528  0.00  0.00    +0.000 NA
ATOM     13  C   UNL     1       1.768   8.661  17.625  0.00  0.00    +0.000 C 
ATOM     14  C   UNL     1       1.793  10.113  18.147  0.00  0.00    +0.000 C 
ATOM     15  H   UNL     1       6.670   6.030  16.027  0.00  0.00    +0.000 HD
ATOM     16  H   UNL     1       5.795   7.498  15.764  0.00  0.00    +0.000 HD
ENDROOT
BRANCH   1  24
ATOM     17  C   UNL     1      -1.870   9.979  18.489  0.00  0.00    +0.000 C 
ATOM     18  C   UNL     1      -1.249  11.234  19.060  0.00  0.00    +0.000 A 
ATOM     19  C   UNL     1      -2.110  12.344  19.169  0.00  0.00    +0.000 A 
ATOM     20  C   UNL     1      -1.693  13.506  19.791  0.00  0.00    +0.000 A 
ATOM     21  C   UNL     1      -0.408  13.571  20.307  0.00  0.00    +0.000 A 
ATOM     22  C   UNL     1       0.501  12.496  20.176  0.00  0.00    +0.000 A 
ATOM     23  C   UNL     1       1.871  12.740  20.756  0.00  0.00    +0.000 C 
ATOM     24  C   UNL     1       0.103  11.295  19.524  0.00  0.00    +0.000 A 
ENDBRANCH   1  24
TORSDOF 1
ENDMDL
MODEL 9
REMARK VINA RESULT:      -6.4      1.744      3.254
REMARK  Name = 
REMARK  3 active torsions:
REMARK  status: ('A' for Active; 'I' for Inactive)
REMARK    1  A    between atoms: C_1  and  C_2
REMARK    2  A    between atoms: C_6  and  C_7
REMARK    3  A    between atoms: C_8  and  N_9
REMARK                            x       y       z     vdW  Elec       q    Type
REMARK                         _______ _______ _______ _____ _____    ______ ____
ROOT
ATOM      1  N   UNL     1       3.957   6.559  17.840  0.00  0.00    +0.000 N 
ATOM      2  C   UNL     1       3.697   7.957  17.461  0.00  0.00    +0.000 C 
ATOM      3  C   UNL     1       2.223   8.348  17.759  0.00  0.00    +0.000 C 
ATOM      4  N   UNL     1       1.784   7.931  19.102  0.00  0.00    +0.000 N 
ATOM      5  C   UNL     1       1.173   8.777  19.993  0.00  0.00    +0.000 A 
ATOM      6  C   UNL     1       0.327   9.770  19.564  0.00  0.00    +0.000 A 
ATOM      7  C   UNL     1      -0.240  10.545  20.546  0.00  0.00    +0.000 A 
ATOM      8 CL   UNL     1      -1.351  11.787  20.139  0.00  0.00    +0.000 Cl
ATOM      9  N   UNL     1      -0.007  10.418  21.855  0.00  0.00    +0.000 NA
ATOM     10  C   UNL     1       0.840   9.446  22.175  0.00  0.00    +0.000 A 
ATOM     11  N   UNL     1       1.125   9.273  23.514  0.00  0.00    +0.000 N 
ATOM     12  N   UNL     1       1.408   8.604  21.306  0.00  0.00    +0.000 NA
ATOM     13  C   UNL     1       2.168   6.569  19.517  0.00  0.00    +0.000 C 
ATOM     14  C   UNL     1       3.674   6.330  19.276  0.00  0.00    +0.000 C 
ATOM     15  H   UNL     1       0.378   9.648  24.080  0.00  0.00    +0.000 HD
ATOM     16  H   UNL     1       1.415   8.321  23.688  0.00  0.00    +0.000 HD
ENDROOT
BRANCH   1  24
ATOM     17  C   UNL     1       6.730   7.436  17.431  0.00  0.00    +0.000 C 
ATOM     18  C   UNL     1       6.166   6.132  16.912  0.00  0.00    +0.000 A 
ATOM     19  C   UNL     1       7.068   5.320  16.196  0.00  0.00    +0.000 A 
ATOM     20  C   UNL     1       6.705   4.052  15.782  0.00  0.00    +0.000 A 
ATOM     21  C   UNL     1       5.434   3.584  16.077  0.00  0.00    +0.000 A 
ATOM     22  C   UNL     1       4.485   4.387  16.752  0.00  0.00    +0.000 A 
ATOM     23  C   UNL     1       3.136   3.745  16.961  0.00  0.00    +0.000 C 
ATOM     24  C   UNL     1       4.826   5.702  17.173  0.00  0.00    +0.000 A 
ENDBRANCH   1  24
TORSDOF 1
ENDMDL
