MODEL 1
REMARK VINA RESULT:      -7.7      0.000      0.000
REMARK  Name = 
REMARK  8 active torsions:
REMARK  status: ('A' for Active; 'I' for Inactive)
REMARK    1  A    between atoms: C_1  and  C_2
REMARK    2  A    between atoms: C_2  and  O_3
REMARK    3  A    between atoms: O_3  and  C_4
REMARK    4  A    between atoms: C_4  and  C_6
REMARK    5  A    between atoms: C_8  and  C_9
REMARK    6  A    between atoms: C_10  and  C_11
REMARK    7  A    between atoms: C_14  and  N_15
REMARK    8  A    between atoms: N_18  and  C_19
REMARK                            x       y       z     vdW  Elec       q    Type
REMARK                         _______ _______ _______ _____ _____    ______ ____
ROOT
ATOM      1  C   UNL     1       2.662   7.776  18.206  0.00  0.00    +0.000 A 
ATOM      2  C   UNL     1       2.062   8.960  17.767  0.00  0.00    +0.000 A 
ATOM      3  C   UNL     1       1.203   9.675  18.605  0.00  0.00    +0.000 A 
ATOM      4  C   UNL     1       0.890   9.233  19.893  0.00  0.00    +0.000 A 
ATOM      5  C   UNL     1       1.501   8.042  20.321  0.00  0.00    +0.000 A 
ATOM      6  C   UNL     1       2.367   7.320  19.489  0.00  0.00    +0.000 A 
ENDROOT
BRANCH   4   7
ATOM      7  N   UNL     1      -0.038   9.903  20.662  0.00  0.00    +0.000 N 
ATOM      8  C   UNL     1      -0.935  10.916  20.092  0.00  0.00    +0.000 C 
ATOM      9  C   UNL     1      -1.099  12.083  21.094  0.00  0.00    +0.000 C 
ATOM     10  N   UNL     1      -1.563  11.632  22.425  0.00  0.00    +0.000 NA
ATOM     11  C   UNL     1      -1.671  12.766  23.338  0.00  0.00    +0.000 C 
ATOM     12  C   UNL     1      -0.613  10.624  22.951  0.00  0.00    +0.000 C 
ATOM     13  C   UNL     1      -0.437   9.422  21.994  0.00  0.00    +0.000 C 
ENDBRANCH   4   7
BRANCH   1  15
ATOM     14  C   UNL     1       4.855   6.882  17.528  0.00  0.00    +0.000 C 
ATOM     15  C   UNL     1       3.531   6.984  17.334  0.00  0.00    +0.000 C 
BRANCH  14  18
ATOM     16  C   UNL     1       6.565   5.044  14.913  0.00  0.00    +0.000 A 
ATOM     17  C   UNL     1       5.475   5.855  15.310  0.00  0.00    +0.000 A 
ATOM     18  C   UNL     1       5.668   6.125  16.652  0.00  0.00    +0.000 A 
ATOM     19  O   UNL     1       6.834   5.498  17.019  0.00  0.00    +0.000 OA
ATOM     20  N   UNL     1       7.391   4.837  15.951  0.00  0.00    +0.000 NA
BRANCH  16  21
ATOM     21  C   UNL     1       6.784   4.433  13.609  0.00  0.00    +0.000 C 
ATOM     22  O   UNL     1       7.646   4.820  12.829  0.00  0.00    +0.000 OA
BRANCH  21  23
ATOM     23  O   UNL     1       5.860   3.469  13.328  0.00  0.00    +0.000 OA
BRANCH  23  25
ATOM     24  C   UNL     1       4.361   3.206  11.491  0.00  0.00    +0.000 C 
ATOM     25  C   UNL     1       5.797   3.050  11.963  0.00  0.00    +0.000 C 
ENDBRANCH  23  25
ENDBRANCH  21  23
ENDBRANCH  16  21
ENDBRANCH  14  18
ENDBRANCH   1  15
TORSDOF 6
ENDMDL
MODEL 2
REMARK VINA RESULT:      -7.7      6.649      9.065
REMARK  Name = 
REMARK  8 active torsions:
REMARK  status: ('A' for Active; 'I' for Inactive)
REMARK    1  A    between atoms: C_1  and  C_2
REMARK    2  A    between atoms: C_2  and  O_3
REMARK    3  A    between atoms: O_3  and  C_4
REMARK    4  A    between atoms: C_4  and  C_6
REMARK    5  A    between atoms: C_8  and  C_9
REMARK    6  A    between atoms: C_10  and  C_11
REMARK    7  A    between atoms: C_14  and  N_15
REMARK    8  A    between atoms: N_18  and  C_19
REMARK                            x       y       z     vdW  Elec       q    Type
REMARK                         _______ _______ _______ _____ _____    ______ ____
ROOT
ATOM      1  C   UNL     1       7.543   7.503  17.883  0.00  0.00    +0.000 A 
ATOM      2  C   UNL     1       7.821   6.397  18.692  0.00  0.00    +0.000 A 
ATOM      3  C   UNL     1       6.938   5.317  18.748  0.00  0.00    +0.000 A 
ATOM      4  C   UNL     1       5.741   5.303  18.026  0.00  0.00    +0.000 A 
ATOM      5  C   UNL     1       5.476   6.421  17.216  0.00  0.00    +0.000 A 
ATOM      6  C   UNL     1       6.358   7.508  17.151  0.00  0.00    +0.000 A 
ENDROOT
BRANCH   4   7
ATOM      7  N   UNL     1       4.840   4.270  18.176  0.00  0.00    +0.000 N 
ATOM      8  C   UNL     1       4.245   3.583  17.023  0.00  0.00    +0.000 C 
ATOM      9  C   UNL     1       2.759   3.272  17.317  0.00  0.00    +0.000 C 
ATOM     10  N   UNL     1       2.573   2.501  18.567  0.00  0.00    +0.000 NA
ATOM     11  C   UNL     1       1.154   2.263  18.812  0.00  0.00    +0.000 C 
ATOM     12  C   UNL     1       3.180   3.251  19.691  0.00  0.00    +0.000 C 
ATOM     13  C   UNL     1       4.677   3.560  19.454  0.00  0.00    +0.000 C 
ENDBRANCH   4   7
BRANCH   1  15
ATOM     14  C   UNL     1       8.681   9.428  18.918  0.00  0.00    +0.000 C 
ATOM     15  C   UNL     1       8.430   8.668  17.841  0.00  0.00    +0.000 C 
BRANCH  14  18
ATOM     16  C   UNL     1      10.628  12.406  18.223  0.00  0.00    +0.000 A 
ATOM     17  C   UNL     1       9.624  11.492  17.820  0.00  0.00    +0.000 A 
ATOM     18  C   UNL     1       9.525  10.560  18.835  0.00  0.00    +0.000 A 
ATOM     19  O   UNL     1      10.437  10.923  19.797  0.00  0.00    +0.000 OA
ATOM     20  N   UNL     1      11.112  12.061  19.426  0.00  0.00    +0.000 NA
BRANCH  16  21
ATOM     21  C   UNL     1      11.156  13.532  17.464  0.00  0.00    +0.000 C 
ATOM     22  O   UNL     1      11.864  13.392  16.474  0.00  0.00    +0.000 OA
BRANCH  21  23
ATOM     23  O   UNL     1      10.859  14.731  18.042  0.00  0.00    +0.000 OA
BRANCH  23  25
ATOM     24  C   UNL     1       9.162  15.663  19.435  0.00  0.00    +0.000 C 
ATOM     25  C   UNL     1       9.473  15.080  18.067  0.00  0.00    +0.000 C 
ENDBRANCH  23  25
ENDBRANCH  21  23
ENDBRANCH  16  21
ENDBRANCH  14  18
ENDBRANCH   1  15
TORSDOF 6
ENDMDL
MODEL 3
REMARK VINA RESULT:      -7.6      7.219      8.862
REMARK  Name = 
REMARK  8 active torsions:
REMARK  status: ('A' for Active; 'I' for Inactive)
REMARK    1  A    between atoms: C_1  and  C_2
REMARK    2  A    between atoms: C_2  and  O_3
REMARK    3  A    between atoms: O_3  and  C_4
REMARK    4  A    between atoms: C_4  and  C_6
REMARK    5  A    between atoms: C_8  and  C_9
REMARK    6  A    between atoms: C_10  and  C_11
REMARK    7  A    between atoms: C_14  and  N_15
REMARK    8  A    between atoms: N_18  and  C_19
REMARK                            x       y       z     vdW  Elec       q    Type
REMARK                         _______ _______ _______ _____ _____    ______ ____
ROOT
ATOM      1  C   UNL     1       9.098  10.516  18.538  0.00  0.00    +0.000 A 
ATOM      2  C   UNL     1       8.496  11.456  17.697  0.00  0.00    +0.000 A 
ATOM      3  C   UNL     1       8.995  12.757  17.612  0.00  0.00    +0.000 A 
ATOM      4  C   UNL     1      10.090  13.180  18.372  0.00  0.00    +0.000 A 
ATOM      5  C   UNL     1      10.685  12.224  19.212  0.00  0.00    +0.000 A 
ATOM      6  C   UNL     1      10.193  10.914  19.301  0.00  0.00    +0.000 A 
ENDROOT
BRANCH   4   7
ATOM      7  N   UNL     1      10.500  14.496  18.345  0.00  0.00    +0.000 N 
ATOM      8  C   UNL     1      10.147  15.443  19.410  0.00  0.00    +0.000 C 
ATOM      9  C   UNL     1       9.831  16.823  18.789  0.00  0.00    +0.000 C 
ATOM     10  N   UNL     1      10.933  17.338  17.946  0.00  0.00    +0.000 NA
ATOM     11  C   UNL     1      10.571  18.625  17.362  0.00  0.00    +0.000 C 
ATOM     12  C   UNL     1      11.232  16.347  16.885  0.00  0.00    +0.000 C 
ATOM     13  C   UNL     1      11.583  14.955  17.461  0.00  0.00    +0.000 C 
ENDBRANCH   4   7
BRANCH   1  15
ATOM     14  C   UNL     1       8.045   8.473  17.651  0.00  0.00    +0.000 C 
ATOM     15  C   UNL     1       8.568   9.158  18.679  0.00  0.00    +0.000 C 
BRANCH  14  18
ATOM     16  C   UNL     1       6.322   5.285  17.764  0.00  0.00    +0.000 A 
ATOM     17  C   UNL     1       6.420   6.592  17.228  0.00  0.00    +0.000 A 
ATOM     18  C   UNL     1       7.522   7.171  17.829  0.00  0.00    +0.000 A 
ATOM     19  O   UNL     1       8.049   6.229  18.680  0.00  0.00    +0.000 OA
ATOM     20  N   UNL     1       7.316   5.067  18.638  0.00  0.00    +0.000 NA
BRANCH  16  21
ATOM     21  C   UNL     1       5.282   4.299  17.504  0.00  0.00    +0.000 C 
ATOM     22  O   UNL     1       5.093   3.807  16.397  0.00  0.00    +0.000 OA
BRANCH  21  23
ATOM     23  O   UNL     1       4.495   4.076  18.596  0.00  0.00    +0.000 OA
BRANCH  23  25
ATOM     24  C   UNL     1       2.279   4.853  18.179  0.00  0.00    +0.000 C 
ATOM     25  C   UNL     1       3.577   5.122  18.922  0.00  0.00    +0.000 C 
ENDBRANCH  23  25
ENDBRANCH  21  23
ENDBRANCH  16  21
ENDBRANCH  14  18
ENDBRANCH   1  15
TORSDOF 6
ENDMDL
MODEL 4
REMARK VINA RESULT:      -7.6      7.207      8.982
REMARK  Name = 
REMARK  8 active torsions:
REMARK  status: ('A' for Active; 'I' for Inactive)
REMARK    1  A    between atoms: C_1  and  C_2
REMARK    2  A    between atoms: C_2  and  O_3
REMARK    3  A    between atoms: O_3  and  C_4
REMARK    4  A    between atoms: C_4  and  C_6
REMARK    5  A    between atoms: C_8  and  C_9
REMARK    6  A    between atoms: C_10  and  C_11
REMARK    7  A    between atoms: C_14  and  N_15
REMARK    8  A    between atoms: N_18  and  C_19
REMARK                            x       y       z     vdW  Elec       q    Type
REMARK                         _______ _______ _______ _____ _____    ______ ____
ROOT
ATOM      1  C   UNL     1       9.122  10.381  18.680  0.00  0.00    +0.000 A 
ATOM      2  C   UNL     1      10.268  10.753  19.388  0.00  0.00    +0.000 A 
ATOM      3  C   UNL     1      10.781  12.047  19.282  0.00  0.00    +0.000 A 
ATOM      4  C   UNL     1      10.193  13.010  18.457  0.00  0.00    +0.000 A 
ATOM      5  C   UNL     1       9.040  12.622  17.752  0.00  0.00    +0.000 A 
ATOM      6  C   UNL     1       8.516  11.326  17.855  0.00  0.00    +0.000 A 
ENDROOT
BRANCH   4   7
ATOM      7  N   UNL     1      10.775  14.248  18.292  0.00  0.00    +0.000 N 
ATOM      8  C   UNL     1      11.041  15.141  19.428  0.00  0.00    +0.000 C 
ATOM      9  C   UNL     1      10.744  16.601  19.017  0.00  0.00    +0.000 C 
ATOM     10  N   UNL     1      11.491  17.019  17.810  0.00  0.00    +0.000 NA
ATOM     11  C   UNL     1      11.152  18.392  17.450  0.00  0.00    +0.000 C 
ATOM     12  C   UNL     1      11.172  16.092  16.700  0.00  0.00    +0.000 C 
ATOM     13  C   UNL     1      11.480  14.618  17.055  0.00  0.00    +0.000 C 
ENDBRANCH   4   7
BRANCH   1  15
ATOM     14  C   UNL     1       7.955   8.442  17.705  0.00  0.00    +0.000 C 
ATOM     15  C   UNL     1       8.589   9.018  18.739  0.00  0.00    +0.000 C 
BRANCH  14  18
ATOM     16  C   UNL     1       6.273   5.234  17.578  0.00  0.00    +0.000 A 
ATOM     17  C   UNL     1       6.411   6.551  17.077  0.00  0.00    +0.000 A 
ATOM     18  C   UNL     1       7.434   7.131  17.804  0.00  0.00    +0.000 A 
ATOM     19  O   UNL     1       7.878   6.181  18.692  0.00  0.00    +0.000 OA
ATOM     20  N   UNL     1       7.170   5.012  18.552  0.00  0.00    +0.000 NA
BRANCH  16  21
ATOM     21  C   UNL     1       5.282   4.240  17.191  0.00  0.00    +0.000 C 
ATOM     22  O   UNL     1       4.973   4.027  16.024  0.00  0.00    +0.000 OA
BRANCH  21  23
ATOM     23  O   UNL     1       4.677   3.664  18.270  0.00  0.00    +0.000 OA
BRANCH  23  25
ATOM     24  C   UNL     1       2.561   4.704  17.910  0.00  0.00    +0.000 C 
ATOM     25  C   UNL     1       3.674   4.454  18.913  0.00  0.00    +0.000 C 
ENDBRANCH  23  25
ENDBRANCH  21  23
ENDBRANCH  16  21
ENDBRANCH  14  18
ENDBRANCH   1  15
TORSDOF 6
ENDMDL
MODEL 5
REMARK VINA RESULT:      -7.5      1.033      1.751
REMARK  Name = 
REMARK  8 active torsions:
REMARK  status: ('A' for Active; 'I' for Inactive)
REMARK    1  A    between atoms: C_1  and  C_2
REMARK    2  A    between atoms: C_2  and  O_3
REMARK    3  A    between atoms: O_3  and  C_4
REMARK    4  A    between atoms: C_4  and  C_6
REMARK    5  A    between atoms: C_8  and  C_9
REMARK    6  A    between atoms: C_10  and  C_11
REMARK    7  A    between atoms: C_14  and  N_15
REMARK    8  A    between atoms: N_18  and  C_19
REMARK                            x       y       z     vdW  Elec       q    Type
REMARK                         _______ _______ _______ _____ _____    ______ ____
ROOT
ATOM      1  C   UNL     1       1.984   7.920  18.833  0.00  0.00    +0.000 A 
ATOM      2  C   UNL     1       1.712   7.826  20.201  0.00  0.00    +0.000 A 
ATOM      3  C   UNL     1       0.931   8.792  20.840  0.00  0.00    +0.000 A 
ATOM      4  C   UNL     1       0.414   9.895  20.154  0.00  0.00    +0.000 A 
ATOM      5  C   UNL     1       0.695   9.976  18.780  0.00  0.00    +0.000 A 
ATOM      6  C   UNL     1       1.474   9.009  18.129  0.00  0.00    +0.000 A 
ENDROOT
BRANCH   4   7
ATOM      7  N   UNL     1      -0.268  10.886  20.827  0.00  0.00    +0.000 N 
ATOM      8  C   UNL     1      -0.209  11.017  22.288  0.00  0.00    +0.000 C 
ATOM      9  C   UNL     1      -1.604  11.409  22.828  0.00  0.00    +0.000 C 
ATOM     10  N   UNL     1      -2.140  12.633  22.193  0.00  0.00    +0.000 NA
ATOM     11  C   UNL     1      -3.468  12.940  22.716  0.00  0.00    +0.000 C 
ATOM     12  C   UNL     1      -2.188  12.434  20.725  0.00  0.00    +0.000 C 
ATOM     13  C   UNL     1      -0.807  12.067  20.135  0.00  0.00    +0.000 C 
ENDBRANCH   4   7
BRANCH   1  15
ATOM     14  C   UNL     1       4.037   7.263  17.640  0.00  0.00    +0.000 C 
ATOM     15  C   UNL     1       2.836   6.946  18.148  0.00  0.00    +0.000 C 
BRANCH  14  18
ATOM     16  C   UNL     1       6.071   5.151  15.508  0.00  0.00    +0.000 A 
ATOM     17  C   UNL     1       5.412   6.387  15.717  0.00  0.00    +0.000 A 
ATOM     18  C   UNL     1       4.824   6.301  16.965  0.00  0.00    +0.000 A 
ATOM     19  O   UNL     1       5.136   5.060  17.465  0.00  0.00    +0.000 OA
ATOM     20  N   UNL     1       5.906   4.352  16.574  0.00  0.00    +0.000 NA
BRANCH  16  21
ATOM     21  C   UNL     1       6.778   4.717  14.311  0.00  0.00    +0.000 C 
ATOM     22  O   UNL     1       7.705   5.350  13.820  0.00  0.00    +0.000 OA
BRANCH  21  23
ATOM     23  O   UNL     1       6.222   3.600  13.757  0.00  0.00    +0.000 OA
BRANCH  23  25
ATOM     24  C   UNL     1       4.917   3.212  11.800  0.00  0.00    +0.000 C 
ATOM     25  C   UNL     1       6.308   3.507  12.334  0.00  0.00    +0.000 C 
ENDBRANCH  23  25
ENDBRANCH  21  23
ENDBRANCH  16  21
ENDBRANCH  14  18
ENDBRANCH   1  15
TORSDOF 6
ENDMDL
MODEL 6
REMARK VINA RESULT:      -7.4      6.476      9.218
REMARK  Name = 
REMARK  8 active torsions:
REMARK  status: ('A' for Active; 'I' for Inactive)
REMARK    1  A    between atoms: C_1  and  C_2
REMARK    2  A    between atoms: C_2  and  O_3
REMARK    3  A    between atoms: O_3  and  C_4
REMARK    4  A    between atoms: C_4  and  C_6
REMARK    5  A    between atoms: C_8  and  C_9
REMARK    6  A    between atoms: C_10  and  C_11
REMARK    7  A    between atoms: C_14  and  N_15
REMARK    8  A    between atoms: N_18  and  C_19
REMARK                            x       y       z     vdW  Elec       q    Type
REMARK                         _______ _______ _______ _____ _____    ______ ____
ROOT
ATOM      1  C   UNL     1       7.609   7.449  17.943  0.00  0.00    +0.000 A 
ATOM      2  C   UNL     1       7.829   6.322  18.740  0.00  0.00    +0.000 A 
ATOM      3  C   UNL     1       6.907   5.273  18.760  0.00  0.00    +0.000 A 
ATOM      4  C   UNL     1       5.726   5.314  18.013  0.00  0.00    +0.000 A 
ATOM      5  C   UNL     1       5.518   6.453  17.217  0.00  0.00    +0.000 A 
ATOM      6  C   UNL     1       6.440   7.508  17.187  0.00  0.00    +0.000 A 
ENDROOT
BRANCH   4   7
ATOM      7  N   UNL     1       4.785   4.313  18.128  0.00  0.00    +0.000 N 
ATOM      8  C   UNL     1       4.096   3.754  16.958  0.00  0.00    +0.000 C 
ATOM      9  C   UNL     1       2.615   3.485  17.311  0.00  0.00    +0.000 C 
ATOM     10  N   UNL     1       2.459   2.618  18.500  0.00  0.00    +0.000 NA
ATOM     11  C   UNL     1       1.045   2.422  18.806  0.00  0.00    +0.000 C 
ATOM     12  C   UNL     1       3.161   3.240  19.646  0.00  0.00    +0.000 C 
ATOM     13  C   UNL     1       4.656   3.503  19.350  0.00  0.00    +0.000 C 
ENDBRANCH   4   7
BRANCH   1  15
ATOM     14  C   UNL     1       8.129   9.855  18.039  0.00  0.00    +0.000 C 
ATOM     15  C   UNL     1       8.538   8.581  17.937  0.00  0.00    +0.000 C 
BRANCH  14  18
ATOM     16  C   UNL     1      10.067  12.918  17.988  0.00  0.00    +0.000 A 
ATOM     17  C   UNL     1       8.805  12.284  18.080  0.00  0.00    +0.000 A 
ATOM     18  C   UNL     1       9.052  10.926  18.008  0.00  0.00    +0.000 A 
ATOM     19  O   UNL     1      10.413  10.777  17.883  0.00  0.00    +0.000 OA
ATOM     20  N   UNL     1      11.040  12.000  17.876  0.00  0.00    +0.000 NA
BRANCH  16  21
ATOM     21  C   UNL     1      10.336  14.349  17.941  0.00  0.00    +0.000 C 
ATOM     22  O   UNL     1      10.915  14.887  17.005  0.00  0.00    +0.000 OA
BRANCH  21  23
ATOM     23  O   UNL     1       9.967  14.983  19.092  0.00  0.00    +0.000 OA
BRANCH  23  25
ATOM     24  C   UNL     1      10.223  14.312  21.365  0.00  0.00    +0.000 C 
ATOM     25  C   UNL     1      10.914  14.927  20.161  0.00  0.00    +0.000 C 
ENDBRANCH  23  25
ENDBRANCH  21  23
ENDBRANCH  16  21
ENDBRANCH  14  18
ENDBRANCH   1  15
TORSDOF 6
ENDMDL
MODEL 7
REMARK VINA RESULT:      -7.4      1.633      2.423
REMARK  Name = 
REMARK  8 active torsions:
REMARK  status: ('A' for Active; 'I' for Inactive)
REMARK    1  A    between atoms: C_1  and  C_2
REMARK    2  A    between atoms: C_2  and  O_3
REMARK    3  A    between atoms: O_3  and  C_4
REMARK    4  A    between atoms: C_4  and  C_6
REMARK    5  A    between atoms: C_8  and  C_9
REMARK    6  A    between atoms: C_10  and  C_11
REMARK    7  A    between atoms: C_14  and  N_15
REMARK    8  A    between atoms: N_18  and  C_19
REMARK                            x       y       z     vdW  Elec       q    Type
REMARK                         _______ _______ _______ _____ _____    ______ ____
ROOT
ATOM      1  C   UNL     1       1.613   8.717  18.808  0.00  0.00    +0.000 A 
ATOM      2  C   UNL     1       1.013   9.804  18.167  0.00  0.00    +0.000 A 
ATOM      3  C   UNL     1       0.251  10.725  18.889  0.00  0.00    +0.000 A 
ATOM      4  C   UNL     1       0.037  10.589  20.264  0.00  0.00    +0.000 A 
ATOM      5  C   UNL     1       0.647   9.493  20.896  0.00  0.00    +0.000 A 
ATOM      6  C   UNL     1       1.417   8.566  20.179  0.00  0.00    +0.000 A 
ENDROOT
BRANCH   4   7
ATOM      7  N   UNL     1      -0.801  11.454  20.935  0.00  0.00    +0.000 N 
ATOM      8  C   UNL     1      -0.706  11.662  22.385  0.00  0.00    +0.000 C 
ATOM      9  C   UNL     1      -2.127  11.793  22.982  0.00  0.00    +0.000 C 
ATOM     10  N   UNL     1      -2.925  12.855  22.330  0.00  0.00    +0.000 NA
ATOM     11  C   UNL     1      -4.264  12.915  22.910  0.00  0.00    +0.000 C 
ATOM     12  C   UNL     1      -2.995  12.583  20.876  0.00  0.00    +0.000 C 
ATOM     13  C   UNL     1      -1.595  12.472  20.228  0.00  0.00    +0.000 C 
ENDBRANCH   4   7
BRANCH   1  15
ATOM     14  C   UNL     1       2.978   6.671  18.666  0.00  0.00    +0.000 C 
ATOM     15  C   UNL     1       2.380   7.713  18.068  0.00  0.00    +0.000 C 
BRANCH  14  18
ATOM     16  C   UNL     1       5.297   4.627  16.772  0.00  0.00    +0.000 A 
ATOM     17  C   UNL     1       5.037   5.824  17.482  0.00  0.00    +0.000 A 
ATOM     18  C   UNL     1       3.730   5.732  17.921  0.00  0.00    +0.000 A 
ATOM     19  O   UNL     1       3.250   4.520  17.486  0.00  0.00    +0.000 OA
ATOM     20  N   UNL     1       4.213   3.837  16.783  0.00  0.00    +0.000 NA
BRANCH  16  21
ATOM     21  C   UNL     1       6.513   4.273  16.051  0.00  0.00    +0.000 C 
ATOM     22  O   UNL     1       7.629   4.616  16.422  0.00  0.00    +0.000 OA
BRANCH  21  23
ATOM     23  O   UNL     1       6.250   3.619  14.883  0.00  0.00    +0.000 OA
BRANCH  23  25
ATOM     24  C   UNL     1       6.216   3.452  12.504  0.00  0.00    +0.000 C 
ATOM     25  C   UNL     1       6.516   4.356  13.688  0.00  0.00    +0.000 C 
ENDBRANCH  23  25
ENDBRANCH  21  23
ENDBRANCH  16  21
ENDBRANCH  14  18
ENDBRANCH   1  15
TORSDOF 6
ENDMDL
MODEL 8
REMARK VINA RESULT:      -7.3      1.224      1.667
REMARK  Name = 
REMARK  8 active torsions:
REMARK  status: ('A' for Active; 'I' for Inactive)
REMARK    1  A    between atoms: C_1  and  C_2
REMARK    2  A    between atoms: C_2  and  O_3
REMARK    3  A    between atoms: O_3  and  C_4
REMARK    4  A    between atoms: C_4  and  C_6
REMARK    5  A    between atoms: C_8  and  C_9
REMARK    6  A    between atoms: C_10  and  C_11
REMARK    7  A    between atoms: C_14  and  N_15
REMARK    8  A    between atoms: N_18  and  C_19
REMARK                            x       y       z     vdW  Elec       q    Type
REMARK                         _______ _______ _______ _____ _____    ______ ____
ROOT
ATOM      1  C   UNL     1       1.942   8.134  18.804  0.00  0.00    +0.000 A 
ATOM      2  C   UNL     1       1.393   9.269  18.202  0.00  0.00    +0.000 A 
ATOM      3  C   UNL     1       0.702  10.215  18.962  0.00  0.00    +0.000 A 
ATOM      4  C   UNL     1       0.511  10.060  20.338  0.00  0.00    +0.000 A 
ATOM      5  C   UNL     1       1.069   8.915  20.931  0.00  0.00    +0.000 A 
ATOM      6  C   UNL     1       1.767   7.962  20.176  0.00  0.00    +0.000 A 
ENDROOT
BRANCH   4   7
ATOM      7  N   UNL     1      -0.260  10.956  21.048  0.00  0.00    +0.000 N 
ATOM      8  C   UNL     1      -0.283  10.972  22.516  0.00  0.00    +0.000 C 
ATOM      9  C   UNL     1      -1.723  11.245  23.007  0.00  0.00    +0.000 C 
ATOM     10  N   UNL     1      -2.295  12.487  22.440  0.00  0.00    +0.000 NA
ATOM     11  C   UNL     1      -3.663  12.680  22.911  0.00  0.00    +0.000 C 
ATOM     12  C   UNL     1      -2.256  12.405  20.961  0.00  0.00    +0.000 C 
ATOM     13  C   UNL     1      -0.828  12.160  20.421  0.00  0.00    +0.000 C 
ENDBRANCH   4   7
BRANCH   1  15
ATOM     14  C   UNL     1       3.929   7.195  17.692  0.00  0.00    +0.000 C 
ATOM     15  C   UNL     1       2.633   7.105  18.024  0.00  0.00    +0.000 C 
BRANCH  14  18
ATOM     16  C   UNL     1       5.830   5.024  15.497  0.00  0.00    +0.000 A 
ATOM     17  C   UNL     1       5.584   6.325  16.001  0.00  0.00    +0.000 A 
ATOM     18  C   UNL     1       4.559   6.192  16.917  0.00  0.00    +0.000 A 
ATOM     19  O   UNL     1       4.224   4.860  16.949  0.00  0.00    +0.000 OA
ATOM     20  N   UNL     1       5.007   4.138  16.080  0.00  0.00    +0.000 NA
BRANCH  16  21
ATOM     21  C   UNL     1       6.768   4.644  14.449  0.00  0.00    +0.000 C 
ATOM     22  O   UNL     1       7.765   5.303  14.178  0.00  0.00    +0.000 OA
BRANCH  21  23
ATOM     23  O   UNL     1       6.351   3.547  13.753  0.00  0.00    +0.000 OA
BRANCH  23  25
ATOM     24  C   UNL     1       5.892   2.363  11.735  0.00  0.00    +0.000 C 
ATOM     25  C   UNL     1       6.296   3.699  12.333  0.00  0.00    +0.000 C 
ENDBRANCH  23  25
ENDBRANCH  21  23
ENDBRANCH  16  21
ENDBRANCH  14  18
ENDBRANCH   1  15
TORSDOF 6
ENDMDL
MODEL 9
REMARK VINA RESULT:      -7.3      1.226      1.749
REMARK  Name = 
REMARK  8 active torsions:
REMARK  status: ('A' for Active; 'I' for Inactive)
REMARK    1  A    between atoms: C_1  and  C_2
REMARK    2  A    between atoms: C_2  and  O_3
REMARK    3  A    between atoms: O_3  and  C_4
REMARK    4  A    between atoms: C_4  and  C_6
REMARK    5  A    between atoms: C_8  and  C_9
REMARK    6  A    between atoms: C_10  and  C_11
REMARK    7  A    between atoms: C_14  and  N_15
REMARK    8  A    between atoms: N_18  and  C_19
REMARK                            x       y       z     vdW  Elec       q    Type
REMARK                         _______ _______ _______ _____ _____    ______ ____
ROOT
ATOM      1  C   UNL     1       1.963   8.568  18.665  0.00  0.00    +0.000 A 
ATOM      2  C   UNL     1       1.719   8.383  20.029  0.00  0.00    +0.000 A 
ATOM      3  C   UNL     1       0.784   9.175  20.699  0.00  0.00    +0.000 A 
ATOM      4  C   UNL     1       0.076  10.191  20.049  0.00  0.00    +0.000 A 
ATOM      5  C   UNL     1       0.331  10.365  18.679  0.00  0.00    +0.000 A 
ATOM      6  C   UNL     1       1.265   9.572  17.998  0.00  0.00    +0.000 A 
ENDROOT
BRANCH   4   7
ATOM      7  N   UNL     1      -0.767  11.023  20.754  0.00  0.00    +0.000 N 
ATOM      8  C   UNL     1      -1.774  11.859  20.087  0.00  0.00    +0.000 C 
ATOM      9  C   UNL     1      -1.849  13.235  20.788  0.00  0.00    +0.000 C 
ATOM     10  N   UNL     1      -2.110  13.123  22.241  0.00  0.00    +0.000 NA
ATOM     11  C   UNL     1      -2.141  14.446  22.856  0.00  0.00    +0.000 C 
ATOM     12  C   UNL     1      -1.057  12.282  22.857  0.00  0.00    +0.000 C 
ATOM     13  C   UNL     1      -0.963  10.883  22.206  0.00  0.00    +0.000 C 
ENDBRANCH   4   7
BRANCH   1  15
ATOM     14  C   UNL     1       3.389   6.580  18.375  0.00  0.00    +0.000 C 
ATOM     15  C   UNL     1       2.970   7.782  17.949  0.00  0.00    +0.000 C 
BRANCH  14  18
ATOM     16  C   UNL     1       5.808   5.046  16.153  0.00  0.00    +0.000 A 
ATOM     17  C   UNL     1       4.822   6.038  16.373  0.00  0.00    +0.000 A 
ATOM     18  C   UNL     1       4.380   5.858  17.670  0.00  0.00    +0.000 A 
ATOM     19  O   UNL     1       5.090   4.801  18.187  0.00  0.00    +0.000 OA
ATOM     20  N   UNL     1       5.972   4.303  17.259  0.00  0.00    +0.000 NA
BRANCH  16  21
ATOM     21  C   UNL     1       6.524   4.769  14.915  0.00  0.00    +0.000 C 
ATOM     22  O   UNL     1       7.614   5.264  14.653  0.00  0.00    +0.000 OA
BRANCH  21  23
ATOM     23  O   UNL     1       5.798   3.994  14.059  0.00  0.00    +0.000 OA
BRANCH  23  25
ATOM     24  C   UNL     1       5.369   3.119  11.882  0.00  0.00    +0.000 C 
ATOM     25  C   UNL     1       6.424   3.699  12.808  0.00  0.00    +0.000 C 
ENDBRANCH  23  25
ENDBRANCH  21  23
ENDBRANCH  16  21
ENDBRANCH  14  18
ENDBRANCH   1  15
TORSDOF 6
ENDMDL
