MODEL 1
REMARK VINA RESULT:      -8.4      0.000      0.000
REMARK  Name = 
REMARK  7 active torsions:
REMARK  status: ('A' for Active; 'I' for Inactive)
REMARK    1  A    between atoms: C_1  and  C_2
REMARK    2  A    between atoms: C_5  and  C_6
REMARK    3  A    between atoms: C_6  and  N_7
REMARK    4  A    between atoms: C_9  and  C_10
REMARK    5  A    between atoms: C_10  and  C_11
REMARK    6  A    between atoms: C_11  and  C_12
REMARK    7  A    between atoms: N_14  and  C_15
REMARK                            x       y       z     vdW  Elec       q    Type
REMARK                         _______ _______ _______ _____ _____    ______ ____
ROOT
ATOM      1  N   UNL     1       3.197   5.722  18.638  0.00  0.00    +0.000 N 
ATOM      2  C   UNL     1       4.095   5.526  17.616  0.00  0.00    +0.000 A 
ATOM      3  C   UNL     1       3.914   4.259  17.100  0.00  0.00    +0.000 A 
ATOM      4  C   UNL     1       2.847   3.662  17.850  0.00  0.00    +0.000 A 
ATOM      5  C   UNL     1       2.231   2.392  17.827  0.00  0.00    +0.000 A 
ATOM      6  C   UNL     1       1.203   2.098  18.729  0.00  0.00    +0.000 A 
ATOM      7  C   UNL     1       0.780   3.051  19.649  0.00  0.00    +0.000 A 
ATOM      8  C   UNL     1       1.370   4.317  19.695  0.00  0.00    +0.000 A 
ATOM      9  C   UNL     1       2.408   4.600  18.791  0.00  0.00    +0.000 A 
ENDROOT
BRANCH   1  10
ATOM     10  C   UNL     1       3.229   6.872  19.540  0.00  0.00    +0.000 C 
BRANCH  10  15
ATOM     11  C   UNL     1      -0.695  11.141  18.907  0.00  0.00    +0.000 C 
ATOM     12  C   UNL     1       0.259   9.994  19.051  0.00  0.00    +0.000 A 
ATOM     13  C   UNL     1       0.458   9.371  20.286  0.00  0.00    +0.000 A 
ATOM     14  C   UNL     1       1.390   8.337  20.415  0.00  0.00    +0.000 A 
ATOM     15  C   UNL     1       2.140   7.896  19.312  0.00  0.00    +0.000 A 
ATOM     16  C   UNL     1       1.928   8.522  18.077  0.00  0.00    +0.000 A 
ATOM     17  C   UNL     1       0.995   9.555  17.947  0.00  0.00    +0.000 A 
ENDBRANCH  10  15
ENDBRANCH   1  10
BRANCH   3  18
ATOM     18  C   UNL     1       4.740   3.622  16.022  0.00  0.00    +0.000 C 
BRANCH  18  19
ATOM     19  C   UNL     1       6.211   4.020  16.064  0.00  0.00    +0.000 C 
BRANCH  19  20
ATOM     20  C   UNL     1       6.725   4.418  14.693  0.00  0.00    +0.000 C 
ATOM     21  O   UNL     1       7.359   5.441  14.472  0.00  0.00    +0.000 OA
ATOM     22  N   UNL     1       6.395   3.498  13.720  0.00  0.00    +0.000 N 
ATOM     23  H   UNL     1       5.723   2.781  13.969  0.00  0.00    +0.000 HD
BRANCH  22  24
ATOM     24  C   UNL     1       6.655   3.731  12.303  0.00  0.00    +0.000 C 
ATOM     25  C   UNL     1       7.121   2.441  11.614  0.00  0.00    +0.000 C 
ATOM     26  C   UNL     1       6.011   1.394  11.507  0.00  0.00    +0.000 C 
ATOM     27  C   UNL     1       4.738   1.958  10.879  0.00  0.00    +0.000 C 
ATOM     28  C   UNL     1       4.284   3.259  11.537  0.00  0.00    +0.000 C 
ATOM     29  C   UNL     1       5.412   4.288  11.598  0.00  0.00    +0.000 C 
ENDBRANCH  22  24
ENDBRANCH  19  20
ENDBRANCH  18  19
ENDBRANCH   3  18
TORSDOF 6
ENDMDL
MODEL 2
REMARK VINA RESULT:      -8.3      5.039     10.451
REMARK  Name = 
REMARK  7 active torsions:
REMARK  status: ('A' for Active; 'I' for Inactive)
REMARK    1  A    between atoms: C_1  and  C_2
REMARK    2  A    between atoms: C_5  and  C_6
REMARK    3  A    between atoms: C_6  and  N_7
REMARK    4  A    between atoms: C_9  and  C_10
REMARK    5  A    between atoms: C_10  and  C_11
REMARK    6  A    between atoms: C_11  and  C_12
REMARK    7  A    between atoms: N_14  and  C_15
REMARK                            x       y       z     vdW  Elec       q    Type
REMARK                         _______ _______ _______ _____ _____    ______ ____
ROOT
ATOM      1  N   UNL     1       1.585   8.699  19.491  0.00  0.00    +0.000 N 
ATOM      2  C   UNL     1       0.962   9.260  18.401  0.00  0.00    +0.000 A 
ATOM      3  C   UNL     1      -0.064  10.071  18.843  0.00  0.00    +0.000 A 
ATOM      4  C   UNL     1      -0.054   9.997  20.275  0.00  0.00    +0.000 A 
ATOM      5  C   UNL     1      -0.862  10.560  21.286  0.00  0.00    +0.000 A 
ATOM      6  C   UNL     1      -0.606  10.269  22.630  0.00  0.00    +0.000 A 
ATOM      7  C   UNL     1       0.444   9.428  22.979  0.00  0.00    +0.000 A 
ATOM      8  C   UNL     1       1.263   8.856  22.001  0.00  0.00    +0.000 A 
ATOM      9  C   UNL     1       0.992   9.148  20.653  0.00  0.00    +0.000 A 
ENDROOT
BRANCH   1  10
ATOM     10  C   UNL     1       2.585   7.637  19.399  0.00  0.00    +0.000 C 
BRANCH  10  15
ATOM     11  C   UNL     1       0.888   2.077  18.925  0.00  0.00    +0.000 C 
ATOM     12  C   UNL     1       1.252   3.528  19.034  0.00  0.00    +0.000 A 
ATOM     13  C   UNL     1       1.694   4.247  17.921  0.00  0.00    +0.000 A 
ATOM     14  C   UNL     1       2.080   5.584  18.049  0.00  0.00    +0.000 A 
ATOM     15  C   UNL     1       2.027   6.237  19.292  0.00  0.00    +0.000 A 
ATOM     16  C   UNL     1       1.575   5.510  20.401  0.00  0.00    +0.000 A 
ATOM     17  C   UNL     1       1.188   4.172  20.273  0.00  0.00    +0.000 A 
ENDBRANCH  10  15
ENDBRANCH   1  10
BRANCH   3  18
ATOM     18  C   UNL     1      -1.037  10.810  17.973  0.00  0.00    +0.000 C 
BRANCH  18  19
ATOM     19  C   UNL     1      -2.230   9.966  17.537  0.00  0.00    +0.000 C 
BRANCH  19  20
ATOM     20  C   UNL     1      -3.431  10.827  17.193  0.00  0.00    +0.000 C 
ATOM     21  O   UNL     1      -3.708  11.191  16.057  0.00  0.00    +0.000 OA
ATOM     22  N   UNL     1      -4.178  11.158  18.304  0.00  0.00    +0.000 N 
ATOM     23  H   UNL     1      -3.771  10.958  19.212  0.00  0.00    +0.000 HD
BRANCH  22  24
ATOM     24  C   UNL     1      -5.297  12.093  18.246  0.00  0.00    +0.000 C 
ATOM     25  C   UNL     1      -6.628  11.343  18.101  0.00  0.00    +0.000 C 
ATOM     26  C   UNL     1      -7.007  10.562  19.360  0.00  0.00    +0.000 C 
ATOM     27  C   UNL     1      -6.964  11.429  20.617  0.00  0.00    +0.000 C 
ATOM     28  C   UNL     1      -5.656  12.203  20.754  0.00  0.00    +0.000 C 
ATOM     29  C   UNL     1      -5.329  12.993  19.488  0.00  0.00    +0.000 C 
ENDBRANCH  22  24
ENDBRANCH  19  20
ENDBRANCH  18  19
ENDBRANCH   3  18
TORSDOF 6
ENDMDL
MODEL 3
REMARK VINA RESULT:      -8.3      2.510      8.543
REMARK  Name = 
REMARK  7 active torsions:
REMARK  status: ('A' for Active; 'I' for Inactive)
REMARK    1  A    between atoms: C_1  and  C_2
REMARK    2  A    between atoms: C_5  and  C_6
REMARK    3  A    between atoms: C_6  and  N_7
REMARK    4  A    between atoms: C_9  and  C_10
REMARK    5  A    between atoms: C_10  and  C_11
REMARK    6  A    between atoms: C_11  and  C_12
REMARK    7  A    between atoms: N_14  and  C_15
REMARK                            x       y       z     vdW  Elec       q    Type
REMARK                         _______ _______ _______ _____ _____    ______ ____
ROOT
ATOM      1  N   UNL     1       4.471   5.004  19.293  0.00  0.00    +0.000 N 
ATOM      2  C   UNL     1       4.090   6.317  19.150  0.00  0.00    +0.000 A 
ATOM      3  C   UNL     1       2.779   6.449  19.562  0.00  0.00    +0.000 A 
ATOM      4  C   UNL     1       2.350   5.145  19.978  0.00  0.00    +0.000 A 
ATOM      5  C   UNL     1       1.127   4.628  20.457  0.00  0.00    +0.000 A 
ATOM      6  C   UNL     1       1.015   3.268  20.761  0.00  0.00    +0.000 A 
ATOM      7  C   UNL     1       2.102   2.418  20.597  0.00  0.00    +0.000 A 
ATOM      8  C   UNL     1       3.326   2.901  20.126  0.00  0.00    +0.000 A 
ATOM      9  C   UNL     1       3.427   4.267  19.815  0.00  0.00    +0.000 A 
ENDROOT
BRANCH   1  10
ATOM     10  C   UNL     1       5.725   4.460  18.775  0.00  0.00    +0.000 C 
BRANCH  10  15
ATOM     11  C   UNL     1       6.519   4.104  13.008  0.00  0.00    +0.000 C 
ATOM     12  C   UNL     1       6.289   4.267  14.480  0.00  0.00    +0.000 A 
ATOM     13  C   UNL     1       7.305   4.723  15.324  0.00  0.00    +0.000 A 
ATOM     14  C   UNL     1       7.092   4.818  16.703  0.00  0.00    +0.000 A 
ATOM     15  C   UNL     1       5.854   4.468  17.269  0.00  0.00    +0.000 A 
ATOM     16  C   UNL     1       4.839   4.020  16.414  0.00  0.00    +0.000 A 
ATOM     17  C   UNL     1       5.053   3.925  15.036  0.00  0.00    +0.000 A 
ENDBRANCH  10  15
ENDBRANCH   1  10
BRANCH   3  18
ATOM     18  C   UNL     1       1.959   7.703  19.498  0.00  0.00    +0.000 C 
BRANCH  18  19
ATOM     19  C   UNL     1       1.869   8.304  18.100  0.00  0.00    +0.000 C 
BRANCH  19  20
ATOM     20  C   UNL     1       1.844   9.820  18.140  0.00  0.00    +0.000 C 
ATOM     21  O   UNL     1       2.515  10.535  17.406  0.00  0.00    +0.000 OA
ATOM     22  N   UNL     1       0.981  10.308  19.100  0.00  0.00    +0.000 N 
ATOM     23  H   UNL     1       0.609   9.642  19.769  0.00  0.00    +0.000 HD
BRANCH  22  24
ATOM     24  C   UNL     1       0.892  11.727  19.424  0.00  0.00    +0.000 C 
ATOM     25  C   UNL     1      -0.256  12.393  18.653  0.00  0.00    +0.000 C 
ATOM     26  C   UNL     1      -1.634  11.930  19.129  0.00  0.00    +0.000 C 
ATOM     27  C   UNL     1      -1.800  12.059  20.642  0.00  0.00    +0.000 C 
ATOM     28  C   UNL     1      -0.647  11.428  21.417  0.00  0.00    +0.000 C 
ATOM     29  C   UNL     1       0.709  11.938  20.933  0.00  0.00    +0.000 C 
ENDBRANCH  22  24
ENDBRANCH  19  20
ENDBRANCH  18  19
ENDBRANCH   3  18
TORSDOF 6
ENDMDL
MODEL 4
REMARK VINA RESULT:      -8.3      3.624      6.667
REMARK  Name = 
REMARK  7 active torsions:
REMARK  status: ('A' for Active; 'I' for Inactive)
REMARK    1  A    between atoms: C_1  and  C_2
REMARK    2  A    between atoms: C_5  and  C_6
REMARK    3  A    between atoms: C_6  and  N_7
REMARK    4  A    between atoms: C_9  and  C_10
REMARK    5  A    between atoms: C_10  and  C_11
REMARK    6  A    between atoms: C_11  and  C_12
REMARK    7  A    between atoms: N_14  and  C_15
REMARK                            x       y       z     vdW  Elec       q    Type
REMARK                         _______ _______ _______ _____ _____    ______ ____
ROOT
ATOM      1  N   UNL     1      -0.180  10.660  19.247  0.00  0.00    +0.000 N 
ATOM      2  C   UNL     1       0.648   9.773  18.602  0.00  0.00    +0.000 A 
ATOM      3  C   UNL     1       1.200   8.918  19.535  0.00  0.00    +0.000 A 
ATOM      4  C   UNL     1       0.671   9.310  20.809  0.00  0.00    +0.000 A 
ATOM      5  C   UNL     1       0.876   8.858  22.131  0.00  0.00    +0.000 A 
ATOM      6  C   UNL     1       0.213   9.481  23.193  0.00  0.00    +0.000 A 
ATOM      7  C   UNL     1      -0.650  10.544  22.958  0.00  0.00    +0.000 A 
ATOM      8  C   UNL     1      -0.874  11.014  21.660  0.00  0.00    +0.000 A 
ATOM      9  C   UNL     1      -0.197  10.387  20.600  0.00  0.00    +0.000 A 
ENDROOT
BRANCH   1  10
ATOM     10  C   UNL     1      -0.779  11.829  18.605  0.00  0.00    +0.000 C 
BRANCH  10  15
ATOM     11  C   UNL     1      -6.554  11.155  18.138  0.00  0.00    +0.000 C 
ATOM     12  C   UNL     1      -5.075  11.392  18.216  0.00  0.00    +0.000 A 
ATOM     13  C   UNL     1      -4.202  10.824  17.284  0.00  0.00    +0.000 A 
ATOM     14  C   UNL     1      -2.822  11.010  17.402  0.00  0.00    +0.000 A 
ATOM     15  C   UNL     1      -2.281  11.775  18.449  0.00  0.00    +0.000 A 
ATOM     16  C   UNL     1      -3.165  12.348  19.373  0.00  0.00    +0.000 A 
ATOM     17  C   UNL     1      -4.545  12.162  19.256  0.00  0.00    +0.000 A 
ENDBRANCH  10  15
ENDBRANCH   1  10
BRANCH   3  18
ATOM     18  C   UNL     1       2.215   7.849  19.257  0.00  0.00    +0.000 C 
BRANCH  18  19
ATOM     19  C   UNL     1       2.879   7.979  17.891  0.00  0.00    +0.000 C 
BRANCH  19  20
ATOM     20  C   UNL     1       3.674   6.737  17.533  0.00  0.00    +0.000 C 
ATOM     21  O   UNL     1       4.664   6.742  16.813  0.00  0.00    +0.000 OA
ATOM     22  N   UNL     1       3.155   5.596  18.109  0.00  0.00    +0.000 N 
ATOM     23  H   UNL     1       2.239   5.670  18.539  0.00  0.00    +0.000 HD
BRANCH  22  24
ATOM     24  C   UNL     1       3.660   4.263  17.798  0.00  0.00    +0.000 C 
ATOM     25  C   UNL     1       4.296   3.617  19.036  0.00  0.00    +0.000 C 
ATOM     26  C   UNL     1       3.267   3.261  20.111  0.00  0.00    +0.000 C 
ATOM     27  C   UNL     1       2.109   2.434  19.556  0.00  0.00    +0.000 C 
ATOM     28  C   UNL     1       1.490   3.053  18.305  0.00  0.00    +0.000 C 
ATOM     29  C   UNL     1       2.546   3.365  17.245  0.00  0.00    +0.000 C 
ENDBRANCH  22  24
ENDBRANCH  19  20
ENDBRANCH  18  19
ENDBRANCH   3  18
TORSDOF 6
ENDMDL
MODEL 5
REMARK VINA RESULT:      -8.2      2.948      8.757
REMARK  Name = 
REMARK  7 active torsions:
REMARK  status: ('A' for Active; 'I' for Inactive)
REMARK    1  A    between atoms: C_1  and  C_2
REMARK    2  A    between atoms: C_5  and  C_6
REMARK    3  A    between atoms: C_6  and  N_7
REMARK    4  A    between atoms: C_9  and  C_10
REMARK    5  A    between atoms: C_10  and  C_11
REMARK    6  A    between atoms: C_11  and  C_12
REMARK    7  A    between atoms: N_14  and  C_15
REMARK                            x       y       z     vdW  Elec       q    Type
REMARK                         _______ _______ _______ _____ _____    ______ ____
ROOT
ATOM      1  N   UNL     1       4.407   5.042  19.375  0.00  0.00    +0.000 N 
ATOM      2  C   UNL     1       4.017   6.360  19.393  0.00  0.00    +0.000 A 
ATOM      3  C   UNL     1       2.685   6.426  19.748  0.00  0.00    +0.000 A 
ATOM      4  C   UNL     1       2.252   5.076  19.959  0.00  0.00    +0.000 A 
ATOM      5  C   UNL     1       1.012   4.491  20.298  0.00  0.00    +0.000 A 
ATOM      6  C   UNL     1       0.902   3.101  20.408  0.00  0.00    +0.000 A 
ATOM      7  C   UNL     1       2.008   2.288  20.188  0.00  0.00    +0.000 A 
ATOM      8  C   UNL     1       3.248   2.837  19.853  0.00  0.00    +0.000 A 
ATOM      9  C   UNL     1       3.347   4.234  19.736  0.00  0.00    +0.000 A 
ENDROOT
BRANCH   1  10
ATOM     10  C   UNL     1       5.693   4.580  18.856  0.00  0.00    +0.000 C 
BRANCH  10  15
ATOM     11  C   UNL     1       6.350   3.941  13.096  0.00  0.00    +0.000 C 
ATOM     12  C   UNL     1       6.158   4.177  14.564  0.00  0.00    +0.000 A 
ATOM     13  C   UNL     1       7.208   4.628  15.367  0.00  0.00    +0.000 A 
ATOM     14  C   UNL     1       7.028   4.792  16.743  0.00  0.00    +0.000 A 
ATOM     15  C   UNL     1       5.791   4.517  17.349  0.00  0.00    +0.000 A 
ATOM     16  C   UNL     1       4.741   4.073  16.535  0.00  0.00    +0.000 A 
ATOM     17  C   UNL     1       4.921   3.909  15.158  0.00  0.00    +0.000 A 
ENDBRANCH  10  15
ENDBRANCH   1  10
BRANCH   3  18
ATOM     18  C   UNL     1       1.853   7.673  19.812  0.00  0.00    +0.000 C 
BRANCH  18  19
ATOM     19  C   UNL     1       1.089   7.830  21.122  0.00  0.00    +0.000 C 
BRANCH  19  20
ATOM     20  C   UNL     1       1.156   9.253  21.644  0.00  0.00    +0.000 C 
ATOM     21  O   UNL     1       1.536   9.552  22.769  0.00  0.00    +0.000 OA
ATOM     22  N   UNL     1       0.739  10.178  20.709  0.00  0.00    +0.000 N 
ATOM     23  H   UNL     1       0.281   9.820  19.877  0.00  0.00    +0.000 HD
BRANCH  22  24
ATOM     24  C   UNL     1       0.580  11.593  21.024  0.00  0.00    +0.000 C 
ATOM     25  C   UNL     1       1.431  12.461  20.087  0.00  0.00    +0.000 C 
ATOM     26  C   UNL     1       0.916  12.456  18.647  0.00  0.00    +0.000 C 
ATOM     27  C   UNL     1      -0.571  12.795  18.560  0.00  0.00    +0.000 C 
ATOM     28  C   UNL     1      -1.422  11.959  19.512  0.00  0.00    +0.000 C 
ATOM     29  C   UNL     1      -0.893  12.015  20.944  0.00  0.00    +0.000 C 
ENDBRANCH  22  24
ENDBRANCH  19  20
ENDBRANCH  18  19
ENDBRANCH   3  18
TORSDOF 6
ENDMDL
MODEL 6
REMARK VINA RESULT:      -8.2      5.420      7.919
REMARK  Name = 
REMARK  7 active torsions:
REMARK  status: ('A' for Active; 'I' for Inactive)
REMARK    1  A    between atoms: C_1  and  C_2
REMARK    2  A    between atoms: C_5  and  C_6
REMARK    3  A    between atoms: C_6  and  N_7
REMARK    4  A    between atoms: C_9  and  C_10
REMARK    5  A    between atoms: C_10  and  C_11
REMARK    6  A    between atoms: C_11  and  C_12
REMARK    7  A    between atoms: N_14  and  C_15
REMARK                            x       y       z     vdW  Elec       q    Type
REMARK                         _______ _______ _______ _____ _____    ______ ____
ROOT
ATOM      1  N   UNL     1       4.505   6.741  17.187  0.00  0.00    +0.000 N 
ATOM      2  C   UNL     1       5.414   7.610  17.740  0.00  0.00    +0.000 A 
ATOM      3  C   UNL     1       6.685   7.224  17.365  0.00  0.00    +0.000 A 
ATOM      4  C   UNL     1       6.531   6.062  16.538  0.00  0.00    +0.000 A 
ATOM      5  C   UNL     1       7.441   5.199  15.890  0.00  0.00    +0.000 A 
ATOM      6  C   UNL     1       6.966   4.106  15.158  0.00  0.00    +0.000 A 
ATOM      7  C   UNL     1       5.601   3.864  15.060  0.00  0.00    +0.000 A 
ATOM      8  C   UNL     1       4.676   4.701  15.690  0.00  0.00    +0.000 A 
ATOM      9  C   UNL     1       5.163   5.792  16.431  0.00  0.00    +0.000 A 
ENDROOT
BRANCH   1  10
ATOM     10  C   UNL     1       3.083   6.725  17.527  0.00  0.00    +0.000 C 
BRANCH  10  15
ATOM     11  C   UNL     1       1.129   2.745  21.317  0.00  0.00    +0.000 C 
ATOM     12  C   UNL     1       1.692   3.724  20.331  0.00  0.00    +0.000 A 
ATOM     13  C   UNL     1       2.499   4.786  20.748  0.00  0.00    +0.000 A 
ATOM     14  C   UNL     1       2.973   5.721  19.824  0.00  0.00    +0.000 A 
ATOM     15  C   UNL     1       2.659   5.612  18.458  0.00  0.00    +0.000 A 
ATOM     16  C   UNL     1       1.857   4.540  18.049  0.00  0.00    +0.000 A 
ATOM     17  C   UNL     1       1.383   3.604  18.973  0.00  0.00    +0.000 A 
ENDBRANCH  10  15
ENDBRANCH   1  10
BRANCH   3  18
ATOM     18  C   UNL     1       7.967   7.861  17.815  0.00  0.00    +0.000 C 
BRANCH  18  19
ATOM     19  C   UNL     1       7.966   9.382  17.697  0.00  0.00    +0.000 C 
BRANCH  19  20
ATOM     20  C   UNL     1       8.968  10.018  18.643  0.00  0.00    +0.000 C 
ATOM     21  O   UNL     1       9.064   9.733  19.830  0.00  0.00    +0.000 OA
ATOM     22  N   UNL     1       9.760  10.958  18.017  0.00  0.00    +0.000 N 
ATOM     23  H   UNL     1       9.486  11.246  17.083  0.00  0.00    +0.000 HD
BRANCH  22  24
ATOM     24  C   UNL     1      10.698  11.803  18.747  0.00  0.00    +0.000 C 
ATOM     25  C   UNL     1      11.797  12.332  17.816  0.00  0.00    +0.000 C 
ATOM     26  C   UNL     1      11.273  13.345  16.797  0.00  0.00    +0.000 C 
ATOM     27  C   UNL     1      10.479  14.472  17.455  0.00  0.00    +0.000 C 
ATOM     28  C   UNL     1       9.403  13.957  18.407  0.00  0.00    +0.000 C 
ATOM     29  C   UNL     1       9.973  12.972  19.427  0.00  0.00    +0.000 C 
ENDBRANCH  22  24
ENDBRANCH  19  20
ENDBRANCH  18  19
ENDBRANCH   3  18
TORSDOF 6
ENDMDL
MODEL 7
REMARK VINA RESULT:      -8.0      3.786      6.720
REMARK  Name = 
REMARK  7 active torsions:
REMARK  status: ('A' for Active; 'I' for Inactive)
REMARK    1  A    between atoms: C_1  and  C_2
REMARK    2  A    between atoms: C_5  and  C_6
REMARK    3  A    between atoms: C_6  and  N_7
REMARK    4  A    between atoms: C_9  and  C_10
REMARK    5  A    between atoms: C_10  and  C_11
REMARK    6  A    between atoms: C_11  and  C_12
REMARK    7  A    between atoms: N_14  and  C_15
REMARK                            x       y       z     vdW  Elec       q    Type
REMARK                         _______ _______ _______ _____ _____    ______ ____
ROOT
ATOM      1  N   UNL     1      -0.295  10.936  19.125  0.00  0.00    +0.000 N 
ATOM      2  C   UNL     1       0.514  10.216  18.279  0.00  0.00    +0.000 A 
ATOM      3  C   UNL     1       1.217   9.286  19.019  0.00  0.00    +0.000 A 
ATOM      4  C   UNL     1       0.805   9.454  20.382  0.00  0.00    +0.000 A 
ATOM      5  C   UNL     1       1.180   8.839  21.596  0.00  0.00    +0.000 A 
ATOM      6  C   UNL     1       0.597   9.254  22.798  0.00  0.00    +0.000 A 
ATOM      7  C   UNL     1      -0.353  10.268  22.807  0.00  0.00    +0.000 A 
ATOM      8  C   UNL     1      -0.746  10.894  21.620  0.00  0.00    +0.000 A 
ATOM      9  C   UNL     1      -0.148  10.477  20.419  0.00  0.00    +0.000 A 
ENDROOT
BRANCH   1  10
ATOM     10  C   UNL     1      -1.034  12.131  18.723  0.00  0.00    +0.000 C 
BRANCH  10  15
ATOM     11  C   UNL     1      -6.740  10.969  18.388  0.00  0.00    +0.000 C 
ATOM     12  C   UNL     1      -5.286  11.332  18.434  0.00  0.00    +0.000 A 
ATOM     13  C   UNL     1      -4.394  10.865  17.465  0.00  0.00    +0.000 A 
ATOM     14  C   UNL     1      -3.032  11.168  17.552  0.00  0.00    +0.000 A 
ATOM     15  C   UNL     1      -2.530  11.951  18.605  0.00  0.00    +0.000 A 
ATOM     16  C   UNL     1      -3.434  12.421  19.567  0.00  0.00    +0.000 A 
ATOM     17  C   UNL     1      -4.796  12.119  19.480  0.00  0.00    +0.000 A 
ENDBRANCH  10  15
ENDBRANCH   1  10
BRANCH   3  18
ATOM     18  C   UNL     1       2.263   8.350  18.489  0.00  0.00    +0.000 C 
BRANCH  18  19
ATOM     19  C   UNL     1       2.141   6.930  19.029  0.00  0.00    +0.000 C 
BRANCH  19  20
ATOM     20  C   UNL     1       2.949   5.945  18.204  0.00  0.00    +0.000 C 
ATOM     21  O   UNL     1       2.509   4.882  17.784  0.00  0.00    +0.000 OA
ATOM     22  N   UNL     1       4.239   6.379  17.981  0.00  0.00    +0.000 N 
ATOM     23  H   UNL     1       4.557   7.181  18.515  0.00  0.00    +0.000 HD
BRANCH  22  24
ATOM     24  C   UNL     1       5.246   5.542  17.336  0.00  0.00    +0.000 C 
ATOM     25  C   UNL     1       6.271   6.402  16.584  0.00  0.00    +0.000 C 
ATOM     26  C   UNL     1       7.167   7.211  17.524  0.00  0.00    +0.000 C 
ATOM     27  C   UNL     1       7.817   6.342  18.598  0.00  0.00    +0.000 C 
ATOM     28  C   UNL     1       6.810   5.459  19.331  0.00  0.00    +0.000 C 
ATOM     29  C   UNL     1       5.956   4.646  18.359  0.00  0.00    +0.000 C 
ENDBRANCH  22  24
ENDBRANCH  19  20
ENDBRANCH  18  19
ENDBRANCH   3  18
TORSDOF 6
ENDMDL
MODEL 8
REMARK VINA RESULT:      -7.9      4.095      8.306
REMARK  Name = 
REMARK  7 active torsions:
REMARK  status: ('A' for Active; 'I' for Inactive)
REMARK    1  A    between atoms: C_1  and  C_2
REMARK    2  A    between atoms: C_5  and  C_6
REMARK    3  A    between atoms: C_6  and  N_7
REMARK    4  A    between atoms: C_9  and  C_10
REMARK    5  A    between atoms: C_10  and  C_11
REMARK    6  A    between atoms: C_11  and  C_12
REMARK    7  A    between atoms: N_14  and  C_15
REMARK                            x       y       z     vdW  Elec       q    Type
REMARK                         _______ _______ _______ _____ _____    ______ ____
ROOT
ATOM      1  N   UNL     1       4.281   4.371  18.909  0.00  0.00    +0.000 N 
ATOM      2  C   UNL     1       3.951   5.513  19.600  0.00  0.00    +0.000 A 
ATOM      3  C   UNL     1       2.630   5.431  19.991  0.00  0.00    +0.000 A 
ATOM      4  C   UNL     1       2.140   4.171  19.513  0.00  0.00    +0.000 A 
ATOM      5  C   UNL     1       0.882   3.533  19.559  0.00  0.00    +0.000 A 
ATOM      6  C   UNL     1       0.711   2.281  18.962  0.00  0.00    +0.000 A 
ATOM      7  C   UNL     1       1.774   1.655  18.321  0.00  0.00    +0.000 A 
ATOM      8  C   UNL     1       3.032   2.261  18.260  0.00  0.00    +0.000 A 
ATOM      9  C   UNL     1       3.192   3.524  18.856  0.00  0.00    +0.000 A 
ENDROOT
BRANCH   1  10
ATOM     10  C   UNL     1       5.535   4.195  18.179  0.00  0.00    +0.000 C 
BRANCH  10  15
ATOM     11  C   UNL     1       8.477   9.226  17.958  0.00  0.00    +0.000 C 
ATOM     12  C   UNL     1       7.768   7.905  17.962  0.00  0.00    +0.000 A 
ATOM     13  C   UNL     1       6.664   7.675  17.137  0.00  0.00    +0.000 A 
ATOM     14  C   UNL     1       5.981   6.457  17.191  0.00  0.00    +0.000 A 
ATOM     15  C   UNL     1       6.391   5.436  18.065  0.00  0.00    +0.000 A 
ATOM     16  C   UNL     1       7.504   5.672  18.881  0.00  0.00    +0.000 A 
ATOM     17  C   UNL     1       8.187   6.890  18.827  0.00  0.00    +0.000 A 
ENDBRANCH  10  15
ENDBRANCH   1  10
BRANCH   3  18
ATOM     18  C   UNL     1       1.856   6.501  20.704  0.00  0.00    +0.000 C 
BRANCH  18  19
ATOM     19  C   UNL     1       1.819   7.829  19.955  0.00  0.00    +0.000 C 
BRANCH  19  20
ATOM     20  C   UNL     1       1.262   8.945  20.819  0.00  0.00    +0.000 C 
ATOM     21  O   UNL     1       1.060   8.842  22.022  0.00  0.00    +0.000 OA
ATOM     22  N   UNL     1       1.006  10.092  20.097  0.00  0.00    +0.000 N 
ATOM     23  H   UNL     1       1.040  10.020  19.086  0.00  0.00    +0.000 HD
BRANCH  22  24
ATOM     24  C   UNL     1       0.336  11.250  20.679  0.00  0.00    +0.000 C 
ATOM     25  C   UNL     1       1.074  12.546  20.319  0.00  0.00    +0.000 C 
ATOM     26  C   UNL     1       0.960  12.899  18.835  0.00  0.00    +0.000 C 
ATOM     27  C   UNL     1      -0.488  12.901  18.348  0.00  0.00    +0.000 C 
ATOM     28  C   UNL     1      -1.240  11.629  18.729  0.00  0.00    +0.000 C 
ATOM     29  C   UNL     1      -1.126  11.329  20.223  0.00  0.00    +0.000 C 
ENDBRANCH  22  24
ENDBRANCH  19  20
ENDBRANCH  18  19
ENDBRANCH   3  18
TORSDOF 6
ENDMDL
MODEL 9
REMARK VINA RESULT:      -7.9      2.717      8.605
REMARK  Name = 
REMARK  7 active torsions:
REMARK  status: ('A' for Active; 'I' for Inactive)
REMARK    1  A    between atoms: C_1  and  C_2
REMARK    2  A    between atoms: C_5  and  C_6
REMARK    3  A    between atoms: C_6  and  N_7
REMARK    4  A    between atoms: C_9  and  C_10
REMARK    5  A    between atoms: C_10  and  C_11
REMARK    6  A    between atoms: C_11  and  C_12
REMARK    7  A    between atoms: N_14  and  C_15
REMARK                            x       y       z     vdW  Elec       q    Type
REMARK                         _______ _______ _______ _____ _____    ______ ____
ROOT
ATOM      1  N   UNL     1       4.471   5.188  19.283  0.00  0.00    +0.000 N 
ATOM      2  C   UNL     1       4.027   6.482  19.147  0.00  0.00    +0.000 A 
ATOM      3  C   UNL     1       2.710   6.546  19.556  0.00  0.00    +0.000 A 
ATOM      4  C   UNL     1       2.345   5.221  19.963  0.00  0.00    +0.000 A 
ATOM      5  C   UNL     1       1.147   4.642  20.436  0.00  0.00    +0.000 A 
ATOM      6  C   UNL     1       1.100   3.276  20.731  0.00  0.00    +0.000 A 
ATOM      7  C   UNL     1       2.229   2.481  20.565  0.00  0.00    +0.000 A 
ATOM      8  C   UNL     1       3.429   3.026  20.100  0.00  0.00    +0.000 A 
ATOM      9  C   UNL     1       3.463   4.398  19.797  0.00  0.00    +0.000 A 
ENDROOT
BRANCH   1  10
ATOM     10  C   UNL     1       5.751   4.709  18.765  0.00  0.00    +0.000 C 
BRANCH  10  15
ATOM     11  C   UNL     1       6.365   3.890  13.023  0.00  0.00    +0.000 C 
ATOM     12  C   UNL     1       6.180   4.170  14.484  0.00  0.00    +0.000 A 
ATOM     13  C   UNL     1       7.216   4.704  15.254  0.00  0.00    +0.000 A 
ATOM     14  C   UNL     1       7.046   4.910  16.626  0.00  0.00    +0.000 A 
ATOM     15  C   UNL     1       5.832   4.594  17.260  0.00  0.00    +0.000 A 
ATOM     16  C   UNL     1       4.796   4.067  16.478  0.00  0.00    +0.000 A 
ATOM     17  C   UNL     1       4.967   3.861  15.106  0.00  0.00    +0.000 A 
ENDBRANCH  10  15
ENDBRANCH   1  10
BRANCH   3  18
ATOM     18  C   UNL     1       1.830   7.760  19.498  0.00  0.00    +0.000 C 
BRANCH  18  19
ATOM     19  C   UNL     1       2.041   8.608  18.249  0.00  0.00    +0.000 C 
BRANCH  19  20
ATOM     20  C   UNL     1       1.054   9.759  18.178  0.00  0.00    +0.000 C 
ATOM     21  O   UNL     1      -0.090   9.654  17.757  0.00  0.00    +0.000 OA
ATOM     22  N   UNL     1       1.592  10.942  18.641  0.00  0.00    +0.000 N 
ATOM     23  H   UNL     1       2.593  10.964  18.801  0.00  0.00    +0.000 HD
BRANCH  22  24
ATOM     24  C   UNL     1       0.885  12.215  18.541  0.00  0.00    +0.000 C 
ATOM     25  C   UNL     1      -0.018  12.436  19.762  0.00  0.00    +0.000 C 
ATOM     26  C   UNL     1       0.775  12.678  21.048  0.00  0.00    +0.000 C 
ATOM     27  C   UNL     1       1.816  13.785  20.889  0.00  0.00    +0.000 C 
ATOM     28  C   UNL     1       2.699  13.591  19.659  0.00  0.00    +0.000 C 
ATOM     29  C   UNL     1       1.870  13.382  18.393  0.00  0.00    +0.000 C 
ENDBRANCH  22  24
ENDBRANCH  19  20
ENDBRANCH  18  19
ENDBRANCH   3  18
TORSDOF 6
ENDMDL
